@<TRIPOS>MOLECULE
3cis_ATP_A_1.pdb
 31 33 0 0 0
SMALL
GASTEIGER

@<TRIPOS>ATOM
      1  PG       -20.4090   36.3930  156.8050 P.3   1101  ATP1101     0.5373
      2  O1G      -18.9240   36.8000  157.2950 O.3   1101  ATP1101    -0.1143
      3  O2G      -20.8220   37.0490  155.5370 O.2   1101  ATP1101    -0.2221
      4  O3G      -20.3210   34.7910  156.6620 O.3   1101  ATP1101    -0.1143
      5  PB       -21.5040   38.0890  158.7420 P.3   1101  ATP1101     0.2277
      6  O1B      -22.8490   38.6610  158.5130 O.3   1101  ATP1101    -0.4368
      7  O2B      -20.3100   38.9060  158.4220 O.2   1101  ATP1101    -0.5168
      8  O3B      -21.4200   36.6710  158.0090 O.3   1101  ATP1101    -0.2258
      9  PA       -20.0240   37.0990  160.9240 P.3   1101  ATP1101     0.2189
     10  O1A      -20.1070   35.7270  161.4540 O.3   1101  ATP1101    -0.4371
     11  O2A      -18.9150   37.4440  160.0070 O.2   1101  ATP1101    -0.5170
     12  O3A      -21.4130   37.5670  160.2690 O.3   1101  ATP1101    -0.2700
     13  O5'      -19.9770   38.0740  162.1820 O.3   1101  ATP1101    -0.3112
     14  C5'      -20.5750   37.7140  163.4230 C.3   1101  ATP1101     0.1813
     15  C4'      -19.6320   38.0880  164.5470 C.3   1101  ATP1101     0.1821
     16  O4'      -18.4310   37.3400  164.2840 O.3   1101  ATP1101    -0.3135
     17  C3'      -19.1980   39.5480  164.4040 C.3   1101  ATP1101     0.2184
     18  O3'      -20.1160   40.4230  165.0640 O.3   1101  ATP1101    -0.2174
     19  C2'      -17.8560   39.5240  165.1240 C.3   1101  ATP1101     0.2570
     20  O2'      -18.0520   39.5640  166.5340 O.3   1101  ATP1101    -0.2130
     21  C1'      -17.2980   38.1500  164.7330 C.3   1101  ATP1101     0.3186
     22  N9       -16.3720   38.3840  163.6060 N.pl3 1101  ATP1101    -0.1439
     23  C8       -16.7340   38.5610  162.3320 C.3   1101  ATP1101     0.3377
     24  N7       -15.6430   38.7500  161.5940 N.2   1101  ATP1101    -0.2095
     25  C5       -14.5850   38.6960  162.4000 C.2   1101  ATP1101     0.2526
     26  C6       -13.2210   38.8240  162.1980 C.2   1101  ATP1101     0.4393
     27  N6       -12.7470   39.0500  160.9860 N.pl3 1101  ATP1101     0.2180
     28  N1       -12.3910   38.7140  163.2440 N.2   1101  ATP1101     0.0021
     29  C2       -12.8690   38.4890  164.4610 C.3   1101  ATP1101     0.5254
     30  N3       -14.1700   38.3640  164.6870 N.2   1101  ATP1101    -0.0055
     31  C4       -15.0480   38.4620  163.6800 C.2   1101  ATP1101     0.3518
@<TRIPOS>BOND
     1     3     1    2
     2     4     1    1
     3     1     2    1
     4     1     8    1
     5     8     5    1
     6     7     5    2
     7     6     5    1
     8     5    12    1
     9    11     9    2
    10    12     9    1
    11     9    10    1
    12     9    13    1
    13    27    26    1
    14    24    23    1
    15    24    25    2
    16    13    14    1
    17    26    25    1
    18    26    28    2
    19    23    22    1
    20    25    31    1
    21    28    29    1
    22    14    15    1
    23    22    31    1
    24    22    21    1
    25    31    30    2
    26    16    15    1
    27    16    21    1
    28    17    15    1
    29    17    18    1
    30    17    19    1
    31    29    30    1
    32    21    19    1
    33    19    20    1
