@<TRIPOS>MOLECULE
3ciu_HEM_A_1.pdb
 43 50 0 0 0
SMALL
GASTEIGER

@<TRIPOS>ATOM
      1 FE        -16.0220   25.0330  -11.7740 Fe    142  HEM142      0.0000
      2  CHA      -16.6730   27.8660   -9.9140 C.2   142  HEM142      0.0000
      3  CHB      -13.7250   26.8620  -13.6440 C.2   142  HEM142      0.0000
      4  CHC      -15.3910   22.3110  -13.7660 C.2   142  HEM142      0.0000
      5  CHD      -18.3710   23.2720  -10.0660 C.2   142  HEM142      0.0000
      6  NA       -15.2870   26.9930  -11.7450 N.ar  142  HEM142      0.0000
      7  C1A      -15.7890   28.0140  -10.9590 C.ar  142  HEM142      0.0000
      8  C2A      -15.2230   29.2650  -11.4280 C.ar  142  HEM142      0.0000
      9  C3A      -14.4100   28.9940  -12.4540 C.ar  142  HEM142      0.0000
     10  C4A      -14.4310   27.5570  -12.6790 C.ar  142  HEM142      0.0000
     11  CMA      -13.5950   30.0360  -13.2590 C.3   142  HEM142      0.0000
     12  CAA      -15.5060   30.6670  -10.8410 C.3   142  HEM142      0.0000
     13  CBA      -14.5850   30.8900   -9.6490 C.3   142  HEM142      0.0000
     14  CGA      -15.0290   32.1150   -8.8960 C.2   142  HEM142      0.0000
     15  O1A      -14.4350   33.2000   -9.1330 O.co2 142  HEM142      0.0000
     16  O2A      -15.9690   32.0010   -8.0620 O.co2 142  HEM142      0.0000
     17  NB       -14.7320   24.6380  -13.3830 N.2   142  HEM142      0.0000
     18  C1B      -13.9610   25.5670  -14.0550 C.2   142  HEM142      0.0000
     19  C2B      -13.4500   24.9390  -15.2600 C.2   142  HEM142      0.0000
     20  C3B      -13.9060   23.6790  -15.3000 C.2   142  HEM142      0.0000
     21  C4B      -14.7240   23.4670  -14.1170 C.2   142  HEM142      0.0000
     22  CMB      -12.5350   25.6220  -16.3050 C.3   142  HEM142      0.0000
     23  CAB      -13.6230   22.6300  -16.4070 C.2   142  HEM142      0.0000
     24  CBB      -12.4230   22.0530  -16.5450 C.2   142  HEM142      0.0000
     25  NC       -16.6630   23.0730  -11.8140 N.ar  142  HEM142      0.0000
     26  C1C      -16.4460   22.2230  -12.8820 C.ar  142  HEM142      0.0000
     27  C2C      -17.5240   21.2540  -12.9060 C.ar  142  HEM142      0.0000
     28  C3C      -18.3450   21.5220  -11.8860 C.ar  142  HEM142      0.0000
     29  C4C      -17.8180   22.6710  -11.1760 C.ar  142  HEM142      0.0000
     30  CMC      -17.6950   20.1110  -13.9300 C.3   142  HEM142      0.0000
     31  CAC      -19.6300   20.7430  -11.5180 C.2   142  HEM142      0.0000
     32  CBC      -20.7960   21.0580  -12.0930 C.2   142  HEM142      0.0000
     33  ND       -17.3430   25.5130  -10.2420 N.2   142  HEM142      0.0000
     34  C1D      -18.1870   24.5760   -9.6500 C.2   142  HEM142      0.0000
     35  C2D      -18.8410   25.1970   -8.5130 C.2   142  HEM142      0.0000
     36  C3D      -18.3100   26.6380   -8.4640 C.2   142  HEM142      0.0000
     37  C4D      -17.3870   26.7370   -9.5770 C.2   142  HEM142      0.0000
     38  CMD      -19.8610   24.5460   -7.5510 C.3   142  HEM142      0.0000
     39  CAD      -18.6750   27.7420   -7.4380 C.3   142  HEM142      0.0000
     40  CBD      -19.7220   28.6990   -8.0040 C.3   142  HEM142      0.0000
     41  CGD      -19.8500   29.9340   -7.1440 C.2   142  HEM142      0.0000
     42  O1D      -19.9830   29.8090   -5.8980 O.co2 142  HEM142      0.0000
     43  O2D      -19.8250   31.0580   -7.7070 O.co2 142  HEM142      0.0000
@<TRIPOS>BOND
     1    24    23    2
     2    23    20    1
     3    22    19    1
     4    20    19    2
     5    20    21    1
     6    19    18    1
     7    21     4    2
     8    21    17    1
     9    18     3    1
    10    18    17    2
    11    30    27    1
    12     4    26    1
    13     3    10    2
    14    17     1    1
    15    11     9    1
    16    27    26   ar
    17    27    28   ar
    18    26    25   ar
    19    10     9   ar
    20    10     6   ar
    21     9     8   ar
    22    32    31    2
    23    28    31    1
    24    28    29   ar
    25    25     1    1
    26    25    29   ar
    27     1     6    1
    28     1    33    1
    29     6     7   ar
    30     8     7   ar
    31     8    12    1
    32    29     5    1
    33     7     2    2
    34    12    13    1
    35    33    34    1
    36    33    37    2
    37     5    34    2
    38     2    37    1
    39    34    35    1
    40    13    14    1
    41    37    36    1
    42    15    14   ar
    43    14    16   ar
    44    35    36    2
    45    35    38    1
    46    36    39    1
    47    40    39    1
    48    40    41    1
    49    43    41   ar
    50    41    42   ar
