@<TRIPOS>MOLECULE
3ciu_5DP_B_1.pdb
 45 47 0 0 0
SMALL
GASTEIGER

@<TRIPOS>ATOM
      1  C1        -9.4340  -14.9180  -29.7050 C.3     1  5DP1        0.2144
      2  C2        -9.2520  -16.1720  -28.8180 C.3     1  5DP1        0.2198
      3  C3       -12.5490  -18.1780  -29.7450 C.3     1  5DP1        0.1804
      4  O1        -9.8610  -16.4970  -31.6040 O.3     1  5DP1       -0.3256
      5  O2        -9.3240  -12.8790  -31.8230 O.3     1  5DP1       -0.2176
      6  O14      -19.2450  -19.1290  -21.4910 O.2     1  5DP1       -0.2733
      7  C15      -18.6550  -18.0580  -21.4130 C.2     1  5DP1        0.2414
      8  C16      -19.4050  -16.7510  -21.5810 C.3     1  5DP1        0.0869
      9  C17      -20.7620  -16.7960  -20.8780 C.3     1  5DP1        0.0114
     10  C18      -21.8920  -16.4180  -21.8360 C.3     1  5DP1        0.0225
     11  C19      -22.5630  -15.0960  -21.4630 C.3     1  5DP1        0.1015
     12  N2       -21.6080  -13.9790  -21.4870 N.am    1  5DP1       -0.2229
     13  C23      -20.9750  -13.4150  -22.5210 C.2     1  5DP1        0.2552
     14  O15      -21.1350  -13.8110  -23.7360 O.2     1  5DP1       -0.2695
     15  C22      -20.1260  -12.3630  -22.1930 C.2     1  5DP1        0.0630
     16  C21      -20.2360  -12.2560  -20.8150 C.2     1  5DP1        0.0630
     17  C20      -21.1390  -13.2520  -20.4700 C.2     1  5DP1        0.2552
     18  O16      -21.4910  -13.4570  -19.2520 O.2     1  5DP1       -0.2695
     19  N1       -17.3390  -17.9600  -21.1880 N.am    1  5DP1       -0.2027
     20  C14      -16.3840  -19.0480  -20.9880 C.3     1  5DP1        0.1471
     21  C13      -15.0950  -18.6640  -21.7180 C.3     1  5DP1        0.1656
     22  O13      -15.3240  -18.4500  -23.1140 O.3     1  5DP1       -0.3492
     23  C12      -15.5710  -19.6520  -23.8470 C.3     1  5DP1        0.1742
     24  C11      -16.6580  -19.3940  -24.8930 C.3     1  5DP1        0.1742
     25  O12      -17.1450  -20.6030  -25.4920 O.3     1  5DP1       -0.3484
     26  C10      -16.2770  -21.1550  -26.4900 C.3     1  5DP1        0.1743
     27  C9       -16.6780  -20.7170  -27.9010 C.3     1  5DP1        0.1768
     28  O11      -16.2920  -19.3620  -28.1650 O.3     1  5DP1       -0.3259
     29  C6       -14.8960  -19.2000  -28.4470 C.3     1  5DP1        0.2695
     30  C5       -14.4550  -17.7690  -28.1270 C.3     1  5DP1        0.2404
     31  O10      -14.7700  -17.4210  -26.7720 O.3     1  5DP1       -0.2149
     32  C4       -12.9550  -17.6150  -28.3790 C.3     1  5DP1        0.2167
     33  O9       -12.2020  -18.2660  -27.3460 O.3     1  5DP1       -0.2175
     34  C7       -13.7910  -18.5990  -30.5470 C.3     1  5DP1        0.1803
     35  C8       -13.4560  -19.1900  -31.9180 C.3     1  5DP1        0.2141
     36  O7       -12.8670  -20.4920  -31.7810 O.3     1  5DP1       -0.2176
     37  O6       -14.6040  -19.5350  -29.8160 O.3     1  5DP1       -0.3257
     38  O8       -11.8030  -17.1650  -30.4340 O.3     1  5DP1       -0.3257
     39  C29      -10.4240  -17.4710  -30.7150 C.3     1  5DP1        0.2695
     40  C30       -9.9440  -15.1340  -31.1530 C.3     1  5DP1        0.1835
     41  C31       -9.2280  -14.2630  -32.1850 C.3     1  5DP1        0.2142
     42  O3        -8.2090  -14.1590  -29.6990 O.3     1  5DP1       -0.2176
     43  O4       -10.0450  -16.0280  -27.6270 O.3     1  5DP1       -0.2174
     44  C28       -9.5600  -17.5380  -29.4500 C.3     1  5DP1        0.2406
     45  O5        -8.3350  -18.2240  -29.7510 O.3     1  5DP1       -0.2149
@<TRIPOS>BOND
     1    41     5    1
     2    41    40    1
     3    35    36    1
     4    35    34    1
     5     4    40    1
     6     4    39    1
     7    40     1    1
     8    39    38    1
     9    39    44    1
    10    34    37    1
    11    34     3    1
    12    38     3    1
    13    37    29    1
    14    45    44    1
    15     3    32    1
    16     1    42    1
    17     1     2    1
    18    44     2    1
    19     2    43    1
    20    29    28    1
    21    29    30    1
    22    32    30    1
    23    32    33    1
    24    28    27    1
    25    30    31    1
    26    27    26    1
    27    26    25    1
    28    25    24    1
    29    24    23    1
    30    23    22    1
    31    14    13    2
    32    22    21    1
    33    13    15    1
    34    13    12   am
    35    15    16    2
    36    10    11    1
    37    10     9    1
    38    21    20    1
    39     8     7    1
    40     8     9    1
    41     6     7    2
    42    12    11    1
    43    12    17   am
    44     7    19   am
    45    19    20    1
    46    16    17    1
    47    17    18    2
