@<TRIPOS>MOLECULE
3ciw_SAH_A_1.pdb
 26 28 0 0 0
SMALL
GASTEIGER

@<TRIPOS>ATOM
      1  N         41.1250    3.2090   21.1530 N.3   1501  SAH1501    -0.1208
      2  CA        40.8430    2.8460   19.7380 C.3   1501  SAH1501     0.1952
      3  CB        41.2580    3.9570   18.7760 C.3   1501  SAH1501     0.0422
      4  CG        42.5070    4.7510   19.1210 C.3   1501  SAH1501     0.0597
      5  SD        44.0520    3.8250   18.9920 S.3   1501  SAH1501    -0.1375
      6  C         41.5160    1.5220   19.4420 C.2   1501  SAH1501     0.3819
      7  O         42.3740    1.0840   20.2470 O.co2 1501  SAH1501    -0.2441
      8  OXT       41.2180    0.9100   18.3960 O.co2 1501  SAH1501    -0.2441
      9  C5'       44.2370    3.7880   17.1670 C.3   1501  SAH1501     0.0899
     10  C4'       45.4830    3.0350   16.6560 C.3   1501  SAH1501     0.1630
     11  O4'       46.7130    3.6920   16.9700 O.3   1501  SAH1501    -0.3153
     12  C3'       45.6630    1.6400   17.2500 C.3   1501  SAH1501     0.2168
     13  O3'       44.8310    0.7270   16.5810 O.3   1501  SAH1501    -0.2175
     14  C2'       47.1550    1.3610   17.0890 C.3   1501  SAH1501     0.2569
     15  O2'       47.4660    0.5570   15.9550 O.3   1501  SAH1501    -0.2130
     16  C1'       47.7690    2.7750   16.9040 C.3   1501  SAH1501     0.3185
     17  N9        48.7920    3.0590   17.9020 N.pl3 1501  SAH1501    -0.1439
     18  C8        48.6250    3.1440   19.2620 C.3   1501  SAH1501     0.3377
     19  N7        49.8180    3.3480   19.8600 N.2   1501  SAH1501    -0.2095
     20  C5        50.7770    3.3640   18.8950 C.2   1501  SAH1501     0.2526
     21  C6        52.1410    3.5570   18.9250 C.2   1501  SAH1501     0.4393
     22  N6        52.8310    3.7060   20.0590 N.pl3 1501  SAH1501     0.2180
     23  N1        52.8100    3.5250   17.7440 N.2   1501  SAH1501     0.0021
     24  C2        52.1730    3.3710   16.5390 C.3   1501  SAH1501     0.5254
     25  N3        50.8240    3.2160   16.5100 N.2   1501  SAH1501    -0.0055
     26  C4        50.1290    3.2060   17.6590 C.2   1501  SAH1501     0.3518
@<TRIPOS>BOND
     1    15    14    1
     2    25    24    1
     3    25    26    2
     4    24    23    1
     5    13    12    1
     6    10    11    1
     7    10     9    1
     8    10    12    1
     9    16    11    1
    10    16    14    1
    11    16    17    1
    12    14    12    1
    13     9     5    1
    14    26    17    1
    15    26    20    1
    16    23    21    2
    17    17    18    1
    18     8     6   ar
    19     3     4    1
    20     3     2    1
    21    20    21    1
    22    20    19    2
    23    21    22    1
    24     5     4    1
    25    18    19    1
    26     6     2    1
    27     6     7   ar
    28     2     1    1
