@<TRIPOS>MOLECULE
3cix_SAH_A_1.pdb
 26 28 0 0 0
SMALL
GASTEIGER

@<TRIPOS>ATOM
      1  N         41.0260    3.2310   21.2160 N.3   1501  SAH1501    -0.1208
      2  CA        40.7590    2.8050   19.8010 C.3   1501  SAH1501     0.1952
      3  CB        41.0930    3.9150   18.7930 C.3   1501  SAH1501     0.0422
      4  CG        42.3530    4.7410   19.0480 C.3   1501  SAH1501     0.0597
      5  SD        43.9430    3.8770   19.0020 S.3   1501  SAH1501    -0.1375
      6  C         41.4500    1.4870   19.4460 C.2   1501  SAH1501     0.3819
      7  O         42.3020    1.0180   20.1910 O.co2 1501  SAH1501    -0.2441
      8  OXT       41.1220    0.8640   18.4170 O.co2 1501  SAH1501    -0.2441
      9  C5'       44.3380    4.0080   17.2010 C.3   1501  SAH1501     0.0899
     10  C4'       45.5110    3.1430   16.6650 C.3   1501  SAH1501     0.1630
     11  O4'       46.7880    3.7470   16.9320 O.3   1501  SAH1501    -0.3153
     12  C3'       45.6590    1.7370   17.2310 C.3   1501  SAH1501     0.2168
     13  O3'       44.8090    0.7980   16.6100 O.3   1501  SAH1501    -0.2175
     14  C2'       47.1510    1.4320   17.1140 C.3   1501  SAH1501     0.2569
     15  O2'       47.4460    0.5690   16.0500 O.3   1501  SAH1501    -0.2130
     16  C1'       47.8100    2.8130   16.8890 C.3   1501  SAH1501     0.3185
     17  N9        48.8100    3.0450   17.9380 N.pl3 1501  SAH1501    -0.1439
     18  C8        48.6300    3.1260   19.2960 C.3   1501  SAH1501     0.3377
     19  N7        49.8250    3.3160   19.8940 N.2   1501  SAH1501    -0.2095
     20  C5        50.7860    3.3160   18.9210 C.2   1501  SAH1501     0.2526
     21  C6        52.1630    3.4940   18.9490 C.2   1501  SAH1501     0.4393
     22  N6        52.8790    3.6330   20.0860 N.pl3 1501  SAH1501     0.2180
     23  N1        52.8300    3.4830   17.7400 N.2   1501  SAH1501     0.0021
     24  C2        52.1840    3.3360   16.5360 C.3   1501  SAH1501     0.5254
     25  N3        50.8280    3.1910   16.5080 N.2   1501  SAH1501    -0.0055
     26  C4        50.1460    3.1990   17.6870 C.2   1501  SAH1501     0.3518
@<TRIPOS>BOND
     1    15    14    1
     2    25    24    1
     3    25    26    2
     4    24    23    1
     5    13    12    1
     6    10    11    1
     7    10     9    1
     8    10    12    1
     9    16    11    1
    10    16    14    1
    11    16    17    1
    12    14    12    1
    13     9     5    1
    14    26    17    1
    15    26    20    1
    16    23    21    2
    17    17    18    1
    18     8     6   ar
    19     3     4    1
    20     3     2    1
    21    20    21    1
    22    20    19    2
    23    21    22    1
    24     5     4    1
    25    18    19    1
    26     6     2    1
    27     6     7   ar
    28     2     1    1
