@<TRIPOS>MOLECULE
3ciz_SX1_B_1.pdb
 11 11 0 0 0
SMALL
GASTEIGER

@<TRIPOS>ATOM
      1  O1       -37.3210   67.9610   29.6780 O.co2 572  SX1572     -0.2405
      2  C7       -37.0000   69.1170   29.9020 C.2   572  SX1572      0.3891
      3  O2       -37.6820   70.1250   29.3230 O.co2 572  SX1572     -0.2405
      4  C6       -35.8790   69.5680   30.7710 C.ar  572  SX1572      0.0969
      5  C1       -35.1300   70.7460   30.5280 C.ar  572  SX1572      0.0955
      6  N1       -35.3750   71.6100   29.4440 N.pl3 572  SX1572     -0.1278
      7  C5       -35.5710   68.7580   31.8830 C.ar  572  SX1572      0.0146
      8  C4       -34.5270   69.1130   32.7400 C.ar  572  SX1572      0.0349
      9 BR1       -34.0900   68.0300   34.2320 Br    572  SX1572     -0.0490
     10  C3       -33.7890   70.2710   32.5040 C.ar  572  SX1572      0.0081
     11  C2       -34.0860   71.0820   31.4060 C.ar  572  SX1572      0.0188
@<TRIPOS>BOND
     1     3     2   ar
     2     6     5    1
     3     1     2   ar
     4     2     4    1
     5     5     4   ar
     6     5    11   ar
     7     4     7   ar
     8    11    10   ar
     9     7     8   ar
    10    10     8   ar
    11     8     9    1
