@<TRIPOS>MOLECULE
3cj0_SX2_A_1.pdb
 15 15 0 0 0
SMALL
GASTEIGER

@<TRIPOS>ATOM
      1 BR1         8.8950   39.6270   71.6200 Br    571  SX2571     -0.0474
      2  C8         8.0800   38.3560   72.7510 C.ar  571  SX2571      0.0538
      3  C9         8.8100   37.2730   73.2200 C.ar  571  SX2571      0.1070
      4  N2         8.2940   36.3180   74.0320 N.ar  571  SX2571     -0.2268
      5  C7         6.7430   38.4880   73.1270 C.ar  571  SX2571      0.0112
      6  C6         6.2000   37.5200   73.9820 C.ar  571  SX2571      0.0367
      7  C5         7.0070   36.4480   74.3990 C.ar  571  SX2571      0.1545
      8  N1         6.4320   35.4910   75.2350 N.am  571  SX2571     -0.1604
      9  C4         5.4050   34.6520   74.8580 C.2   571  SX2571      0.2475
     10  O3         4.5640   34.8640   73.9990 O.2   571  SX2571     -0.2729
     11  C3         5.3960   33.3710   75.6700 C.3   571  SX2571      0.0990
     12  C2         4.4760   33.4870   76.8810 C.3   571  SX2571      0.1237
     13  C1         3.1750   34.1810   76.5650 C.2   571  SX2571      0.3654
     14  O2         2.7940   35.2180   77.0850 O.co2 571  SX2571     -0.2456
     15  O1         2.4590   33.5300   75.6210 O.co2 571  SX2571     -0.2456
@<TRIPOS>BOND
     1     1     2    1
     2     2     5   ar
     3     2     3   ar
     4     5     6   ar
     5     3     4   ar
     6     6     7   ar
     7    10     9    2
     8     4     7   ar
     9     7     8    1
    10     9     8   am
    11     9    11    1
    12    15    13   ar
    13    11    12    1
    14    13    12    1
    15    13    14   ar
