@<TRIPOS>MOLECULE
3cj2_SX3_A_1.pdb
 18 19 0 0 0
SMALL
GASTEIGER

@<TRIPOS>ATOM
      1 BR1       -19.2830    9.2300  -14.4060 Br    571  SX3571     -0.0490
      2  C11      -20.8160    8.5870  -15.3110 C.ar  571  SX3571      0.0348
      3  C10      -21.8210    9.5080  -15.6250 C.ar  571  SX3571      0.0126
      4  C12      -20.9370    7.2320  -15.6400 C.ar  571  SX3571      0.0081
      5  C13      -22.1080    6.8040  -16.2950 C.ar  571  SX3571      0.0187
      6  C14      -23.1370    7.7080  -16.6380 C.ar  571  SX3571      0.0935
      7  N2       -24.2690    7.2190  -17.3100 N.pl3 571  SX3571     -0.1279
      8  C9       -22.9800    9.0760  -16.2840 C.ar  571  SX3571      0.0708
      9  C8       -23.9740   10.1270  -16.6150 C.2   571  SX3571      0.2503
     10  O1       -23.5970   10.9450  -17.4540 O.2   571  SX3571     -0.2699
     11  N1       -25.2720   10.2250  -16.0880 N.am  571  SX3571     -0.2760
     12  C6       -25.6520    9.3820  -14.9480 C.3   571  SX3571      0.0937
     13  C4       -26.1280   10.1760  -13.7390 C.3   571  SX3571      0.0199
     14  C5       -26.5810    9.2090  -12.6660 C.3   571  SX3571      0.0018
     15  C3       -27.2440   11.1310  -14.1370 C.3   571  SX3571      0.0034
     16  C7       -26.2000   11.3270  -16.4140 C.3   571  SX3571      0.0937
     17  C2       -26.7800   12.0800  -15.2340 C.3   571  SX3571      0.0199
     18  C1       -27.9560   12.9430  -15.6860 C.3   571  SX3571      0.0018
@<TRIPOS>BOND
     1    10     9    2
     2     7     6    1
     3     6     5   ar
     4     6     8   ar
     5     9     8    1
     6     9    11   am
     7    16    11    1
     8    16    17    1
     9     5     4   ar
    10     8     3   ar
    11    11    12    1
    12    18    17    1
    13     4     2   ar
    14     3     2   ar
    15     2     1    1
    16    17    15    1
    17    12    13    1
    18    15    13    1
    19    13    14    1
