@<TRIPOS>MOLECULE
3cj3_SX4_A_1.pdb
 23 25 0 0 0
SMALL
GASTEIGER

@<TRIPOS>ATOM
      1 CL1         9.9040   36.2100   78.0570 Cl    572  SX4572     -0.0826
      2  C18       10.8610   34.7590   78.2920 C.ar  572  SX4572      0.0537
      3  C17       12.1120   34.8730   78.9200 C.ar  572  SX4572      0.0111
      4  C16       12.9370   33.7640   79.1430 C.ar  572  SX4572      0.0008
      5  C15       12.5310   32.5000   78.7270 C.ar  572  SX4572     -0.0003
      6  C14       11.2880   32.3570   78.1030 C.ar  572  SX4572     -0.0034
      7  C13       10.4430   33.4700   77.8850 C.ar  572  SX4572     -0.0099
      8  C12        9.1180   33.3040   77.1990 C.3   572  SX4572      0.0470
      9  C11        9.1540   33.7130   75.7100 C.3   572  SX4572      0.0800
     10  C10       10.1430   32.8830   74.8740 C.3   572  SX4572      0.0219
     11  C9         9.3650   31.6530   74.3830 C.3   572  SX4572      0.0232
     12  C8         7.9330   31.8920   74.8490 C.3   572  SX4572      0.0937
     13  N2         7.8890   33.3220   75.1040 N.am  572  SX4572     -0.2773
     14  C7         6.7430   34.0900   74.9350 C.2   572  SX4572      0.2503
     15  O1         5.7170   33.6240   74.4050 O.2   572  SX4572     -0.2699
     16  C6         6.7580   35.5130   75.3920 C.ar  572  SX4572      0.0708
     17  C1         5.9490   35.9490   76.4730 C.ar  572  SX4572      0.0935
     18  N1         5.0840   35.1030   77.1770 N.pl3 572  SX4572     -0.1279
     19  C5         7.5850   36.4380   74.7160 C.ar  572  SX4572      0.0126
     20  C4         7.6120   37.7910   75.1020 C.ar  572  SX4572      0.0348
     21 BR1         8.7110   39.0790   74.2100 Br    572  SX4572     -0.0490
     22  C3         6.8070   38.2200   76.1650 C.ar  572  SX4572      0.0081
     23  C2         5.9860   37.3090   76.8440 C.ar  572  SX4572      0.0187
@<TRIPOS>BOND
     1    21    20    1
     2    11    12    1
     3    11    10    1
     4    15    14    2
     5    19    20   ar
     6    19    16   ar
     7    12    13    1
     8    10     9    1
     9    14    13   am
    10    14    16    1
    11    20    22   ar
    12    13     9    1
    13    16    17   ar
    14     9     8    1
    15    22    23   ar
    16    17    23   ar
    17    17    18    1
    18     8     7    1
    19     7     6   ar
    20     7     2   ar
    21     1     2    1
    22     6     5   ar
    23     2     3   ar
    24     5     4   ar
    25     3     4   ar
