@<TRIPOS>MOLECULE
3cj4_SX5_A_1.pdb
 25 26 0 0 0
SMALL
GASTEIGER

@<TRIPOS>ATOM
      1  O3       -26.6480    3.2990  -15.9790 O.co2 571  SX5571     -0.2456
      2  C18      -27.4220    3.4190  -15.0400 C.2   571  SX5571      0.3654
      3  O4       -27.6680    2.3810  -14.2250 O.co2 571  SX5571     -0.2456
      4  C17      -28.1980    4.6340  -14.6220 C.3   571  SX5571      0.1237
      5  C16      -27.5030    5.9140  -15.0710 C.3   571  SX5571      0.0990
      6  C15      -26.1950    6.1790  -14.3410 C.2   571  SX5571      0.2461
      7  O2       -25.8110    5.5300  -13.3640 O.2   571  SX5571     -0.2730
      8  N2       -25.5070    7.2270  -14.9180 N.am  571  SX5571     -0.1791
      9  C14      -24.2660    7.7140  -14.4510 C.ar  571  SX5571      0.0777
     10  C13      -23.1920    6.8500  -14.1950 C.ar  571  SX5571      0.0172
     11  C12      -21.9800    7.3470  -13.7140 C.ar  571  SX5571      0.0080
     12  C11      -21.8480    8.7180  -13.4860 C.ar  571  SX5571      0.0348
     13 BR1       -20.2040    9.3590  -12.8330 Br    571  SX5571     -0.0490
     14  C10      -22.8970    9.6040  -13.7270 C.ar  571  SX5571      0.0125
     15  C9       -24.1150    9.1010  -14.1990 C.ar  571  SX5571      0.0694
     16  C8       -25.2110   10.0620  -14.4770 C.2   571  SX5571      0.2503
     17  O1       -25.0050   10.8270  -15.4200 O.2   571  SX5571     -0.2699
     18  N1       -26.4010   10.0850  -13.7410 N.am  571  SX5571     -0.2760
     19  C6       -26.5420    9.4540  -12.4120 C.3   571  SX5571      0.0937
     20  C4       -26.9360   10.3950  -11.2750 C.3   571  SX5571      0.0199
     21  C5       -27.2850    9.5940  -10.0200 C.3   571  SX5571      0.0018
     22  C3       -28.1020   11.3000  -11.6710 C.3   571  SX5571      0.0034
     23  C7       -27.3910   11.1340  -14.0540 C.3   571  SX5571      0.0937
     24  C2       -27.7100   12.0950  -12.9060 C.3   571  SX5571      0.0199
     25  C1       -28.8000   13.0900  -13.2970 C.3   571  SX5571      0.0018
@<TRIPOS>BOND
     1     1     2   ar
     2    17    16    2
     3     5     4    1
     4     5     6    1
     5     2     4    1
     6     2     3   ar
     7     8     9    1
     8     8     6   am
     9    16    15    1
    10    16    18   am
    11     9    15   ar
    12     9    10   ar
    13     6     7    2
    14    15    14   ar
    15    10    11   ar
    16    23    18    1
    17    23    24    1
    18    18    19    1
    19    14    12   ar
    20    11    12   ar
    21    12    13    1
    22    25    24    1
    23    24    22    1
    24    19    20    1
    25    22    20    1
    26    20    21    1
