@<TRIPOS>MOLECULE
3cj5_SX6_A_1.pdb
 30 32 0 0 0
SMALL
GASTEIGER

@<TRIPOS>ATOM
      1  O3         4.0490   36.2850   79.7630 O.2   571  SX6571     -0.2749
      2  C18        3.4170   35.2210   79.8290 C.2   571  SX6571      0.2263
      3  N3         2.1550   35.1860   80.4080 N.am  571  SX6571     -0.2744
      4  C22        1.4380   36.3480   80.9850 C.3   571  SX6571      0.1255
      5  C21        0.5810   35.9860   82.2120 C.3   571  SX6571      0.1636
      6  O4        -0.3200   34.9030   81.9100 O.3   571  SX6571     -0.3501
      7  C20        0.3980   33.7270   81.4840 C.3   571  SX6571      0.1636
      8  C19        1.2380   34.0280   80.2320 C.3   571  SX6571      0.1255
      9  C17        3.9530   33.8970   79.2940 C.3   571  SX6571      0.0949
     10  C16        5.4380   33.8940   78.9370 C.3   571  SX6571      0.0967
     11  C15        5.7350   34.8110   77.7640 C.2   571  SX6571      0.2461
     12  O2         5.0850   34.8090   76.7120 O.2   571  SX6571     -0.2730
     13  N2         6.7970   35.6420   78.0490 N.am  571  SX6571     -0.1791
     14  C14        7.2940   36.6130   77.1510 C.ar  571  SX6571      0.0777
     15  C13        6.4080   37.4510   76.4550 C.ar  571  SX6571      0.0172
     16  C12        6.8910   38.4100   75.5600 C.ar  571  SX6571      0.0080
     17  C11        8.2690   38.5200   75.3750 C.ar  571  SX6571      0.0348
     18 BR1         8.9710   39.7720   74.1750 Br    571  SX6571     -0.0490
     19  C10        9.1700   37.7090   76.0390 C.ar  571  SX6571      0.0125
     20  C9         8.6940   36.7490   76.9290 C.ar  571  SX6571      0.0694
     21  C8         9.7280   35.9310   77.6180 C.2   571  SX6571      0.2503
     22  O1        10.4970   36.5350   78.3570 O.2   571  SX6571     -0.2699
     23  N1         9.8500   34.5630   77.4540 N.am  571  SX6571     -0.2760
     24  C6        10.8590   33.7750   78.1700 C.3   571  SX6571      0.0937
     25  C4        11.7790   32.9980   77.2330 C.3   571  SX6571      0.0199
     26  C5        12.7690   32.1440   78.0290 C.3   571  SX6571      0.0018
     27  C3        10.9420   32.1540   76.2720 C.3   571  SX6571      0.0034
     28  C7         9.0940   33.8780   76.3820 C.3   571  SX6571      0.0937
     29  C2         9.9550   33.0030   75.4640 C.3   571  SX6571      0.0199
     30  C1         9.0960   32.1430   74.5410 C.3   571  SX6571      0.0018
@<TRIPOS>BOND
     1    18    17    1
     2    30    29    1
     3    17    16   ar
     4    17    19   ar
     5    29    27    1
     6    29    28    1
     7    16    15   ar
     8    19    20   ar
     9    27    25    1
    10    28    23    1
    11    15    14   ar
    12    12    11    2
    13    20    14   ar
    14    20    21    1
    15    14    13    1
    16    25    26    1
    17    25    24    1
    18    23    21   am
    19    23    24    1
    20    21    22    2
    21    11    13   am
    22    11    10    1
    23    10     9    1
    24     9     2    1
    25     1     2    2
    26     2     3   am
    27     8     3    1
    28     8     7    1
    29     3     4    1
    30     4     5    1
    31     7     6    1
    32     6     5    1
