@<TRIPOS>MOLECULE
3cj7_AMP_A_1.pdb
 23 25 0 0 0
SMALL
GASTEIGER

@<TRIPOS>ATOM
      1  P         23.5410   34.5870   24.0810 P.3   501  AMP501      0.5327
      2  O1P       22.0660   34.1120   24.2550 O.3   501  AMP501     -0.1145
      3  O2P       23.7320   36.0490   24.3360 O.3   501  AMP501     -0.1145
      4  O3P       24.1570   34.1580   22.7540 O.2   501  AMP501     -0.2224
      5  O5'       24.4470   33.7670   25.1530 O.3   501  AMP501     -0.2675
      6  C5'       25.8610   33.5370   25.0090 C.3   501  AMP501      0.1860
      7  C4'       26.3180   32.8860   26.3130 C.3   501  AMP501      0.1823
      8  O4'       27.7040   32.5170   26.1950 O.3   501  AMP501     -0.3135
      9  C3'       26.2100   33.9000   27.4530 C.3   501  AMP501      0.2184
     10  O3'       25.8870   33.1780   28.6590 O.3   501  AMP501     -0.2174
     11  C2'       27.6260   34.4610   27.5110 C.3   501  AMP501      0.2570
     12  O2'       27.9830   35.0120   28.7880 O.3   501  AMP501     -0.2130
     13  C1'       28.4240   33.1940   27.2140 C.3   501  AMP501      0.3186
     14  N9        29.8050   33.4720   26.8070 N.pl3 501  AMP501     -0.1439
     15  C8        30.2450   34.3720   25.9050 C.3   501  AMP501      0.3377
     16  N7        31.5980   34.3190   25.8360 N.2   501  AMP501     -0.2095
     17  C5        31.9980   33.3700   26.7150 C.2   501  AMP501      0.2526
     18  C6        33.2810   32.7980   27.1430 C.2   501  AMP501      0.4393
     19  N6        34.4020   33.2890   26.5760 N.pl3 501  AMP501      0.2180
     20  N1        33.2830   31.8120   28.0830 N.2   501  AMP501      0.0021
     21  C2        32.1430   31.3120   28.6360 C.3   501  AMP501      0.5254
     22  N3        30.9310   31.7900   28.2780 N.2   501  AMP501     -0.0055
     23  C4        30.8180   32.8020   27.3480 C.2   501  AMP501      0.3518
@<TRIPOS>BOND
     1     4     1    2
     2     1     2    1
     3     1     3    1
     4     1     5    1
     5     6     5    1
     6     6     7    1
     7    16    15    1
     8    16    17    2
     9    15    14    1
    10     8     7    1
    11     8    13    1
    12     7     9    1
    13    19    18    1
    14    17    18    1
    15    17    23    1
    16    14    13    1
    17    14    23    1
    18    18    20    2
    19    13    11    1
    20    23    22    2
    21     9    11    1
    22     9    10    1
    23    11    12    1
    24    20    21    1
    25    22    21    1
