@<TRIPOS>MOLECULE
3cj9_AMP_A_1.pdb
 23 25 0 0 0
SMALL
GASTEIGER

@<TRIPOS>ATOM
      1  P         26.6780   33.5940   22.6680 P.3   501  AMP501      0.5327
      2  O1P       25.5980   34.6720   22.7090 O.3   501  AMP501     -0.1145
      3  O2P       28.0050   34.1990   22.2470 O.3   501  AMP501     -0.1145
      4  O3P       26.3030   32.3190   21.9190 O.2   501  AMP501     -0.2224
      5  O5'       26.8400   33.1640   24.2280 O.3   501  AMP501     -0.2675
      6  C5'       25.9500   32.2660   24.9000 C.3   501  AMP501      0.1860
      7  C4'       26.3720   32.2000   26.3570 C.3   501  AMP501      0.1823
      8  O4'       27.8080   31.9760   26.4130 O.3   501  AMP501     -0.3135
      9  C3'       26.0810   33.4650   27.1630 C.3   501  AMP501      0.2184
     10  O3'       25.6990   33.0350   28.4780 O.3   501  AMP501     -0.2174
     11  C2'       27.4370   34.1520   27.2370 C.3   501  AMP501      0.2570
     12  O2'       27.6990   34.9750   28.3840 O.3   501  AMP501     -0.2130
     13  C1'       28.3420   32.9430   27.3120 C.3   501  AMP501      0.3186
     14  N9        29.7380   33.2180   26.9430 N.pl3 501  AMP501     -0.1439
     15  C8        30.2040   34.0820   26.0110 C.3   501  AMP501      0.3377
     16  N7        31.5590   34.0240   25.9930 N.2   501  AMP501     -0.2095
     17  C5        31.9330   33.1090   26.9330 C.2   501  AMP501      0.2526
     18  C6        33.1880   32.5590   27.4380 C.2   501  AMP501      0.4393
     19  N6        34.3190   33.0270   26.8690 N.pl3 501  AMP501      0.2180
     20  N1        33.1600   31.6080   28.4130 N.2   501  AMP501      0.0021
     21  C2        31.9970   31.1170   28.9240 C.3   501  AMP501      0.5254
     22  N3        30.7940   31.5890   28.5250 N.2   501  AMP501     -0.0055
     23  C4        30.7240   32.5530   27.5410 C.2   501  AMP501      0.3518
@<TRIPOS>BOND
     1     4     1    2
     2     3     1    1
     3     1     2    1
     4     1     5    1
     5     5     6    1
     6     6     7    1
     7    16    15    1
     8    16    17    2
     9    15    14    1
    10     7     8    1
    11     7     9    1
    12     8    13    1
    13    19    18    1
    14    17    18    1
    15    17    23    1
    16    14    13    1
    17    14    23    1
    18     9    11    1
    19     9    10    1
    20    11    13    1
    21    11    12    1
    22    18    20    2
    23    23    22    2
    24    20    21    1
    25    22    21    1
