@<TRIPOS>MOLECULE
3cja_ANP_A_1.pdb
 31 33 0 0 0
SMALL
GASTEIGER

@<TRIPOS>ATOM
      1  PG        19.9830   33.3370   23.2800 P.3   501  ANP501      0.4884
      2  O1G       19.1150   34.5280   23.0050 O.3   501  ANP501     -0.1240
      3  O2G       19.4280   32.5010   24.3920 O.3   501  ANP501     -0.1240
      4  O3G       20.4970   32.5250   22.0930 O.2   501  ANP501     -0.2331
      5  PB        22.7910   34.7800   23.2360 P.3   501  ANP501      0.4669
      6  O1B       22.9810   36.1750   23.7920 O.3   501  ANP501     -0.1253
      7  O2B       22.7240   34.6520   21.7380 O.2   501  ANP501     -0.2351
      8  N3B       21.3760   34.0850   24.0120 N.3   501  ANP501     -0.0163
      9  PA        25.4670   33.7190   23.1860 P.3   501  ANP501      0.2220
     10  O1A       25.9200   35.0390   22.7200 O.3   501  ANP501     -0.4370
     11  O2A       25.4800   32.4610   22.3350 O.2   501  ANP501     -0.5170
     12  O3A       23.9740   33.8670   23.8010 O.3   501  ANP501     -0.2360
     13  O5'       26.2500   33.3430   24.5260 O.3   501  ANP501     -0.3111
     14  C5'       25.8690   32.1870   25.2840 C.3   501  ANP501      0.1813
     15  C4'       26.4960   32.2720   26.6600 C.3   501  ANP501      0.1821
     16  O4'       27.9240   32.2750   26.5150 O.3   501  ANP501     -0.3135
     17  C3'       26.1270   33.5600   27.3740 C.3   501  ANP501      0.2184
     18  O3'       25.8600   33.1790   28.7150 O.3   501  ANP501     -0.2174
     19  C2'       27.3690   34.4470   27.2820 C.3   501  ANP501      0.2570
     20  O2'       27.6440   35.2380   28.4480 O.3   501  ANP501     -0.2130
     21  C1'       28.5000   33.4620   27.0920 C.3   501  ANP501      0.3186
     22  N9        29.5540   34.0300   26.2070 N.pl3 501  ANP501     -0.1439
     23  C8        29.3920   34.8660   25.1510 C.3   501  ANP501      0.3377
     24  N7        30.6050   35.1650   24.6110 N.2   501  ANP501     -0.2095
     25  C5        31.5280   34.4880   25.3200 C.2   501  ANP501      0.2526
     26  C6        32.9070   34.4100   25.2360 C.2   501  ANP501      0.4393
     27  N6        33.5640   35.0930   24.2620 N.pl3 501  ANP501      0.2180
     28  N1        33.5690   33.6290   26.1230 N.2   501  ANP501      0.0021
     29  C2        32.9150   32.9450   27.0800 C.3   501  ANP501      0.5254
     30  N3        31.5760   33.0100   27.1980 N.2   501  ANP501     -0.0055
     31  C4        30.8700   33.7750   26.3310 C.2   501  ANP501      0.3518
@<TRIPOS>BOND
     1     7     5    2
     2     4     1    2
     3    11     9    2
     4    10     9    1
     5     2     1    1
     6     9    12    1
     7     9    13    1
     8     5     6    1
     9     5    12    1
    10     5     8    1
    11     1     8    1
    12     1     3    1
    13    27    26    1
    14    13    14    1
    15    24    23    1
    16    24    25    2
    17    23    22    1
    18    26    25    1
    19    26    28    2
    20    14    15    1
    21    25    31    1
    22    28    29    1
    23    22    31    1
    24    22    21    1
    25    31    30    2
    26    16    15    1
    27    16    21    1
    28    15    17    1
    29    29    30    1
    30    21    19    1
    31    19    17    1
    32    19    20    1
    33    17    18    1
