@<TRIPOS>MOLECULE
3cjb_ATP_A_1.pdb
 31 33 0 0 0
SMALL
GASTEIGER

@<TRIPOS>ATOM
      1  PG        -5.9430   -1.9990   19.2090 P.3   377  ATP377      0.5373
      2  O1G       -7.0050   -1.0830   19.7770 O.3   377  ATP377     -0.1143
      3  O2G       -5.3820   -1.5490   17.8860 O.2   377  ATP377     -0.2221
      4  O3G       -4.9020   -2.4410   20.2130 O.3   377  ATP377     -0.1143
      5  PB        -7.7290   -4.0910   19.8690 P.3   377  ATP377      0.2277
      6  O1B       -9.1020   -4.1880   19.2510 O.2   377  ATP377     -0.5168
      7  O2B       -7.5670   -3.5390   21.2700 O.3   377  ATP377     -0.4368
      8  O3B       -6.7530   -3.3370   18.8260 O.3   377  ATP377     -0.2258
      9  PA        -7.2550   -6.6460   20.9660 P.3   377  ATP377      0.2189
     10  O1A       -8.7270   -6.7490   21.3000 O.2   377  ATP377     -0.5170
     11  O2A       -6.2340   -6.4070   22.0560 O.3   377  ATP377     -0.4371
     12  O3A       -7.0570   -5.5450   19.8140 O.3   377  ATP377     -0.2700
     13  O5'       -6.7950   -7.9510   20.1470 O.3   377  ATP377     -0.3112
     14  C5'       -7.4290   -8.3260   18.9240 C.3   377  ATP377      0.1813
     15  C4'       -6.4210   -8.9780   17.9840 C.3   377  ATP377      0.1821
     16  O4'       -5.6300   -9.9380   18.6910 O.3   377  ATP377     -0.3135
     17  C3'       -7.0950   -9.7210   16.8350 C.3   377  ATP377      0.2184
     18  O3'       -6.8030   -9.0870   15.5860 O.3   377  ATP377     -0.2174
     19  C2'       -6.5420  -11.1350   16.8760 C.3   377  ATP377      0.2570
     20  O2'       -6.0860  -11.5830   15.5940 O.3   377  ATP377     -0.2130
     21  C1'       -5.3850  -11.0720   17.8580 C.3   377  ATP377      0.3186
     22  N9        -5.2700  -12.3420   18.6220 N.pl3 377  ATP377     -0.1439
     23  C8        -6.1110  -12.8420   19.5500 C.3   377  ATP377      0.3377
     24  N7        -5.6580  -14.0390   20.0190 N.2   377  ATP377     -0.2095
     25  C5        -4.5070  -14.3090   19.3830 C.2   377  ATP377      0.2526
     26  C6        -3.5020  -15.3950   19.3840 C.2   377  ATP377      0.4393
     27  N6        -3.6200  -16.4730   20.1880 N.pl3 377  ATP377      0.2180
     28  N1        -2.4460  -15.2750   18.5530 N.2   377  ATP377      0.0021
     29  C2        -2.2930  -14.2120   17.7400 C.3   377  ATP377      0.5254
     30  N3        -3.1620  -13.1910   17.6870 N.2   377  ATP377     -0.0055
     31  C4        -4.2640  -13.1880   18.4670 C.2   377  ATP377      0.3518
@<TRIPOS>BOND
     1    18    17    1
     2    20    19    1
     3    17    19    1
     4    17    15    1
     5    19    21    1
     6    30    29    1
     7    30    31    2
     8    29    28    1
     9    21    22    1
    10    21    16    1
    11     3     1    2
    12    15    16    1
    13    15    14    1
    14    31    22    1
    15    31    25    1
    16    28    26    2
    17    22    23    1
    18     8     1    1
    19     8     5    1
    20    14    13    1
    21     1     2    1
    22     1     4    1
    23     6     5    2
    24    25    26    1
    25    25    24    2
    26    26    27    1
    27    23    24    1
    28    12     5    1
    29    12     9    1
    30     5     7    1
    31    13     9    1
    32     9    10    2
    33     9    11    1
