@<TRIPOS>MOLECULE
3cjc_ATP_A_1.pdb
 31 33 0 0 0
SMALL
GASTEIGER

@<TRIPOS>ATOM
      1  PG        -6.5570   36.6520   -3.4420 P.3   403  ATP403      0.5373
      2  O1G       -6.2440   36.2060   -2.0380 O.3   403  ATP403     -0.1143
      3  O2G       -5.9840   37.9960   -3.8150 O.3   403  ATP403     -0.1143
      4  O3G       -8.0050   36.4890   -3.8310 O.2   403  ATP403     -0.2221
      5  PB        -4.4320   35.9040   -5.4950 P.3   403  ATP403      0.2277
      6  O1B       -3.7390   37.1370   -4.9690 O.3   403  ATP403     -0.4368
      7  O2B       -3.5930   34.6770   -5.7480 O.2   403  ATP403     -0.5168
      8  O3B       -5.7240   35.4650   -4.4100 O.3   403  ATP403     -0.2258
      9  PA        -4.3600   36.9340   -8.1240 P.3   403  ATP403      0.2189
     10  O1A       -4.5920   38.4240   -8.0690 O.3   403  ATP403     -0.4371
     11  O2A       -2.9480   36.4020   -8.1560 O.2   403  ATP403     -0.5170
     12  O3A       -5.1460   36.2570   -6.8930 O.3   403  ATP403     -0.2700
     13  O5'       -5.1600   36.3670   -9.4000 O.3   403  ATP403     -0.3112
     14  C5'       -5.3030   34.9710   -9.6540 C.3   403  ATP403      0.1813
     15  C4'       -6.7320   34.6830  -10.1020 C.3   403  ATP403      0.1821
     16  O4'       -7.1680   35.6940  -11.0150 O.3   403  ATP403     -0.3135
     17  C3'       -6.8600   33.3410  -10.8110 C.3   403  ATP403      0.2184
     18  O3'       -7.8200   32.5160  -10.1490 O.3   403  ATP403     -0.2174
     19  C2'       -7.2980   33.6500  -12.2310 C.3   403  ATP403      0.2570
     20  O2'       -8.4350   32.8840  -12.6480 O.3   403  ATP403     -0.2130
     21  C1'       -7.6290   35.1320  -12.2450 C.3   403  ATP403      0.3186
     22  N9        -6.9600   35.7600  -13.4070 N.pl3 403  ATP403     -0.1439
     23  C8        -5.6300   35.9270  -13.5690 C.3   403  ATP403      0.3377
     24  N7        -5.3620   36.5280  -14.7560 N.2   403  ATP403     -0.2095
     25  C5        -6.5390   36.7480  -15.3710 C.2   403  ATP403      0.2526
     26  C6        -6.9840   37.3460  -16.6540 C.2   403  ATP403      0.4393
     27  N6        -6.0890   37.8450  -17.5410 N.pl3 403  ATP403      0.2180
     28  N1        -8.3130   37.3810  -16.9100 N.2   403  ATP403      0.0021
     29  C2        -9.2220   36.8920  -16.0420 C.3   403  ATP403      0.5254
     30  N3        -8.8890   36.3350  -14.8590 N.2   403  ATP403     -0.0055
     31  C4        -7.5900   36.2380  -14.4760 C.2   403  ATP403      0.3518
@<TRIPOS>BOND
     1    27    26    1
     2    28    26    2
     3    28    29    1
     4    26    25    1
     5    29    30    1
     6    25    24    2
     7    25    31    1
     8    30    31    2
     9    24    23    1
    10    31    22    1
    11    23    22    1
    12    22    21    1
    13    20    19    1
    14    21    19    1
    15    21    16    1
    16    19    17    1
    17    16    15    1
    18    17    18    1
    19    17    15    1
    20    15    14    1
    21    14    13    1
    22    13     9    1
    23    11     9    2
    24     9    10    1
    25     9    12    1
    26    12     5    1
    27     7     5    2
    28     5     6    1
    29     5     8    1
    30     8     1    1
    31     4     1    2
    32     3     1    1
    33     1     2    1
