@<TRIPOS>MOLECULE
3cjf_SAV_A_1.pdb
 30 33 0 0 0
SMALL
GASTEIGER

@<TRIPOS>ATOM
      1  N1        15.3790   18.8480   17.9850 N.pl3 1167  SAV1167    -0.1355
      2  N3        17.9870   15.1760   16.3690 N.pl3 1167  SAV1167    -0.1867
      3  C4        16.3980   19.3970   18.7970 C.ar  1167  SAV1167     0.0888
      4  C5        15.5220   17.6990   17.1860 C.1   1167  SAV1167     0.1709
      5  C6        14.5950   16.2570   15.7250 C.2   1167  SAV1167     0.1158
      6  C7        15.7470   15.5170   15.6700 C.2   1167  SAV1167     0.0720
      7  C8        16.8080   15.9380   16.4310 C.2   1167  SAV1167     0.2175
      8  C10       19.7310   16.5750   17.3190 C.3   1167  SAV1167     0.0693
      9  C13       22.2400   15.5990   19.9220 C.2   1167  SAV1167     0.0821
     10  C15       20.5610   14.5650   18.8780 C.2   1167  SAV1167     0.1047
     11  C17       16.4030   20.7610   19.0040 C.ar  1167  SAV1167     0.0576
     12  C20       18.3630   20.6010   20.3790 C.ar  1167  SAV1167     0.2061
     13  C21       18.7170   21.7510   22.2890 C.3   1167  SAV1167     0.2528
     14  C1        18.6690   17.6660   21.7500 C.3   1167  SAV1167     0.2526
     15  O1        19.3400   18.4480   20.7550 O.3   1167  SAV1167    -0.4682
     16  C2        18.3530   19.2350   20.1760 C.ar  1167  SAV1167     0.1768
     17  C3        17.3840   18.6370   19.3980 C.ar  1167  SAV1167     0.0576
     18  N2        14.4490   17.3490   16.4680 N.2   1167  SAV1167    -0.1683
     19  C9        19.0810   15.3590   17.2550 C.2   1167  SAV1167     0.0567
     20  C11       20.7980   16.8180   18.1540 C.2   1167  SAV1167    -0.0172
     21  C12       21.2180   15.7770   18.9510 C.2   1167  SAV1167     0.0308
     22  C14       23.2350   16.5840   20.3940 C.3   1167  SAV1167     0.0540
     23  N4        22.2240   14.3570   20.4270 N.2   1167  SAV1167    -0.1523
     24  N5        21.2020   13.7550   19.7780 N.2   1167  SAV1167    -0.1482
     25  C16       19.4950   14.3120   18.0490 C.2   1167  SAV1167     0.0335
     26  N6        16.6880   17.0350   17.1810 N.2   1167  SAV1167    -0.3189
     27  C18       17.3710   21.3620   19.7860 C.ar  1167  SAV1167     0.1768
     28  O2        17.3500   22.7350   19.9620 O.3   1167  SAV1167    -0.4682
     29  C19       16.0040   23.1410   20.1480 C.3   1167  SAV1167     0.2526
     30  O3        19.3740   21.1590   21.1630 O.3   1167  SAV1167    -0.4654
@<TRIPOS>BOND
     1     6     5    2
     2     6     7    1
     3     5    18    1
     4     2     7    1
     5     2    19    1
     6     7    26    2
     7    18     4    2
     8    26     4    2
     9     4     1    1
    10    19     8    1
    11    19    25    2
    12     8    20    1
    13     1     3    1
    14    25    10    1
    15    20    21    2
    16     3    11   ar
    17     3    17   ar
    18    10    21    1
    19    10    24    2
    20    21     9    1
    21    11    27   ar
    22    17    16   ar
    23    24    23    1
    24    27    28    1
    25    27    12   ar
    26     9    22    1
    27     9    23    2
    28    28    29    1
    29    16    12   ar
    30    16    15    1
    31    12    30    1
    32    15    14    1
    33    30    13    1
