@<TRIPOS>MOLECULE
3cjg_KIM_A_1.pdb
 31 34 0 0 0
SMALL
GASTEIGER

@<TRIPOS>ATOM
      1  N1         6.0200   41.7280    5.0700 N.pl3 1167  KIM1167    -0.1355
      2  N3         7.1920   40.7770    6.9400 N.2   1167  KIM1167    -0.3204
      3  C4         7.0160   42.6060    4.5910 C.ar  1167  KIM1167     0.0888
      4  C5         6.0660   40.9220    6.2230 C.1   1167  KIM1167     0.1709
      5  C6         4.9090   39.5540    7.5850 C.2   1167  KIM1167     0.1158
      6  C7         6.0050   39.3540    8.3730 C.2   1167  KIM1167     0.0705
      7  C8         7.1710   39.9990    8.0230 C.2   1167  KIM1167     0.2013
      8  C10        8.5420   38.8350    9.7940 C.2   1167  KIM1167     0.0369
      9  C13        8.9390   36.8970   11.7100 C.2   1167  KIM1167     0.0308
     10  C15        9.1260   34.8060   13.2690 C.3   1167  KIM1167     0.0540
     11  C17        9.1680   39.2020   10.9720 C.2   1167  KIM1167     0.0317
     12  C20        6.6560   43.9040    0.7890 C.3   1167  KIM1167     0.2526
     13  C21        8.9050   44.3410    3.5490 C.ar  1167  KIM1167     0.2061
     14  C22       10.9060   44.3900    2.5140 C.3   1167  KIM1167     0.2528
     15  C1         9.6190   44.7170    6.8690 C.3   1167  KIM1167     0.2526
     16  O1        10.1100   44.2850    5.6000 O.3   1167  KIM1167    -0.4682
     17  C2         9.0280   43.8810    4.8390 C.ar  1167  KIM1167     0.1768
     18  C3         8.0900   43.0150    5.3570 C.ar  1167  KIM1167     0.0576
     19  N2         4.9060   40.3280    6.5070 N.2   1167  KIM1167    -0.1683
     20  N4         8.3270   39.8160    8.8150 N.pl3 1167  KIM1167    -0.2635
     21  C9         9.4720   40.6740    8.5500 C.3   1167  KIM1167     0.1194
     22  C11        8.1300   37.5310    9.5890 C.3   1167  KIM1167     0.0675
     23  C12        8.3160   36.5390   10.5290 C.2   1167  KIM1167    -0.0173
     24  C14        9.3180   36.2230   12.9050 C.2   1167  KIM1167     0.0821
     25  N5         9.9200   37.0510   13.7630 N.2   1167  KIM1167    -0.1523
     26  N6         9.9280   38.2370   13.1340 N.2   1167  KIM1167    -0.1482
     27  C16        9.3490   38.2030   11.8960 C.2   1167  KIM1167     0.1046
     28  C18        6.8950   43.0730    3.2980 C.ar  1167  KIM1167     0.0576
     29  C19        7.8370   43.9360    2.7820 C.ar  1167  KIM1167     0.1768
     30  O2         7.7710   44.4330    1.4910 O.3   1167  KIM1167    -0.4682
     31  O3         9.8580   45.2110    3.0320 O.3   1167  KIM1167    -0.4654
@<TRIPOS>BOND
     1    12    30    1
     2    30    29    1
     3    14    31    1
     4    29    28   ar
     5    29    13   ar
     6    31    13    1
     7    28     3   ar
     8    13    17   ar
     9     3     1    1
    10     3    18   ar
    11    17    18   ar
    12    17    16    1
    13     1     4    1
    14    16    15    1
    15     4    19    2
    16     4     2    2
    17    19     5    1
    18     2     7    2
    19     5     6    2
    20     7     6    1
    21     7    20    1
    22    21    20    1
    23    20     8    1
    24    22     8    1
    25    22    23    1
    26     8    11    2
    27    23     9    2
    28    11    27    1
    29     9    27    1
    30     9    24    1
    31    27    26    2
    32    24    10    1
    33    24    25    2
    34    26    25    1
