@<TRIPOS>MOLECULE
3cjo_K30_A_1.pdb
 33 36 0 0 0
SMALL
GASTEIGER

@<TRIPOS>ATOM
      1  C28       12.6510   21.8440  109.7570 C.3     1  K301        0.0897
      2  C22       17.9100   18.4110  110.2190 C.3     1  K301        0.1165
      3  C18       18.1600   13.0720  113.8660 C.ar    1  K301       -0.0000
      4  C17       18.7830   14.1930  113.3090 C.ar    1  K301       -0.0003
      5  C19       17.3260   12.3420  113.0510 C.ar    1  K301       -0.0003
      6  C16       18.5390   14.4640  111.9160 C.ar    1  K301       -0.0027
      7  C20       17.0570   12.6660  111.6550 C.ar    1  K301       -0.0027
      8  C7        22.5730   15.3840  105.3700 C.ar    1  K301        0.0319
      9  C6        22.5850   14.2540  106.1840 C.ar    1  K301        0.0316
     10  C9        20.5240   16.1590  106.4350 C.ar    1  K301        0.0276
     11  C27       15.2570   19.3220  111.2690 C.3     1  K301        0.0400
     12  C26       13.9770   20.1730  111.1400 C.3     1  K301        0.0740
     13  C2        18.9250   13.8490  108.9320 C.3     1  K301        0.0313
     14  C24       13.9780   20.0640  108.6330 C.3     1  K301        0.1095
     15  C         18.4480   15.9770  108.1590 C.3     1  K301        0.0996
     16  C14       16.1590   13.8360  108.8560 C.3     1  K301        0.2043
     17  C15       17.6920   13.7260  111.0500 C.ar    1  K301       -0.0036
     18  C8        21.5310   16.3250  105.5060 C.ar    1  K301        0.1400
     19  C5        21.5310   14.0200  107.0960 C.ar    1  K301        0.1363
     20  C4        20.4900   14.9560  107.2490 C.ar    1  K301        0.0089
     21  C12       15.4460   18.5370  109.9370 C.3     1  K301        0.1121
     22  C3        19.3600   14.8260  108.1140 C.3     1  K301        0.0465
     23  C23       15.3770   19.4550  108.7070 C.3     1  K301        0.1948
     24  C10       16.6340   16.4090  110.0230 C.2     1  K301        0.3075
     25  C1        17.5120   14.1540  109.4980 C.3     1  K301        0.1116
     26  N25       13.9120   20.9790  109.8360 N.3     1  K301       -0.2691
     27  N         17.5520   15.6400  109.2820 N.am    1  K301       -0.2609
     28  N11       16.6500   17.7640  109.9710 N.am    1  K301       -0.2611
     29  O21       15.9930   12.4730  108.6590 O.3     1  K301       -0.2183
     30  O         15.6870   15.8390  110.6690 O.2     1  K301       -0.2523
     31  F13       21.5750   17.4130  104.7590 F       1  K301       -0.2042
     32  F         21.6310   12.8900  107.7890 F       1  K301       -0.2045
     33  F29       16.2400   20.4850  108.9080 F       1  K301       -0.2340
@<TRIPOS>BOND
     1    31    18    1
     2     8    18   ar
     3     8     9   ar
     4    18    10   ar
     5     9    19   ar
     6    10    20   ar
     7    19    20   ar
     8    19    32    1
     9    20    22    1
    10    22    15    1
    11    22    13    1
    12    15    27    1
    13    14    23    1
    14    14    26    1
    15    29    16    1
    16    23    33    1
    17    23    21    1
    18    16    25    1
    19    13    25    1
    20    27    25    1
    21    27    24   am
    22    25    17    1
    23     1    26    1
    24    26    12    1
    25    21    28    1
    26    21    11    1
    27    28    24   am
    28    28     2    1
    29    24    30    2
    30    17     7   ar
    31    17     6   ar
    32    12    11    1
    33     7     5   ar
    34     6     4   ar
    35     5     3   ar
    36     4     3   ar
