@<TRIPOS>MOLECULE
3cjo_ADP_A_1.pdb
 27 29 0 0 0
SMALL
GASTEIGER

@<TRIPOS>ATOM
      1  PB        14.8980    6.4550   98.8080 P.3   601  ADP601      0.5373
      2  O1B       14.0920    6.8970   97.5750 O.2   601  ADP601     -0.2221
      3  O2B       15.4420    5.1150   98.3530 O.3   601  ADP601     -0.1143
      4  O3B       15.9020    7.4490   99.3860 O.3   601  ADP601     -0.1143
      5  PA        13.3670    6.8160  101.2390 P.3   601  ADP601      0.2231
      6  O1A       14.2590    6.6140  102.5620 O.3   601  ADP601     -0.4370
      7  O2A       13.0830    8.2690  100.8800 O.2   601  ADP601     -0.5169
      8  O3A       14.0380    6.0760  100.0530 O.3   601  ADP601     -0.2261
      9  O5'       12.0050    5.9890  101.5670 O.3   601  ADP601     -0.3111
     10  C5'       10.8170    6.1670  100.8380 C.3   601  ADP601      0.1813
     11  C4'        9.8600    5.8500  101.9790 C.3   601  ADP601      0.1821
     12  O4'       10.0730    4.4950  102.5160 O.3   601  ADP601     -0.3135
     13  C3'        9.8160    6.8710  103.1460 C.3   601  ADP601      0.2184
     14  O3'        8.4520    6.9990  103.4680 O.3   601  ADP601     -0.2174
     15  C2'       10.4940    6.1500  104.3470 C.3   601  ADP601      0.2570
     16  O2'        9.6520    6.4730  105.4020 O.3   601  ADP601     -0.2130
     17  C1'       10.2340    4.6420  104.0200 C.3   601  ADP601      0.3186
     18  N9        11.1710    3.6290  104.4580 N.pl3 601  ADP601     -0.1439
     19  C8        12.2410    3.1730  103.7460 C.3   601  ADP601      0.3377
     20  N7        12.9290    2.2360  104.3100 N.2   601  ADP601     -0.2095
     21  C5        12.2300    2.1000  105.4890 C.2   601  ADP601      0.2526
     22  C6        12.4540    1.2330  106.5680 C.2   601  ADP601      0.4393
     23  N6        13.5100    0.3510  106.5120 N.pl3 601  ADP601      0.2180
     24  N1        11.5570    1.3080  107.6400 N.2   601  ADP601      0.0021
     25  C2        10.4650    2.1760  107.6560 C.3   601  ADP601      0.5254
     26  N3        10.1970    3.0590  106.6780 N.2   601  ADP601     -0.0055
     27  C4        11.1120    2.9340  105.6260 C.2   601  ADP601      0.3518
@<TRIPOS>BOND
     1     2     1    2
     2     3     1    1
     3     1     4    1
     4     1     8    1
     5     8     5    1
     6    10     9    1
     7    10    11    1
     8     7     5    2
     9     5     9    1
    10     5     6    1
    11    11    12    1
    12    11    13    1
    13    12    17    1
    14    13    14    1
    15    13    15    1
    16    19    20    1
    17    19    18    1
    18    17    15    1
    19    17    18    1
    20    20    21    2
    21    15    16    1
    22    18    27    1
    23    21    27    1
    24    21    22    1
    25    27    26    2
    26    23    22    1
    27    22    24    2
    28    26    25    1
    29    24    25    1
