@<TRIPOS>MOLECULE
3cjq_SAH_A_1.pdb
 26 28 0 0 0
SMALL
GASTEIGER

@<TRIPOS>ATOM
      1  N         18.3960   21.8690  -51.9270 N.3   303  SAH303     -0.1208
      2  CA        18.0920   22.9370  -52.9300 C.3   303  SAH303      0.1952
      3  CB        17.6310   24.1960  -52.2350 C.3   303  SAH303      0.0422
      4  CG        18.6670   25.0420  -51.4570 C.3   303  SAH303      0.0597
      5  SD        17.8490   26.6550  -51.0700 S.3   303  SAH303     -0.1375
      6  C         19.2820   23.1890  -53.8930 C.2   303  SAH303      0.3819
      7  O         20.3420   22.5890  -53.7170 O.co2 303  SAH303     -0.2441
      8  OXT       19.2460   23.9080  -54.9170 O.co2 303  SAH303     -0.2441
      9  C5'       18.1230   26.3330  -49.2930 C.3   303  SAH303      0.0899
     10  C4'       16.7800   25.8370  -48.6870 C.3   303  SAH303      0.1630
     11  O4'       16.9130   25.5710  -47.3210 O.3   303  SAH303     -0.3153
     12  C3'       15.5620   26.7070  -48.7670 C.3   303  SAH303      0.2168
     13  O3'       14.4770   26.0760  -49.4700 O.3   303  SAH303     -0.2175
     14  C2'       15.1880   26.9880  -47.3360 C.3   303  SAH303      0.2569
     15  O2'       13.8070   26.9000  -47.1570 O.3   303  SAH303     -0.2130
     16  C1'       15.7250   25.7970  -46.6440 C.3   303  SAH303      0.3185
     17  N9        16.1810   26.0770  -45.3160 N.pl3 303  SAH303     -0.1439
     18  C8        16.7080   27.2270  -44.8410 C.3   303  SAH303      0.3377
     19  N7        17.0410   27.0180  -43.5340 N.2   303  SAH303     -0.2095
     20  C5        16.7740   25.7390  -43.2220 C.2   303  SAH303      0.2526
     21  C6        16.9200   25.0050  -42.0510 C.2   303  SAH303      0.4393
     22  N6        17.4170   25.5890  -40.9650 N.pl3 303  SAH303      0.2180
     23  N1        16.5350   23.6750  -42.0240 N.2   303  SAH303      0.0021
     24  C2        16.0230   23.1380  -43.1750 C.3   303  SAH303      0.5254
     25  N3        15.8310   23.8820  -44.3110 N.2   303  SAH303     -0.0055
     26  C4        16.2450   25.1430  -44.3460 C.2   303  SAH303      0.3518
@<TRIPOS>BOND
     1     8     6   ar
     2     6     7   ar
     3     6     2    1
     4     2     3    1
     5     2     1    1
     6     3     4    1
     7     4     5    1
     8     5     9    1
     9    13    12    1
    10     9    10    1
    11    12    10    1
    12    12    14    1
    13    10    11    1
    14    14    15    1
    15    14    16    1
    16    11    16    1
    17    16    17    1
    18    17    18    1
    19    17    26    1
    20    18    19    1
    21    26    25    2
    22    26    20    1
    23    25    24    1
    24    19    20    2
    25    20    21    1
    26    24    23    1
    27    21    23    2
    28    21    22    1
