@<TRIPOS>MOLECULE
3cjq_2MM_B_1.pdb
 10 9 0 0 0
SMALL
GASTEIGER

@<TRIPOS>ATOM
      1  CE        24.1360   34.4830  -47.6530 C.3     1  2MM1        0.0692
      2  SD        24.5780   33.2380  -48.8340 S.3     1  2MM1       -0.1393
      3  CG        22.9800   32.6220  -49.3620 C.3     1  2MM1        0.0594
      4  CB        23.0990   31.1250  -49.7060 C.3     1  2MM1        0.0356
      5  CA        21.8330   30.3820  -50.0930 C.3     1  2MM1        0.1240
      6  C         21.0870   31.3060  -50.9980 C.2     1  2MM1        0.2230
      7  O         21.4680   31.4740  -52.1640 O.2     1  2MM1       -0.2868
      8  N         22.1090   29.0110  -50.6860 N.3     1  2MM1       -0.2651
      9  CN2       22.6320   28.9640  -52.0610 C.3     1  2MM1        0.0900
     10  CN1       20.8900   28.1850  -50.7210 C.3     1  2MM1        0.0900
@<TRIPOS>BOND
     1     7     6    2
     2     9     8    1
     3     6     5    1
     4    10     8    1
     5     8     5    1
     6     5     4    1
     7     4     3    1
     8     3     2    1
     9     2     1    1
