@<TRIPOS>MOLECULE
3cjr_SFG_A_1.pdb
 27 29 0 0 0
SMALL
GASTEIGER

@<TRIPOS>ATOM
      1  N         46.8470  -37.8410    3.8660 N.3   255  SFG255     -0.1208
      2  CA        45.7890  -38.8360    4.2180 C.3   255  SFG255      0.1944
      3  C         45.5180  -39.8010    3.0940 C.2   255  SFG255      0.3819
      4  O         46.0420  -39.6630    1.9900 O.co2 255  SFG255     -0.2441
      5  OXT       44.7720  -40.7690    3.2490 O.co2 255  SFG255     -0.2441
      6  CB        44.5070  -38.1410    4.7010 C.3   255  SFG255      0.0321
      7  CG        43.9410  -37.0910    3.7470 C.3   255  SFG255      0.0212
      8  CD        42.6400  -36.5110    4.3100 C.3   255  SFG255      0.0944
      9  NE        41.5290  -36.9740    3.5010 N.3   255  SFG255     -0.1328
     10  C5'       42.6390  -34.9870    4.2650 C.3   255  SFG255      0.0514
     11  C4'       43.2510  -34.3430    5.5060 C.3   255  SFG255      0.1537
     12  O4'       43.7330  -33.0520    5.1420 O.3   255  SFG255     -0.3161
     13  C3'       42.2780  -34.1250    6.6560 C.3   255  SFG255      0.2159
     14  O3'       42.8270  -34.7530    7.8170 O.3   255  SFG255     -0.2175
     15  C2'       42.2130  -32.6180    6.8640 C.3   255  SFG255      0.2569
     16  O2'       42.2450  -32.2810    8.2530 O.3   255  SFG255     -0.2130
     17  C1'       43.4660  -32.1070    6.1770 C.3   255  SFG255      0.3185
     18  N9        43.3420  -30.7800    5.5260 N.pl3 255  SFG255     -0.1439
     19  C8        42.2580  -30.2810    4.9000 C.3   255  SFG255      0.3377
     20  N7        42.5120  -29.0460    4.3990 N.2   255  SFG255     -0.2095
     21  C5        43.7900  -28.7410    4.6970 C.2   255  SFG255      0.2526
     22  C6        44.6990  -27.5950    4.4620 C.2   255  SFG255      0.4393
     23  N6        44.2800  -26.4950    3.7910 N.pl3 255  SFG255      0.2180
     24  N1        45.9670  -27.6880    4.9370 N.2   255  SFG255      0.0021
     25  C2        46.4050  -28.7770    5.6090 C.3   255  SFG255      0.5254
     26  N3        45.6290  -29.8480    5.8590 N.2   255  SFG255     -0.0055
     27  C4        44.3370  -29.8920    5.4340 C.2   255  SFG255      0.3518
@<TRIPOS>BOND
     1     4     3   ar
     2     3     5   ar
     3     3     2    1
     4     9     8    1
     5     7     8    1
     6     7     6    1
     7    23    22    1
     8     1     2    1
     9     2     6    1
    10    10     8    1
    11    10    11    1
    12    20    21    2
    13    20    19    1
    14    22    21    1
    15    22    24    2
    16    21    27    1
    17    19    18    1
    18    24    25    1
    19    12    11    1
    20    12    17    1
    21    27    18    1
    22    27    26    2
    23    11    13    1
    24    18    17    1
    25    25    26    1
    26    17    15    1
    27    13    15    1
    28    13    14    1
    29    15    16    1
