@<TRIPOS>MOLECULE
3cjt_SAM_C_1.pdb
 27 29 0 0 0
SMALL
GASTEIGER

@<TRIPOS>ATOM
      1  N          9.8170   12.8500   64.1400 N.3   302  SAM302     -0.1208
      2  CA        11.0650   13.2090   64.8600 C.3   302  SAM302      0.1952
      3  C         10.8480   13.1500   66.3920 C.2   302  SAM302      0.3819
      4  O          9.8260   13.5430   66.9600 O.co2 302  SAM302     -0.2441
      5  OXT       11.7050   12.7170   67.1570 O.co2 302  SAM302     -0.2441
      6  CB        11.6310   14.5900   64.4390 C.3   302  SAM302      0.0414
      7  CG        11.8980   14.9600   62.9760 C.3   302  SAM302      0.0503
      8  SD        13.5340   15.7380   62.7220 S.3   302  SAM302     -0.1761
      9  CE        13.6430   17.0730   63.9510 C.3   302  SAM302      0.0590
     10  C5'       13.5800   16.8120   61.2670 C.3   302  SAM302      0.0806
     11  C4'       13.4850   16.1050   59.9180 C.3   302  SAM302      0.1622
     12  O4'       12.6180   16.9250   59.1800 O.3   302  SAM302     -0.3153
     13  C3'       14.7540   16.0400   59.0790 C.3   302  SAM302      0.2168
     14  O3'       15.0140   14.6970   58.6730 O.3   302  SAM302     -0.2175
     15  C2'       14.4320   16.8680   57.8360 C.3   302  SAM302      0.2569
     16  O2'       14.9260   16.2790   56.6560 O.3   302  SAM302     -0.2130
     17  C1'       12.9230   16.8820   57.8320 C.3   302  SAM302      0.3185
     18  N9        12.3440   18.0820   57.2190 N.pl3 302  SAM302     -0.1439
     19  C8        12.8330   19.3690   57.2760 C.3   302  SAM302      0.3377
     20  N7        12.0160   20.1460   56.5650 N.2   302  SAM302     -0.2095
     21  C5        11.0220   19.4040   56.0540 C.2   302  SAM302      0.2526
     22  C6         9.9240   19.7260   55.2560 C.2   302  SAM302      0.4393
     23  N6         9.7270   20.9820   54.8530 N.pl3 302  SAM302      0.2180
     24  N1         9.0450   18.7090   54.8890 N.2   302  SAM302      0.0021
     25  C2         9.2550   17.3920   55.2940 C.3   302  SAM302      0.5254
     26  N3        10.3530   17.0920   56.0830 N.2   302  SAM302     -0.0055
     27  C4        11.2090   18.0870   56.4550 C.2   302  SAM302      0.3518
@<TRIPOS>BOND
     1    23    22    1
     2    24    22    2
     3    24    25    1
     4    22    21    1
     5    25    26    1
     6    21    27    1
     7    21    20    2
     8    26    27    2
     9    27    18    1
    10    20    19    1
    11    16    15    1
    12    18    19    1
    13    18    17    1
    14    17    15    1
    15    17    12    1
    16    15    13    1
    17    14    13    1
    18    13    11    1
    19    12    11    1
    20    11    10    1
    21    10     8    1
    22     8     7    1
    23     8     9    1
    24     7     6    1
    25     1     2    1
    26     6     2    1
    27     2     3    1
    28     3     4   ar
    29     3     5   ar
