@<TRIPOS>MOLECULE
3cjt_2MM_B_1.pdb
 10 9 0 0 0
SMALL
GASTEIGER

@<TRIPOS>ATOM
      1  CE       -23.1660    2.4280   32.7000 C.3   149  2MM149      0.0692
      2  SD       -22.3240    1.1650   33.5710 S.3   149  2MM149     -0.1393
      3  CG       -20.5920    1.3760   33.2540 C.3   149  2MM149      0.0594
      4  CB       -19.7720    0.5170   34.2020 C.3   149  2MM149      0.0356
      5  CA       -18.4240   -0.0140   33.6850 C.3   149  2MM149      0.1240
      6  C        -18.1610    0.2560   32.2040 C.2   149  2MM149      0.2230
      7  O        -17.9100    1.4020   31.7370 O.2   149  2MM149     -0.2868
      8  N        -17.2870    0.2490   34.6320 N.3   149  2MM149     -0.2651
      9  CN2      -16.7100    1.6040   34.5560 C.3   149  2MM149      0.0900
     10  CN1      -16.2820   -0.7760   34.3480 C.3   149  2MM149      0.0900
@<TRIPOS>BOND
     1     7     6    2
     2     6     5    1
     3     1     2    1
     4     3     2    1
     5     3     4    1
     6     5     4    1
     7     5     8    1
     8    10     8    1
     9     9     8    1
