@<TRIPOS>MOLECULE
3cjt_SAH_A_1.pdb
 26 28 0 0 0
SMALL
GASTEIGER

@<TRIPOS>ATOM
      1  N        -10.4040   -2.7570   37.1320 N.3   258  SAH258     -0.1208
      2  CA       -10.2490   -2.1620   35.7440 C.3   258  SAH258      0.1952
      3  CB       -11.2050   -2.7510   34.6860 C.3   258  SAH258      0.0422
      4  CG       -12.7020   -2.5510   35.0020 C.3   258  SAH258      0.0597
      5  SD       -13.8150   -2.8400   33.6030 S.3   258  SAH258     -0.1375
      6  C        -10.4010   -0.6570   35.8650 C.2   258  SAH258      0.3819
      7  O        -10.5890   -0.1540   36.9650 O.co2 258  SAH258     -0.2441
      8  OXT      -10.3070    0.0850   34.8930 O.co2 258  SAH258     -0.2441
      9  C5'      -14.7420   -4.1260   34.4690 C.3   258  SAH258      0.0899
     10  C4'      -14.0980   -5.4930   34.3870 C.3   258  SAH258      0.1630
     11  O4'      -14.8720   -6.3360   35.2220 O.3   258  SAH258     -0.3153
     12  C3'      -14.1290   -6.1140   32.9960 C.3   258  SAH258      0.2168
     13  O3'      -12.8380   -6.6010   32.6050 O.3   258  SAH258     -0.2175
     14  C2'      -15.1190   -7.2760   33.1410 C.3   258  SAH258      0.2569
     15  O2'      -14.7630   -8.3750   32.3390 O.3   258  SAH258     -0.2130
     16  C1'      -15.0530   -7.5970   34.6150 C.3   258  SAH258      0.3185
     17  N9       -16.2890   -8.1650   35.1560 N.pl3 258  SAH258     -0.1439
     18  C8       -17.5760   -7.8410   34.7910 C.3   258  SAH258      0.3377
     19  N7       -18.4360   -8.5570   35.5120 N.2   258  SAH258     -0.2095
     20  C5       -17.7330   -9.3370   36.3650 C.2   258  SAH258      0.2526
     21  C6       -18.0960  -10.2700   37.3490 C.2   258  SAH258      0.4393
     22  N6       -19.3630  -10.5900   37.6340 N.pl3 258  SAH258      0.2180
     23  N1       -17.0760  -10.8880   38.0670 N.2   258  SAH258      0.0021
     24  C2       -15.7430  -10.6250   37.8300 C.3   258  SAH258      0.5254
     25  N3       -15.4100   -9.7240   36.8610 N.2   258  SAH258     -0.0055
     26  C4       -16.3720   -9.0920   36.1470 C.2   258  SAH258      0.3518
@<TRIPOS>BOND
     1    15    14    1
     2    13    12    1
     3    12    14    1
     4    12    10    1
     5    14    16    1
     6     5     9    1
     7     5     4    1
     8    10     9    1
     9    10    11    1
    10    16    17    1
    11    16    11    1
    12     3     4    1
    13     3     2    1
    14    18    17    1
    15    18    19    1
    16     8     6   ar
    17    17    26    1
    18    19    20    2
    19     2     6    1
    20     2     1    1
    21     6     7   ar
    22    26    20    1
    23    26    25    2
    24    20    21    1
    25    25    24    1
    26    21    22    1
    27    21    23    2
    28    24    23    1
