@<TRIPOS>MOLECULE
3ck9_GLC_A_1.pdb
 11 11 0 0 0
SMALL
GASTEIGER

@<TRIPOS>ATOM
      1  C1        19.6710  -23.1270   -8.5860 C.3   805  GLC805      0.1777
      2  C2        20.6420  -23.2840   -9.7880 C.3   805  GLC805      0.2141
      3  C3        22.0640  -23.4450   -9.2370 C.3   805  GLC805      0.2173
      4  C4        22.4110  -22.2040   -8.3950 C.3   805  GLC805      0.2142
      5  C5        21.3540  -22.0700   -7.2450 C.3   805  GLC805      0.1810
      6  C6        21.6380  -20.8280   -6.3770 C.3   805  GLC805      0.2141
      7  O2        20.3080  -24.4410  -10.5590 O.3   805  GLC805     -0.2176
      8  O3        23.0010  -23.5920  -10.3060 O.3   805  GLC805     -0.2175
      9  O4        23.7290  -22.3940   -7.8650 O.3   805  GLC805     -0.2176
     10  O5        20.0110  -21.9430   -7.7970 O.3   805  GLC805     -0.3481
     11  O6        21.7830  -19.6570   -7.1900 O.3   805  GLC805     -0.2176
@<TRIPOS>BOND
     1     7     2    1
     2     8     3    1
     3     2     3    1
     4     2     1    1
     5     3     4    1
     6     1    10    1
     7     4     9    1
     8     4     5    1
     9    10     5    1
    10     5     6    1
    11    11     6    1
