@<TRIPOS>MOLECULE
3ckb_MLR_A_1.pdb
 34 36 0 0 0
SMALL
GASTEIGER

@<TRIPOS>ATOM
      1  C1A       14.0510  -20.4220   -3.0880 C.3   903  MLR903      0.3023
      2  C2A       13.6190  -20.1010   -4.5380 C.3   903  MLR903      0.2433
      3  C3A       14.9150  -19.8690   -5.3310 C.3   903  MLR903      0.2168
      4  C4A       15.6680  -18.6750   -4.7060 C.3   903  MLR903      0.1804
      5  C5A       15.9730  -19.0330   -3.2200 C.3   903  MLR903      0.1804
      6  C6A       16.6810  -17.8440   -2.5610 C.3   903  MLR903      0.2141
      7  O1X       12.9260  -20.7760   -2.2820 O.3   903  MLR903     -0.1869
      8  O2A       12.9360  -21.2220   -5.1020 O.3   903  MLR903     -0.2148
      9  O3A       14.5970  -19.5470   -6.6870 O.3   903  MLR903     -0.2175
     10  O4A       16.9130  -18.4880   -5.4290 O.3   903  MLR903     -0.3257
     11  O5A       14.7320  -19.2760   -2.5040 O.3   903  MLR903     -0.3237
     12  O6A       17.0500  -18.1980   -1.2160 O.3   903  MLR903     -0.2176
     13  C1B       16.9690  -17.2440   -6.1700 C.3   903  MLR903      0.2695
     14  C2B       17.7510  -17.5110   -7.4810 C.3   903  MLR903      0.2404
     15  C3B       19.1350  -18.0690   -7.0840 C.3   903  MLR903      0.2167
     16  C4B       19.8630  -17.0170   -6.2350 C.3   903  MLR903      0.1804
     17  C5B       18.9950  -16.7230   -4.9700 C.3   903  MLR903      0.1803
     18  C6B       19.6790  -15.6560   -4.0910 C.3   903  MLR903      0.2141
     19  O2B       17.0610  -18.4950   -8.2700 O.3   903  MLR903     -0.2149
     20  O3B       19.9070  -18.3440   -8.2580 O.3   903  MLR903     -0.2175
     21  O4B       21.1450  -17.5440   -5.8400 O.3   903  MLR903     -0.3257
     22  O5B       17.6730  -16.2360   -5.3680 O.3   903  MLR903     -0.3257
     23  O6B       19.7890  -14.4200   -4.7950 O.3   903  MLR903     -0.2176
     24  C1C       22.2240  -16.6980   -6.3050 C.3   903  MLR903      0.2695
     25  C2C       23.3050  -17.5570   -7.0240 C.3   903  MLR903      0.2406
     26  C3C       23.8170  -18.6120   -6.0190 C.3   903  MLR903      0.2198
     27  C4C       24.4200  -17.8730   -4.8080 C.3   903  MLR903      0.2144
     28  C5C       23.3150  -16.9950   -4.1710 C.3   903  MLR903      0.1835
     29  C6C       23.9150  -16.2290   -2.9920 C.3   903  MLR903      0.2142
     30  O2C       22.7310  -18.2150   -8.1600 O.3   903  MLR903     -0.2149
     31  O3C       24.8210  -19.4290   -6.6340 O.3   903  MLR903     -0.2174
     32  O4C       24.8990  -18.8370   -3.8500 O.3   903  MLR903     -0.2176
     33  O5C       22.8190  -16.0250   -5.1520 O.3   903  MLR903     -0.3256
     34  O6C       22.8760  -15.9080   -2.0650 O.3   903  MLR903     -0.2176
@<TRIPOS>BOND
     1    19    14    1
     2    20    15    1
     3    30    25    1
     4    14    15    1
     5    14    13    1
     6    15    16    1
     7    25    24    1
     8    25    26    1
     9     9     3    1
    10    31    26    1
    11    24    21    1
    12    24    33    1
    13    16    21    1
    14    16    17    1
    15    13    10    1
    16    13    22    1
    17    26    27    1
    18    10     4    1
    19    22    17    1
    20     3     4    1
    21     3     2    1
    22    33    28    1
    23     8     2    1
    24    17    18    1
    25    27    28    1
    26    27    32    1
    27    23    18    1
    28     4     5    1
    29     2     1    1
    30    28    29    1
    31     5     6    1
    32     5    11    1
    33     1    11    1
    34     1     7    1
    35    29    34    1
    36     6    12    1
