@<TRIPOS>MOLECULE
3cke_FDF_A_1.pdb
 26 25 0 0 0
SMALL
GASTEIGER

@<TRIPOS>ATOM
      1  PA        -1.8450  -38.6980   19.9160 P.3   400  FDF400      0.2233
      2  PB        -1.7600  -39.1070   17.3410 P.3   400  FDF400      0.5373
      3  C1        -0.8800  -36.5200   20.3340 C.3   400  FDF400      0.1747
      4  O1        -2.1150  -37.2250   19.9340 O.3   400  FDF400     -0.3089
      5  O1A       -0.3250  -39.0740   20.0560 O.2   400  FDF400     -0.5169
      6  O1B       -0.5590  -38.2050   17.6650 O.3   400  FDF400     -0.1143
      7  C2        -0.9170  -35.0090   20.3380 C.2   400  FDF400     -0.0024
      8  O2A       -2.5810  -39.2570   21.2430 O.3   400  FDF400     -0.4370
      9  O2B       -1.1350  -40.4150   16.6050 O.3   400  FDF400     -0.1143
     10  C3         0.0050  -34.2810   21.0290 C.2   400  FDF400     -0.0454
     11  O3A       -2.6200  -39.4390   18.7380 O.3   400  FDF400     -0.2261
     12  O3B       -2.8410  -38.4160   16.3010 O.2   400  FDF400     -0.2221
     13  C4         1.1040  -34.9450   21.8810 C.3   400  FDF400      0.0261
     14  C5        -0.0210  -32.7670   20.9620 C.3   400  FDF400      0.0264
     15  C6         1.2910  -32.3010   20.2700 C.3   400  FDF400      0.0297
     16  C7         0.9570  -31.8030   18.8800 C.2   400  FDF400     -0.0342
     17  C8         1.5880  -32.2080   17.7840 C.2   400  FDF400     -0.0478
     18  C9         1.1520  -31.6310   16.4800 C.3   400  FDF400      0.0263
     19  C10        2.7420  -33.2390   17.8070 C.3   400  FDF400      0.0260
     20  C11        0.6100  -32.7710   15.6230 C.3   400  FDF400      0.0299
     21  C12       -0.8750  -32.5820   15.3880 C.2   400  FDF400     -0.0289
     22  C13       -1.8010  -33.5450   15.7130 C.2   400  FDF400      0.0216
     23  C14       -3.1330  -33.2950   15.4280 C.3   400  FDF400      0.2179
     24  C15       -1.3930  -34.7890   16.2880 C.3   400  FDF400      0.2179
     25  F1        -1.7940  -35.2550   17.4810 F     400  FDF400     -0.2294
     26  F2        -3.8060  -34.2650   14.9030 F     400  FDF400     -0.2294
@<TRIPOS>BOND
     1    26    23    1
     2    21    20    1
     3    21    22    2
     4    23    22    1
     5    20    18    1
     6    22    24    1
     7    24    25    1
     8    12     2    2
     9    18    17    1
    10     9     2    1
    11     2     6    1
    12     2    11    1
    13    17    19    1
    14    17    16    2
    15    11     1    1
    16    16    15    1
    17     1     4    1
    18     1     5    2
    19     1     8    1
    20     4     3    1
    21    15    14    1
    22     3     7    1
    23     7    10    2
    24    14    10    1
    25    10    13    1
