@<TRIPOS>MOLECULE
3ckl_A3P_A_1.pdb
 27 29 0 0 0
SMALL
GASTEIGER

@<TRIPOS>ATOM
      1  P1       -25.4070    7.3660  -18.4470 P.3   601  A3P601      0.5327
      2  O1P      -24.0840    6.9540  -17.8900 O.3   601  A3P601     -0.1145
      3  O2P      -25.8060    8.7370  -17.9100 O.3   601  A3P601     -0.1145
      4  O3P      -26.5720    6.3980  -18.4090 O.2   601  A3P601     -0.2224
      5  P2       -26.9780    5.9710  -25.7690 P.3   601  A3P601      0.5327
      6  O4P      -28.1170    5.1070  -25.2040 O.3   601  A3P601     -0.1145
      7  O5P      -25.9960    5.2080  -26.5840 O.2   601  A3P601     -0.2224
      8  O6P      -27.4790    7.2960  -26.4010 O.3   601  A3P601     -0.1145
      9  O5'      -26.1430    6.3670  -24.4970 O.3   601  A3P601     -0.2675
     10  C5'      -26.7190    6.8070  -23.2880 C.3   601  A3P601      0.1859
     11  C4'      -25.5520    7.2810  -22.4320 C.3   601  A3P601      0.1796
     12  O4'      -24.9900    8.4360  -23.0690 O.3   601  A3P601     -0.3136
     13  C3'      -26.0820    7.7110  -21.0800 C.3   601  A3P601      0.1928
     14  O3'      -25.1070    7.4870  -20.0550 O.3   601  A3P601     -0.2673
     15  C2'      -26.3280    9.1980  -21.3450 C.3   601  A3P601      0.2543
     16  O2'      -26.5420    9.9780  -20.1550 O.3   601  A3P601     -0.2131
     17  C1'      -25.0630    9.5110  -22.1260 C.3   601  A3P601      0.3185
     18  N9       -25.1510   10.8460  -22.7630 N.pl3 601  A3P601     -0.1439
     19  C8       -26.1760   11.3490  -23.4930 C.3   601  A3P601      0.3377
     20  N7       -25.9250   12.6170  -23.8750 N.2   601  A3P601     -0.2095
     21  C5       -24.6850   12.9120  -23.3940 C.2   601  A3P601      0.2526
     22  C6       -23.7890   14.0870  -23.4210 C.2   601  A3P601      0.4393
     23  N6       -24.1760   15.2060  -24.0680 N.pl3 601  A3P601      0.2180
     24  N1       -22.5990   13.9880  -22.7660 N.2   601  A3P601      0.0021
     25  C2       -22.2000   12.8710  -22.1020 C.3   601  A3P601      0.5254
     26  N3       -22.9550   11.7540  -22.0350 N.2   601  A3P601     -0.0055
     27  C4       -24.1870   11.7490  -22.6410 C.2   601  A3P601      0.3518
@<TRIPOS>BOND
     1     7     5    2
     2     8     5    1
     3     5     6    1
     4     5     9    1
     5     9    10    1
     6    23    22    1
     7    20    19    1
     8    20    21    2
     9    19    18    1
    10    22    21    1
    11    22    24    2
    12    21    27    1
    13    10    11    1
    14    12    11    1
    15    12    17    1
    16    24    25    1
    17    18    27    1
    18    18    17    1
    19    27    26    2
    20    11    13    1
    21    17    15    1
    22    25    26    1
    23    15    13    1
    24    15    16    1
    25    13    14    1
    26    14     1    1
    27     1     4    2
    28     1     3    1
    29     1     2    1
