@<TRIPOS>MOLECULE
3ckl_STL_A_1.pdb
 17 18 0 0 0
SMALL
GASTEIGER

@<TRIPOS>ATOM
      1  C1       -32.3270   -1.4130  -27.0170 C.ar  501  STL501      0.1989
      2  C2       -31.1460   -0.7400  -26.7410 C.ar  501  STL501      0.0840
      3  C3       -31.1020    0.6430  -26.8370 C.ar  501  STL501      0.1989
      4  C4       -32.2410    1.3800  -27.2070 C.ar  501  STL501      0.0422
      5  C5       -33.4470    0.7020  -27.4710 C.ar  501  STL501      0.0064
      6  C6       -33.4690   -0.7000  -27.3760 C.ar  501  STL501      0.0422
      7  C7       -34.7100    1.3860  -27.8960 C.2   501  STL501      0.0002
      8  C8       -34.7990    2.6180  -28.4250 C.2   501  STL501      0.0000
      9  C9       -36.1070    3.1690  -28.8940 C.ar  501  STL501      0.0002
     10  C10      -36.0980    4.1850  -29.8610 C.ar  501  STL501      0.0033
     11  C11      -37.2840    4.7290  -30.3520 C.ar  501  STL501      0.0420
     12  C12      -38.5010    4.2310  -29.8900 C.ar  501  STL501      0.1957
     13  C13      -38.5250    3.2000  -28.9480 C.ar  501  STL501      0.0420
     14  C14      -37.3350    2.6610  -28.4520 C.ar  501  STL501      0.0033
     15  O1       -39.6650    4.7510  -30.3750 O.3   501  STL501     -0.2866
     16  O2       -29.9190    1.2400  -26.5420 O.3   501  STL501     -0.2865
     17  O3       -32.3270   -2.7650  -26.9140 O.3   501  STL501     -0.2865
@<TRIPOS>BOND
     1    15    12    1
     2    11    12   ar
     3    11    10   ar
     4    12    13   ar
     5    10     9   ar
     6    13    14   ar
     7     9    14   ar
     8     9     8    1
     9     8     7    2
    10     7     5    1
    11     5     6   ar
    12     5     4   ar
    13     6     1   ar
    14     4     3   ar
    15     1    17    1
    16     1     2   ar
    17     3     2   ar
    18     3    16    1
