@<TRIPOS>MOLECULE
3ckn_UDP_A_1.pdb
 25 26 0 0 0
SMALL
GASTEIGER

@<TRIPOS>ATOM
      1  N1         6.7630   27.1350   15.1840 N.am  332  UDP332     -0.1766
      2  C2         6.6260   28.4190   15.7000 C.1   332  UDP332      0.2845
      3  N3         6.5450   29.4970   14.8380 N.2   332  UDP332     -0.2452
      4  C4         6.6020   29.3090   13.4710 C.1   332  UDP332      0.2182
      5  C5         6.7400   28.0170   12.9500 C.2   332  UDP332      0.1242
      6  C6         6.9510   26.9570   13.8330 C.2   332  UDP332      0.0929
      7  O2         6.5740   28.6080   16.9170 O.2   332  UDP332     -0.1918
      8  O4         6.5200   30.2850   12.7210 O.2   332  UDP332     -0.2085
      9  C1'        6.8620   25.9990   16.1270 C.3   332  UDP332      0.2401
     10  C2'        5.9350   24.8210   15.8130 C.3   332  UDP332      0.2319
     11  O2'        4.6900   24.9240   16.4550 O.3   332  UDP332     -0.2157
     12  C3'        6.7320   23.6200   16.2900 C.3   332  UDP332      0.2158
     13  C4'        8.1760   24.0660   16.1250 C.3   332  UDP332      0.1799
     14  O4'        8.1770   25.4850   16.0700 O.3   332  UDP332     -0.3320
     15  O3'        6.5110   23.3490   17.6550 O.3   332  UDP332     -0.2175
     16  C5'        8.7870   23.5230   14.8470 C.3   332  UDP332      0.1813
     17  O5'        7.9360   23.8270   13.7640 O.3   332  UDP332     -0.3111
     18  PA         7.6960   22.7190   12.6300 P.3   332  UDP332      0.2231
     19  O1A        7.0780   21.5180   13.2390 O.3   332  UDP332     -0.4370
     20  O2A        6.8860   23.2280   11.4980 O.2   332  UDP332     -0.5169
     21  O3A        9.2310   22.5220   12.1660 O.3   332  UDP332     -0.2261
     22  PB         9.9610   21.1460   11.7490 P.3   332  UDP332      0.5373
     23  O1B        9.6240   20.8670   10.3390 O.2   332  UDP332     -0.2221
     24  O2B        9.5760   20.0100   12.6210 O.3   332  UDP332     -0.1143
     25  O3B       11.4280   21.3500   11.8720 O.3   332  UDP332     -0.1143
@<TRIPOS>BOND
     1    23    22    2
     2    20    18    2
     3    22    25    1
     4    22    21    1
     5    22    24    1
     6    21    18    1
     7    18    19    1
     8    18    17    1
     9     8     4    2
    10     5     4    1
    11     5     6    2
    12     4     3    2
    13    17    16    1
    14     6     1    1
    15     3     2    2
    16    16    13    1
    17     1     2   am
    18     1     9    1
    19     2     7    2
    20    10     9    1
    21    10    12    1
    22    10    11    1
    23    14    13    1
    24    14     9    1
    25    13    12    1
    26    12    15    1
