@<TRIPOS>MOLECULE
3cko_UDP_A_1.pdb
 21 22 0 0 0
SMALL
GASTEIGER

@<TRIPOS>ATOM
      1  N1         6.9850   27.4230   14.6560 N.am  331  UDP331     -0.1766
      2  C2         6.7050   28.7070   15.1090 C.1   331  UDP331      0.2845
      3  N3         6.6650   29.7660   14.2170 N.2   331  UDP331     -0.2452
      4  C4         6.9050   29.5480   12.8710 C.1   331  UDP331      0.2182
      5  C5         7.1860   28.2610   12.4170 C.2   331  UDP331      0.1242
      6  C6         7.3180   27.2250   13.3380 C.2   331  UDP331      0.0929
      7  O2         6.4900   28.9210   16.3040 O.2   331  UDP331     -0.1918
      8  O4         6.8700   30.4880   12.0780 O.2   331  UDP331     -0.2085
      9  C1'        7.0290   26.2970   15.6200 C.3   331  UDP331      0.2401
     10  C2'        5.9440   25.2610   15.3620 C.3   331  UDP331      0.2319
     11  O2'        4.7910   25.5390   16.1200 O.3   331  UDP331     -0.2157
     12  C3'        6.5880   23.9490   15.7750 C.3   331  UDP331      0.2158
     13  C4'        8.0860   24.2070   15.6930 C.3   331  UDP331      0.1801
     14  O4'        8.2670   25.6070   15.5600 O.3   331  UDP331     -0.3320
     15  O3'        6.2500   23.6160   17.1020 O.3   331  UDP331     -0.2175
     16  C5'        8.7220   23.4800   14.5100 C.3   331  UDP331      0.1859
     17  O5'        8.2870   24.0780   13.3080 O.3   331  UDP331     -0.2675
     18  PA         8.2920   23.2760   11.9130 P.3   331  UDP331      0.5327
     19  O1A        7.4330   23.9820   10.9320 O.2   331  UDP331     -0.2224
     20  O2A        7.8590   21.8700   12.0880 O.3   331  UDP331     -0.1145
     21  O3A        9.8310   23.3440   11.4480 O.3   331  UDP331     -0.1145
@<TRIPOS>BOND
     1    19    18    2
     2    21    18    1
     3    18    20    1
     4    18    17    1
     5     8     4    2
     6     5     4    1
     7     5     6    2
     8     4     3    2
     9    17    16    1
    10     6     1    1
    11     3     2    2
    12    16    13    1
    13     1     2   am
    14     1     9    1
    15     2     7    2
    16    10     9    1
    17    10    12    1
    18    10    11    1
    19    14     9    1
    20    14    13    1
    21    13    12    1
    22    12    15    1
