@<TRIPOS>MOLECULE
3ckp_012_A_1.pdb
 40 43 0 0 0
SMALL
GASTEIGER

@<TRIPOS>ATOM
      1  C         30.0980    7.4040   10.4860 C.2   501  012501      0.2664
      2  O         31.2330    7.8780   10.5790 O.2   501  012501     -0.2712
      3  N         29.7600    6.1170   10.1350 N.am  501  012501     -0.2025
      4  CA        30.7170    5.0530    9.8010 C.3   501  012501      0.1314
      5  CB        30.7750    4.0590   10.9900 C.3   501  012501      0.0506
      6  CG        31.1350    4.7580   12.2880 C.ar  501  012501     -0.0204
      7  CD1       30.1780    4.8860   13.3290 C.ar  501  012501     -0.0042
      8  CD2       32.4210    5.3110   12.4870 C.ar  501  012501     -0.0042
      9  CE1       30.5090    5.5510   14.5360 C.ar  501  012501     -0.0003
     10  CE2       32.7480    5.9770   13.6930 C.ar  501  012501     -0.0003
     11  CZ        31.7900    6.0980   14.7190 C.ar  501  012501     -0.0000
     12  C1        30.2980    4.3650    8.4910 C.3   501  012501      0.1894
     13  OG        31.2340    3.3520    8.1920 O.3   501  012501     -0.2197
     14  C2        30.2440    5.3620    7.3470 C.3   501  012501      0.1237
     15  N2        30.3100    4.7080    6.0210 N.3   501  012501     -0.2105
     16  C20       30.7520    5.5760    4.8970 C.3   501  012501      0.1151
     17  C21       32.1790    6.0310    5.0800 C.ar  501  012501     -0.0036
     18  C22       32.4880    7.3870    5.3740 C.ar  501  012501     -0.0028
     19  C23       33.8310    7.7880    5.5590 C.ar  501  012501      0.0010
     20  C24       34.8710    6.8380    5.4520 C.ar  501  012501      0.0145
     21  C25       34.5820    5.4650    5.1540 C.ar  501  012501      0.0477
     22  C26       33.2270    5.0890    4.9730 C.ar  501  012501      0.0116
     23  N27       35.6070    4.5110    5.0460 N.pl3 501  012501     -0.3041
     24  C28       36.9770    4.8310    5.4710 C.3   501  012501      0.1122
     25  C29       35.3430    3.1690    4.5060 C.3   501  012501      0.1122
     26  C30       28.8850    8.2450   10.8020 C.3   501  012501      0.2136
     27  N31       27.6720    7.6940   10.2230 N.2   501  012501     -0.1808
     28  C32       26.7350    8.1760   11.1400 C.1   501  012501      0.2118
     29  O33       25.5470    8.0700   10.9060 O.2   501  012501     -0.2063
     30  N34       27.2330    8.7890   12.3170 N.am  501  012501     -0.2297
     31  C35       28.6070    8.3310   12.2940 C.3   501  012501      0.1377
     32  C36       26.4440    8.5530   13.5670 C.3   501  012501      0.1292
     33  C41       26.5700    7.2330   14.2980 C.ar  501  012501      0.0013
     34  C42       26.0010    6.0550   13.7610 C.ar  501  012501      0.0343
     35  C43       26.0970    4.8190   14.4290 C.ar  501  012501      0.1385
     36  C44       26.7840    4.7610   15.6760 C.ar  501  012501      0.0369
     37  C45       27.3580    5.9310   16.2310 C.ar  501  012501      0.0028
     38  C46       27.2510    7.1620   15.5460 C.ar  501  012501     -0.0024
     39  O47       25.4910    3.7040   13.8250 O.3   501  012501     -0.4714
     40  C48       26.3930    2.7880   13.2400 C.3   501  012501      0.2525
@<TRIPOS>BOND
     1    25    23    1
     2    16    17    1
     3    16    15    1
     4    22    17   ar
     5    22    21   ar
     6    23    21    1
     7    23    24    1
     8    17    18   ar
     9    21    20   ar
    10    18    19   ar
    11    20    19   ar
    12    15    14    1
    13    14    12    1
    14    13    12    1
    15    12     4    1
    16     4     3    1
    17     4     5    1
    18     3     1   am
    19    27    26    1
    20    27    28    2
    21     1     2    2
    22     1    26    1
    23    26    31    1
    24    29    28    2
    25     5     6    1
    26    28    30   am
    27     6     8   ar
    28     6     7   ar
    29    31    30    1
    30    30    32    1
    31     8    10   ar
    32    40    39    1
    33     7     9   ar
    34    32    33    1
    35    10    11   ar
    36    34    33   ar
    37    34    35   ar
    38    39    35    1
    39    33    38   ar
    40    35    36   ar
    41     9    11   ar
    42    38    37   ar
    43    36    37   ar
