@<TRIPOS>MOLECULE
3ckq_UPG_A_1.pdb
 36 38 0 0 0
SMALL
GASTEIGER

@<TRIPOS>ATOM
      1  N1         6.9360   27.5320   14.5730 N.am  332  UPG332     -0.1766
      2  C2         6.7820   28.8330   15.1210 C.1   332  UPG332      0.2845
      3  N3         6.7540   29.9090   14.3190 N.2   332  UPG332     -0.2452
      4  C4         6.8700   29.7770   12.9890 C.1   332  UPG332      0.2182
      5  C5         7.0220   28.5120   12.4190 C.2   332  UPG332      0.1242
      6  C6         7.0550   27.3850   13.2410 C.2   332  UPG332      0.0929
      7  O2         6.6720   28.9950   16.3570 O.2   332  UPG332     -0.1918
      8  O4         6.8400   30.7950   12.2650 O.2   332  UPG332     -0.2085
      9  C1C        6.9620   26.3700   15.4820 C.3   332  UPG332      0.2401
     10  C2C        5.9040   25.3200   15.1560 C.3   332  UPG332      0.2319
     11  O2C        4.6580   25.6040   15.7990 O.3   332  UPG332     -0.2157
     12  C3C        6.5250   24.0270   15.6540 C.3   332  UPG332      0.2158
     13  C4C        8.0280   24.2770   15.6170 C.3   332  UPG332      0.1799
     14  O4C        8.2240   25.6880   15.4670 O.3   332  UPG332     -0.3320
     15  O3C        6.1300   23.7560   17.0030 O.3   332  UPG332     -0.2175
     16  C5C        8.6870   23.5440   14.4550 C.3   332  UPG332      0.1813
     17  O5C        8.1190   24.0130   13.2290 O.3   332  UPG332     -0.3112
     18  PA         7.9850   23.0350   11.9600 P.3   332  UPG332      0.2189
     19  O1A        7.1110   21.8520   12.2920 O.3   332  UPG332     -0.4371
     20  O2A        7.4520   23.7750   10.7530 O.2   332  UPG332     -0.5170
     21  O3A        9.5150   22.5800   11.7720 O.3   332  UPG332     -0.2703
     22  PB         9.9660   21.5510   10.6290 P.3   332  UPG332      0.2208
     23  O1B        9.3780   21.9590    9.2960 O.2   332  UPG332     -0.5170
     24  O2B        9.5410   20.1530   10.9970 O.3   332  UPG332     -0.4371
     25  O3B       11.5720   21.7180   10.6330 O.3   332  UPG332     -0.2857
     26  C1'       12.5230   20.9860   11.4260 C.3   332  UPG332      0.2742
     27  C2'       12.2330   20.9890   12.9300 C.3   332  UPG332      0.2409
     28  C3'       12.2350   22.4140   13.4880 C.3   332  UPG332      0.2198
     29  C4'       13.4660   23.2140   13.0530 C.3   332  UPG332      0.2144
     30  C5'       13.7880   23.0100   11.5660 C.3   332  UPG332      0.1835
     31  C6'       15.0920   23.6770   11.1240 C.3   332  UPG332      0.2142
     32  O2'       10.9850   20.3530   13.2180 O.3   332  UPG332     -0.2149
     33  O3'       12.1740   22.3670   14.9160 O.3   332  UPG332     -0.2174
     34  O4'       13.2210   24.6030   13.2970 O.3   332  UPG332     -0.2176
     35  O5'       13.8050   21.6080   11.2490 O.3   332  UPG332     -0.3254
     36  O6'       16.0280   23.7840   12.2060 O.3   332  UPG332     -0.2176
@<TRIPOS>BOND
     1    23    22    2
     2    22    25    1
     3    22    24    1
     4    22    21    1
     5    25    26    1
     6    20    18    2
     7    31    30    1
     8    31    36    1
     9    35    26    1
    10    35    30    1
    11    26    27    1
    12    30    29    1
    13    21    18    1
    14    18    19    1
    15    18    17    1
    16     8     4    2
    17     5     4    1
    18     5     6    2
    19    27    32    1
    20    27    28    1
    21     4     3    2
    22    29    34    1
    23    29    28    1
    24    17    16    1
    25     6     1    1
    26    28    33    1
    27     3     2    2
    28    16    13    1
    29     1     2   am
    30     1     9    1
    31     2     7    2
    32    10     9    1
    33    10    12    1
    34    10    11    1
    35    14     9    1
    36    14    13    1
    37    13    12    1
    38    12    15    1
