@<TRIPOS>MOLECULE
3ckr_009_A_1.pdb
 45 49 0 0 0
SMALL
GASTEIGER

@<TRIPOS>ATOM
      1  C         30.0750    7.2670   10.4160 C.2   501  009501      0.2643
      2  O         31.2130    7.7240   10.2530 O.2   501  009501     -0.2712
      3  N         29.7550    5.9380   10.2410 N.am  501  009501     -0.2025
      4  CA        30.7420    4.8820    9.8460 C.3   501  009501      0.1314
      5  CB        30.7450    3.8170   10.9810 C.3   501  009501      0.0506
      6  CG        31.1010    4.4780   12.2840 C.ar  501  009501     -0.0204
      7  CD1       30.2390    4.3980   13.3920 C.ar  501  009501     -0.0042
      8  CD2       32.3120    5.2140   12.4050 C.ar  501  009501     -0.0042
      9  CE1       30.5720    5.0370   14.5990 C.ar  501  009501     -0.0003
     10  CE2       32.6460    5.8570   13.6140 C.ar  501  009501     -0.0003
     11  CZ        31.7690    5.7660   14.7150 C.ar  501  009501     -0.0000
     12  C1        30.3740    4.2860    8.4780 C.3   501  009501      0.1894
     13  OG        31.3370    3.2860    8.1800 O.3   501  009501     -0.2197
     14  C2        30.4340    5.3440    7.3850 C.3   501  009501      0.1237
     15  N2        30.7250    4.7130    6.0840 N.3   501  009501     -0.2105
     16  C20       30.8860    5.6510    4.9620 C.3   501  009501      0.1151
     17  C21       32.3180    6.1020    4.9600 C.ar  501  009501     -0.0036
     18  C22       32.6610    7.4690    5.0770 C.ar  501  009501     -0.0028
     19  C23       34.0240    7.8610    5.0930 C.ar  501  009501      0.0010
     20  C24       35.0530    6.8790    4.9940 C.ar  501  009501      0.0145
     21  C25       34.7220    5.4910    4.8770 C.ar  501  009501      0.0477
     22  C26       33.3500    5.1250    4.8620 C.ar  501  009501      0.0116
     23  N27       35.7150    4.5180    4.7820 N.pl3 501  009501     -0.3041
     24  C28       36.5760    4.2390    5.9260 C.3   501  009501      0.1122
     25  C29       35.9040    3.7610    3.5430 C.3   501  009501      0.1122
     26  C30       28.8570    8.1750   10.8900 C.3   501  009501      0.1887
     27  N31       27.6470    7.7960   10.1460 N.2   501  009501     -0.1830
     28  C32       26.6030    7.8620   11.0010 C.1   501  009501      0.2117
     29  O33       25.4340    7.6190   10.7000 O.2   501  009501     -0.2063
     30  N34       26.9820    8.2750   12.3200 N.am  501  009501     -0.2298
     31  C35       28.4130    7.9020   12.3390 C.3   501  009501      0.1356
     32  C36       26.0920    7.8200   13.4500 C.3   501  009501      0.1291
     33  C41       26.4380    6.5430   14.1810 C.ar  501  009501     -0.0017
     34  C42       26.1090    5.2790   13.6300 C.ar  501  009501     -0.0026
     35  C43       27.1020    6.5990   15.4380 C.ar  501  009501     -0.0026
     36  C44       27.4350    5.4120   16.1280 C.ar  501  009501     -0.0003
     37  C45       26.4390    4.0930   14.3140 C.ar  501  009501     -0.0003
     38  C46       27.1070    4.1590   15.5660 C.ar  501  009501     -0.0000
     39  C51       29.2240    9.7020   10.6070 C.3   501  009501      0.0603
     40  C52       27.6330   12.3850   12.9470 C.ar  501  009501     -0.0003
     41  C53       26.5010   12.7820   12.1860 C.ar  501  009501     -0.0000
     42  C54       26.2580   12.1950   10.9180 C.ar  501  009501     -0.0003
     43  C55       27.1350   11.2050   10.3980 C.ar  501  009501     -0.0042
     44  C56       28.2750   10.7870   11.1460 C.ar  501  009501     -0.0197
     45  C57       28.5140   11.3950   12.4310 C.ar  501  009501     -0.0042
@<TRIPOS>BOND
     1    25    23    1
     2    23    21    1
     3    23    24    1
     4    22    21   ar
     5    22    17   ar
     6    21    20   ar
     7    17    16    1
     8    17    18   ar
     9    16    15    1
    10    20    19   ar
    11    18    19   ar
    12    15    14    1
    13    14    12    1
    14    13    12    1
    15    12     4    1
    16     4     3    1
    17     4     5    1
    18    27    26    1
    19    27    28    2
    20     3     1   am
    21     2     1    2
    22    43    42   ar
    23    43    44   ar
    24     1    26    1
    25    39    26    1
    26    39    44    1
    27    29    28    2
    28    26    31    1
    29    42    41   ar
    30     5     6    1
    31    28    30   am
    32    44    45   ar
    33    41    40   ar
    34     6     8   ar
    35     6     7   ar
    36    30    31    1
    37    30    32    1
    38     8    10   ar
    39    45    40   ar
    40     7     9   ar
    41    32    33    1
    42    10    11   ar
    43    34    33   ar
    44    34    37   ar
    45    33    35   ar
    46    37    38   ar
    47     9    11   ar
    48    35    36   ar
    49    38    36   ar
