@<TRIPOS>MOLECULE
3cks_AZA_A_1.pdb
 11 12 0 0 0
SMALL
GASTEIGER

@<TRIPOS>ATOM
      1  N1        30.1990   27.7650   36.6890 N.2   302  AZA302     -0.2300
      2  C2        29.5180   27.5140   37.8320 C.1   302  AZA302      0.3745
      3  O2        28.3570   27.9860   37.9100 O.2   302  AZA302     -0.1738
      4  N3        30.0520   26.7740   38.8630 N.2   302  AZA302     -0.2491
      5  C4        31.3010   26.2710   38.6940 C.1   302  AZA302      0.1531
      6  C5        32.0740   26.5070   37.5110 C.2   302  AZA302      0.2717
      7  C6        31.4360   27.3040   36.4530 C.1   302  AZA302      0.2477
      8  O6        32.0690   27.5620   35.4140 O.2   302  AZA302     -0.2062
      9  N7        33.2970   25.8850   37.6080 N.2   302  AZA302     -0.1149
     10  N8        33.2430   25.2780   38.8860 N.pl3 302  AZA302     -0.0026
     11  N9        32.0350   25.5020   39.5800 N.2   302  AZA302     -0.0705
@<TRIPOS>BOND
     1     8     7    2
     2     7     1    2
     3     7     6    1
     4     1     2    2
     5     6     9    2
     6     6     5    1
     7     9    10    1
     8     2     3    2
     9     2     4    2
    10     5     4    2
    11     5    11    2
    12    10    11    1
