@<TRIPOS>MOLECULE
3ckt_YDP_A_1.pdb
 41 43 0 0 0
SMALL
GASTEIGER

@<TRIPOS>ATOM
      1  N1         9.7120    8.5970  -18.1680 N.am  2501  YDP2501    -0.0837
      2  C5         8.9070    6.7760  -16.0830 C.ar  2501  YDP2501     0.0060
      3  C6         9.7430    6.3410  -17.1200 C.ar  2501  YDP2501     0.0567
      4  C8        10.1380    7.3110  -18.2170 C.2   2501  YDP2501     0.2842
      5  C10        8.4390   -1.2680  -11.1950 C.3   2501  YDP2501     0.0261
      6  C20        8.5480    5.8930  -15.0690 C.ar  2501  YDP2501     0.0201
      7  C24        6.5330    2.1150  -15.0780 C.3   2501  YDP2501     0.1149
      8  C27        9.0020    4.5720  -15.0760 C.ar  2501  YDP2501     0.1222
      9  C18        9.8160    4.1260  -16.1180 C.ar  2501  YDP2501     0.0201
     10  C2        10.1630    5.0130  -17.1540 C.ar  2501  YDP2501     0.0060
     11  S9         8.5100    3.5040  -13.7700 S.O2  2501  YDP2501     0.0636
     12  O40        9.7690    3.1490  -13.0950 O.2   2501  YDP2501    -0.1528
     13  N32        7.8910    2.0860  -14.5140 N.3   2501  YDP2501    -0.1496
     14  C33        8.7550    0.8850  -14.4840 C.3   2501  YDP2501     0.1212
     15  C34        8.8590    0.3180  -13.0720 C.2   2501  YDP2501    -0.0155
     16  C35        8.3200   -0.8350  -12.6390 C.2   2501  YDP2501    -0.0465
     17  C11        7.5380   -1.7970  -13.5040 C.3   2501  YDP2501     0.0261
     18  C25        6.3410    1.4800  -16.4570 C.3   2501  YDP2501     0.1079
     19  N22        5.5940    0.2230  -16.3390 N.3   2501  YDP2501    -0.2150
     20  O11        7.4860    4.1060  -12.9360 O.2   2501  YDP2501    -0.1528
     21  O2        10.8730    6.8860  -19.0880 O.2   2501  YDP2501    -0.2667
     22  N2         0.3770   -3.0810   -9.7660 N.am  2501  YDP2501    -0.0837
     23  C3         2.3960   -0.9890  -10.3450 C.ar  2501  YDP2501     0.0060
     24  O3        -0.0470   -3.0300  -11.9750 O.2   2501  YDP2501    -0.2667
     25  C7         1.1860   -0.5350  -12.3880 C.ar  2501  YDP2501     0.0060
     26  C4         1.3830   -1.3260  -11.2620 C.ar  2501  YDP2501     0.0567
     27  C9         0.5100   -2.5460  -11.0080 C.2   2501  YDP2501     0.2842
     28  S10        4.1990    2.1930  -12.0280 S.O2  2501  YDP2501     0.0636
     29  C12        3.3330    4.2670  -17.2450 C.3   2501  YDP2501     0.0261
     30  C13        4.0050    6.4600  -16.1560 C.3   2501  YDP2501     0.0261
     31  O12        3.4850    3.3960  -11.6360 O.2   2501  YDP2501    -0.1528
     32  C19        3.2720    0.0610  -10.6260 C.ar  2501  YDP2501     0.0201
     33  C21        2.0530    0.5330  -12.6680 C.ar  2501  YDP2501     0.0201
     34  C23        5.5330    1.3520  -14.1620 C.3   2501  YDP2501     0.1149
     35  C26        5.0500    0.1200  -14.9660 C.3   2501  YDP2501     0.1079
     36  C28        3.0780    0.8340  -11.7780 C.ar  2501  YDP2501     0.1222
     37  N36        4.3850    2.1570  -13.6990 N.3   2501  YDP2501    -0.1496
     38  C37        3.4630    2.8930  -14.5730 C.3   2501  YDP2501     0.1212
     39  C38        3.7610    4.3720  -14.7770 C.2   2501  YDP2501    -0.0155
     40  C39        3.7100    4.9930  -15.9710 C.2   2501  YDP2501    -0.0465
     41  O41        5.4360    1.7980  -11.3760 O.2   2501  YDP2501    -0.1528
@<TRIPOS>BOND
     1    21     4    2
     2     4     1   am
     3     4     3    1
     4    29    40    1
     5    10     3   ar
     6    10     9   ar
     7     3     2   ar
     8    18    19    1
     9    18     7    1
    10    19    35    1
    11    30    40    1
    12     9     8   ar
    13     2     6   ar
    14    40    39    2
    15     7    13    1
    16     7    34    1
    17     8     6   ar
    18     8    11    1
    19    35    34    1
    20    39    38    1
    21    38    37    1
    22    13    14    1
    23    13    11    1
    24    14    15    1
    25    34    37    1
    26    11    12    2
    27    11    20    2
    28    37    28    1
    29    17    16    1
    30    15    16    2
    31    33    25   ar
    32    33    36   ar
    33    16     5    1
    34    25    26   ar
    35    28    36    1
    36    28    31    2
    37    28    41    2
    38    24    27    2
    39    36    32   ar
    40    26    27    1
    41    26    23   ar
    42    27    22   am
    43    32    23   ar
