@<TRIPOS>MOLECULE
3cku_AZA_A_1.pdb
 11 12 0 0 0
SMALL
GASTEIGER

@<TRIPOS>ATOM
      1  N1        29.7350   27.1880   36.3480 N.2   302  AZA302     -0.2300
      2  C2        28.9640   27.0160   37.4660 C.1   302  AZA302      0.3745
      3  O2        27.8530   27.4760   37.5200 O.2   302  AZA302     -0.1738
      4  N3        29.5080   26.3010   38.5060 N.2   302  AZA302     -0.2491
      5  C4        30.7800   25.8530   38.3670 C.1   302  AZA302      0.1531
      6  C5        31.5380   25.9910   37.2210 C.2   302  AZA302      0.2717
      7  C6        31.0210   26.7510   36.1130 C.1   302  AZA302      0.2477
      8  O6        31.5690   26.9710   35.0350 O.2   302  AZA302     -0.2062
      9  N7        32.7090   25.3990   37.3280 N.2   302  AZA302     -0.1149
     10  N8        32.7060   24.8830   38.5410 N.pl3 302  AZA302     -0.0026
     11  N9        31.5430   25.1100   39.2370 N.2   302  AZA302     -0.0705
@<TRIPOS>BOND
     1     8     7    2
     2     7     1    2
     3     7     6    1
     4     1     2    2
     5     6     9    2
     6     6     5    1
     7     9    10    1
     8     2     3    2
     9     2     4    2
    10     5     4    2
    11     5    11    2
    12    10    11    1
