@<TRIPOS>MOLECULE
3ckv_UDP_A_1.pdb
 21 22 0 0 0
SMALL
GASTEIGER

@<TRIPOS>ATOM
      1  N1         6.8280   27.4900   15.0480 N.am  331  UDP331     -0.1766
      2  C2         6.6930   28.7360   15.6710 C.1   331  UDP331      0.2845
      3  N3         6.6210   29.8960   14.9110 N.2   331  UDP331     -0.2452
      4  C4         6.6690   29.8440   13.5320 C.1   331  UDP331      0.2182
      5  C5         6.8080   28.6020   12.8850 C.2   331  UDP331      0.1242
      6  C6         7.0260   27.4520   13.6750 C.2   331  UDP331      0.0929
      7  O2         6.6420   28.8590   16.9030 O.2   331  UDP331     -0.1918
      8  O4         6.5830   30.9190   12.9110 O.2   331  UDP331     -0.2085
      9  C1'        6.9150   26.2550   15.8780 C.3   331  UDP331      0.2401
     10  C2'        5.9490   25.1560   15.4170 C.3   331  UDP331      0.2319
     11  O2'        4.6600   25.2780   15.9870 O.3   331  UDP331     -0.2157
     12  C3'        6.6750   23.8830   15.8390 C.3   331  UDP331      0.2158
     13  C4'        8.1410   24.2270   15.6480 C.3   331  UDP331      0.1801
     14  O4'        8.2050   25.6610   15.7530 O.3   331  UDP331     -0.3320
     15  O3'        6.5060   23.6160   17.2170 O.3   331  UDP331     -0.2175
     16  C5'        8.6800   23.7260   14.2990 C.3   331  UDP331      0.1859
     17  O5'        7.9310   24.2910   13.2310 O.3   331  UDP331     -0.2675
     18  PA         7.8240   23.6200   11.7490 P.3   331  UDP331      0.5327
     19  O1A        7.1460   24.5700   10.8000 O.2   331  UDP331     -0.2224
     20  O2A        7.0880   22.3270   11.8080 O.3   331  UDP331     -0.1145
     21  O3A        9.3810   23.3810   11.3870 O.3   331  UDP331     -0.1145
@<TRIPOS>BOND
     1    19    18    2
     2    21    18    1
     3    18    20    1
     4    18    17    1
     5     5     4    1
     6     5     6    2
     7     8     4    2
     8    17    16    1
     9     4     3    2
    10     6     1    1
    11    16    13    1
    12     3     2    2
    13     1     2   am
    14     1     9    1
    15    10    12    1
    16    10     9    1
    17    10    11    1
    18    13    14    1
    19    13    12    1
    20     2     7    2
    21    14     9    1
    22    12    15    1
