@<TRIPOS>MOLECULE
3ckx_STU_A_1.pdb
 35 42 0 0 0
SMALL
GASTEIGER

@<TRIPOS>ATOM
      1  O4       -14.0490    0.6470   10.0800 O.3   305  STU305     -0.3186
      2  C25      -14.6220    0.7320   11.3560 C.3   305  STU305      0.2078
      3  C24      -13.8300    1.5810   12.3450 C.3   305  STU305      0.0739
      4  C23      -12.5930    2.2060   11.6560 C.3   305  STU305      0.1086
      5  C22      -11.7950    1.0560   11.0190 C.3   305  STU305      0.1761
      6  C21      -12.6770    0.3450    9.9990 C.3   305  STU305      0.1915
      7  C26      -12.2230    0.9080    8.6440 C.3   305  STU305      0.0566
      8  N2       -12.3980   -1.0900   10.0490 N.ar  305  STU305     -0.3054
      9  C18      -13.1620   -1.9720   10.8080 C.ar  305  STU305      0.0774
     10  C19      -14.2930   -1.7400   11.6150 C.ar  305  STU305      0.0783
     11  C6       -14.9000   -2.8100   12.2860 C.ar  305  STU305      0.0293
     12  C7       -14.3780   -4.1150   12.1450 C.ar  305  STU305      0.0822
     13  C10      -13.2570   -4.3270   11.3510 C.ar  305  STU305      0.0154
     14  C11      -12.6450   -3.2720   10.6830 C.ar  305  STU305      0.0173
     15  C12      -11.4890   -3.1590    9.7950 C.ar  305  STU305      0.0171
     16  C17      -11.3790   -1.7950    9.4370 C.ar  305  STU305      0.0617
     17  C16      -10.3500   -1.3820    8.5840 C.ar  305  STU305      0.0172
     18  C15       -9.4730   -2.3500    8.1200 C.ar  305  STU305      0.0015
     19  C14       -9.5910   -3.6840    8.4760 C.ar  305  STU305      0.0001
     20  C13      -10.5950   -4.1190    9.3200 C.ar  305  STU305      0.0015
     21  C9       -12.9520   -5.7950   11.4190 C.3   305  STU305      0.1650
     22  N1       -13.9710   -6.3710   12.2950 N.2   305  STU305     -0.1976
     23  C8       -14.7900   -5.3980   12.7120 C.1   305  STU305      0.1501
     24  O5       -15.7370   -5.5620   13.4510 O.2   305  STU305     -0.2222
     25  C5       -16.0210   -2.2440   13.0160 C.ar  305  STU305      0.0180
     26  C20      -16.0270   -0.8480   12.7410 C.ar  305  STU305      0.0618
     27  C1       -17.0070   -0.0290   13.3120 C.ar  305  STU305      0.0172
     28  C2       -17.9490   -0.6360   14.1370 C.ar  305  STU305      0.0015
     29  C3       -17.9360   -1.9980   14.4010 C.ar  305  STU305      0.0001
     30  C4       -16.9780   -2.8370   13.8480 C.ar  305  STU305      0.0015
     31  N3       -14.9560   -0.5860   11.8860 N.ar  305  STU305     -0.3039
     32  O6       -11.4530    0.1340   12.0630 O.3   305  STU305     -0.3478
     33  C27      -10.0320    0.0870   12.2000 C.3   305  STU305      0.1743
     34  N4       -11.6980    2.9610   12.5650 N.3   305  STU305     -0.2152
     35  C28      -12.3300    3.1770   13.8800 C.3   305  STU305      0.1075
@<TRIPOS>BOND
     1    18    19   ar
     2    18    17   ar
     3    19    20   ar
     4    17    16   ar
     5     7     6    1
     6    20    15   ar
     7    16    15   ar
     8    16     8   ar
     9    15    14   ar
    10     6     8    1
    11     6     1    1
    12     6     5    1
    13     8     9   ar
    14     1     2    1
    15    14     9   ar
    16    14    13   ar
    17     9    10   ar
    18     5     4    1
    19     5    32    1
    20    13    21    1
    21    13    12   ar
    22     2    31    1
    23     2     3    1
    24    21    22    1
    25    10    31   ar
    26    10    11   ar
    27     4     3    1
    28     4    34    1
    29    31    26   ar
    30    32    33    1
    31    12    11   ar
    32    12    23    1
    33    11    25   ar
    34    22    23    2
    35    34    35    1
    36    23    24    2
    37    26    25   ar
    38    26    27   ar
    39    25    30   ar
    40    27    28   ar
    41    30    29   ar
    42    28    29   ar
