@<TRIPOS>MOLECULE
3ckz_ZMR_A_1.pdb
 23 23 0 0 0
SMALL
GASTEIGER

@<TRIPOS>ATOM
      1  C1       -30.2410  -53.1300    6.6480 C.2   469  ZMR469      0.3914
      2  O1A      -31.3330  -52.5290    6.4940 O.co2 469  ZMR469     -0.2430
      3  O1B      -29.1810  -52.6830    6.1790 O.co2 469  ZMR469     -0.2430
      4  C2       -30.2510  -54.3840    7.4020 C.3   469  ZMR469      0.2213
      5  C3       -29.1290  -55.0600    7.7510 C.3   469  ZMR469      0.0864
      6  C4       -29.1700  -56.1270    8.8400 C.3   469  ZMR469      0.2063
      7  C5       -30.5260  -56.8340    8.7520 C.3   469  ZMR469      0.1646
      8  N5       -30.6670  -57.8540    9.7820 N.am  469  ZMR469     -0.2010
      9  C10      -30.6130  -59.1750    9.5620 C.2   469  ZMR469      0.2420
     10  O10      -30.5210  -59.6830    8.4570 O.2   469  ZMR469     -0.2733
     11  C11      -30.6470  -60.0450   10.7880 C.3   469  ZMR469      0.0964
     12  C6       -31.6650  -55.8090    8.8240 C.3   469  ZMR469      0.1719
     13  O6       -31.5720  -54.8710    7.7500 O.3   469  ZMR469     -0.3429
     14  C7       -33.0480  -56.4220    8.6780 C.3   469  ZMR469      0.2135
     15  O7       -33.1590  -56.9510    7.3560 O.3   469  ZMR469     -0.2176
     16  C8       -34.1360  -55.3580    8.8770 C.3   469  ZMR469      0.2173
     17  O8       -33.9750  -54.7610   10.1730 O.3   469  ZMR469     -0.2175
     18  C9       -35.5350  -55.9600    8.7550 C.3   469  ZMR469      0.2175
     19  O9       -35.8070  -56.7910    9.8930 O.3   469  ZMR469     -0.2175
     20  NE       -28.1980  -57.1930    8.6160 N.pl3 469  ZMR469     -0.0882
     21  CZ       -27.5560  -57.8760    9.4720 C.cat 469  ZMR469      0.5345
     22  NH1      -27.6800  -57.6790   10.7820 N.pl3 469  ZMR469      0.1354
     23  NH2      -26.7290  -58.8360    9.0330 N.pl3 469  ZMR469      0.1354
@<TRIPOS>BOND
     1     3     1   ar
     2     2     1   ar
     3     1     4    1
     4    15    14    1
     5     4    13    1
     6     4     5    1
     7    13    12    1
     8     5     6    1
     9    10     9    2
    10    20     6    1
    11    20    21    2
    12    14    12    1
    13    14    16    1
    14     7    12    1
    15     7     6    1
    16     7     8    1
    17    18    16    1
    18    18    19    1
    19    16    17    1
    20    23    21    1
    21    21    22    1
    22     9     8   am
    23     9    11    1
