@<TRIPOS>MOLECULE
3cl0_G39_A_1.pdb
 20 20 0 0 0
SMALL
GASTEIGER

@<TRIPOS>ATOM
      1  C1       -30.3740  -53.1430    6.1220 C.2   800  G39800      0.3644
      2  O1A      -31.4390  -52.5330    5.8500 O.co2 800  G39800     -0.2457
      3  O1B      -29.2570  -52.6250    5.8790 O.co2 800  G39800     -0.2457
      4  C2       -30.4370  -54.4860    6.7250 C.3   800  G39800      0.1074
      5  C3       -29.1590  -55.1880    7.1320 C.3   800  G39800      0.0322
      6  C4       -29.3800  -56.1620    8.2940 C.3   800  G39800      0.1146
      7  C5       -30.6270  -57.0330    8.0970 C.3   800  G39800      0.1398
      8  N5       -30.8030  -57.9550    9.2060 N.am  800  G39800     -0.2032
      9  C10      -30.6830  -59.2830    9.0870 C.2   800  G39800      0.2419
     10  O10      -30.6290  -59.8630    8.0100 O.2   800  G39800     -0.2733
     11  C11      -30.6110  -60.0400   10.3800 C.3   800  G39800      0.0964
     12  C6       -31.8830  -56.1780    7.9370 C.3   800  G39800      0.1369
     13  C7       -31.6320  -55.0930    6.9010 C.3   800  G39800      0.0427
     14  O7       -33.0070  -56.9890    7.5310 O.3   800  G39800     -0.3569
     15  C8       -34.1580  -56.9050    8.3980 C.3   800  G39800      0.1152
     16  C9       -34.8790  -55.5530    8.2830 C.3   800  G39800      0.0296
     17  C81      -35.1530  -58.0200    8.0790 C.3   800  G39800      0.0296
     18  C82      -34.6540  -59.3950    8.4670 C.3   800  G39800      0.0026
     19  C91      -35.4250  -55.2790    6.8910 C.3   800  G39800      0.0026
     20  N4       -28.1950  -56.9940    8.4300 N.3   800  G39800     -0.1310
@<TRIPOS>BOND
     1     2     1   ar
     2     3     1   ar
     3     1     4    1
     4     4    13    1
     5     4     5    1
     6    19    16    1
     7    13    12    1
     8     5     6    1
     9    14    12    1
    10    14    15    1
    11    12     7    1
    12    10     9    2
    13    17    15    1
    14    17    18    1
    15     7     6    1
    16     7     8    1
    17    16    15    1
    18     6    20    1
    19     9     8   am
    20     9    11    1
