@<TRIPOS>MOLECULE
3cl1_PCG_A_1.pdb
 23 26 0 0 0
SMALL
GASTEIGER

@<TRIPOS>ATOM
      1  PA        -4.8650   88.8970   11.4880 P.3   402  PCG402      0.2141
      2  O1A       -5.1550   90.3740   11.6120 O.2   402  PCG402     -0.5172
      3  O2A       -4.9860   88.0350   12.7160 O.3   402  PCG402     -0.4373
      4  O5'       -5.8380   88.2580   10.3420 O.3   402  PCG402     -0.3114
      5  C5'       -5.6770   88.5780    8.9520 C.3   402  PCG402      0.1812
      6  C4'       -4.2160   88.3040    8.6190 C.3   402  PCG402      0.1771
      7  O4'       -3.7690   88.6320    7.3060 O.3   402  PCG402     -0.3327
      8  C3'       -3.2550   89.0850    9.4960 C.3   402  PCG402      0.1857
      9  O3'       -3.4020   88.6590   10.8530 O.3   402  PCG402     -0.3112
     10  C2'       -1.9330   88.7940    8.8130 C.3   402  PCG402      0.2282
     11  O2'       -1.3320   87.6110    9.3620 O.3   402  PCG402     -0.2159
     12  C1'       -2.3450   88.5530    7.3590 C.3   402  PCG402      0.2292
     13  N9        -1.7710   89.6140    6.5030 N.pl3 402  PCG402     -0.2354
     14  C8        -0.8800   89.4320    5.5170 C.3   402  PCG402      0.2246
     15  N7        -0.5520   90.6090    4.9440 N.2   402  PCG402     -0.2322
     16  C5        -1.2490   91.5690    5.5640 C.2   402  PCG402      0.2182
     17  C6        -1.3740   93.0370    5.4520 C.1   402  PCG402      0.2372
     18  O6        -0.7130   93.6550    4.5930 O.2   402  PCG402     -0.2069
     19  N1        -2.2150   93.6660    6.2900 N.2   402  PCG402     -0.2485
     20  C2        -2.9330   93.0000    7.2190 C.1   402  PCG402      0.2531
     21  N2        -3.7560   93.6840    8.0430 N.pl3 402  PCG402     -0.0226
     22  N3        -2.8630   91.6590    7.3760 N.2   402  PCG402     -0.3074
     23  C4        -2.0540   90.9110    6.5920 C.2   402  PCG402      0.2300
@<TRIPOS>BOND
     1    18    17    2
     2    15    14    1
     3    15    16    2
     4    17    16    1
     5    17    19    2
     6    14    13    1
     7    16    23    1
     8    19    20    2
     9    13    23    1
    10    13    12    1
    11    23    22    2
    12    20    22    2
    13    20    21    1
    14     7    12    1
    15     7     6    1
    16    12    10    1
    17     6     5    1
    18     6     8    1
    19    10    11    1
    20    10     8    1
    21     5     4    1
    22     8     9    1
    23     4     1    1
    24     9     1    1
    25     1     2    2
    26     1     3    1
