@<TRIPOS>MOLECULE
3cl2_G39_A_1.pdb
 20 20 0 0 0
SMALL
GASTEIGER

@<TRIPOS>ATOM
      1  C1      -127.9340  -36.5950   30.9200 C.2   800  G39800      0.3644
      2  O1A     -128.1440  -36.3380   32.0640 O.co2 800  G39800     -0.2457
      3  O1B     -128.3390  -35.8730   30.0600 O.co2 800  G39800     -0.2457
      4  C2      -126.9690  -37.7510   30.6080 C.3   800  G39800      0.1074
      5  C3      -126.7790  -38.2760   29.1590 C.3   800  G39800      0.0322
      6  C4      -125.3480  -38.7740   28.9930 C.3   800  G39800      0.1146
      7  C5      -125.1040  -39.8570   30.0320 C.3   800  G39800      0.1398
      8  N5      -123.7790  -40.4090   29.7800 N.am  800  G39800     -0.2032
      9  C10     -123.6830  -41.8020   29.3430 C.2   800  G39800      0.2419
     10  O10     -124.6500  -42.4800   29.2560 O.2   800  G39800     -0.2733
     11  C11     -122.2970  -42.4190   29.1380 C.3   800  G39800      0.0964
     12  C6      -125.1210  -39.2780   31.4450 C.3   800  G39800      0.1369
     13  C7      -126.3390  -38.3470   31.6500 C.3   800  G39800      0.0427
     14  O7      -125.2100  -40.3050   32.4160 O.3   800  G39800     -0.3569
     15  C8      -124.0580  -40.5420   33.1840 C.3   800  G39800      0.1152
     16  C9      -123.6930  -39.3150   34.0410 C.3   800  G39800      0.0296
     17  C81     -124.2280  -41.8420   34.0110 C.3   800  G39800      0.0296
     18  C82     -124.1550  -43.0580   33.0630 C.3   800  G39800      0.0026
     19  C91     -124.7630  -39.1010   35.1260 C.3   800  G39800      0.0026
     20  N4      -125.1470  -39.3370   27.6390 N.3   800  G39800     -0.1310
@<TRIPOS>BOND
     1    20     6    1
     2     6     5    1
     3     6     7    1
     4    11     9    1
     5     5     4    1
     6    10     9    2
     7     9     8   am
     8     8     7    1
     9     7    12    1
    10     3     1   ar
    11     4     1    1
    12     4    13    1
    13     1     2   ar
    14    12    13    1
    15    12    14    1
    16    14    15    1
    17    18    17    1
    18    15    17    1
    19    15    16    1
    20    16    19    1
