@<TRIPOS>MOLECULE
3cl5_SIO_A_1.pdb
 28 28 0 0 0
SMALL
GASTEIGER

@<TRIPOS>ATOM
      1  OA4       18.3300    8.2960   19.9340 O.2     1  SIO1       -0.2501
      2  CA4       19.4940    8.4170   19.5880 C.2     1  SIO1        0.3175
      3  CM4       20.5920    8.7110   20.5530 C.3     1  SIO1        0.1212
      4  O4        19.7960    8.2690   18.1810 O.3     1  SIO1       -0.4502
      5  C4        21.1780    8.4260   17.8430 C.3     1  SIO1        0.1965
      6  C5        21.3850    9.7230   17.0490 C.3     1  SIO1        0.1650
      7  N5        21.3580   10.7750   18.0630 N.am    1  SIO1       -0.2009
      8  C10       20.2470   11.4710   18.2680 C.2     1  SIO1        0.2420
      9  O10       19.2430   11.2890   17.5940 O.2     1  SIO1       -0.2733
     10  C11       20.3030   12.5170   19.3580 C.3     1  SIO1        0.0964
     11  C3        21.5970    7.1880   17.0510 C.3     1  SIO1        0.1135
     12  C2        22.9240    7.3330   16.3040 C.3     1  SIO1        0.2874
     13  O2        23.0320    6.2650   15.3630 O.3     1  SIO1       -0.3232
     14  CM2       24.0760    6.5160   14.4450 C.3     1  SIO1        0.1772
     15  C1        24.0780    7.2650   17.2840 C.2     1  SIO1        0.4152
     16  O1        23.9070    6.6420   18.3500 O.co2   1  SIO1       -0.2402
     17  O3        25.1680    7.8230   16.9980 O.co2   1  SIO1       -0.2402
     18  O6        22.9340    8.5670   15.5790 O.3     1  SIO1       -0.3238
     19  C6        22.7610    9.7370   16.3770 C.3     1  SIO1        0.1744
     20  C7        22.9700   10.8900   15.4220 C.3     1  SIO1        0.2147
     21  O7        21.8380   11.0080   14.5650 O.3     1  SIO1       -0.2176
     22  C8        24.2070   10.6400   14.5830 C.3     1  SIO1        0.2280
     23  O8        25.2550   10.2460   15.4740 O.3     1  SIO1       -0.2163
     24  C9        24.6170   11.8930   13.8280 C.3     1  SIO1        0.2438
     25  O9        24.8030   12.9270   14.7960 O.3     1  SIO1       -0.4456
     26  CA9       25.1810   14.2570   14.3710 C.2     1  SIO1        0.3176
     27  OA9       25.1420   14.5010   13.1650 O.2     1  SIO1       -0.2501
     28  CM9       25.5870   15.2520   15.4360 C.3     1  SIO1        0.1212
@<TRIPOS>BOND
     1    27    26    2
     2    24    22    1
     3    24    25    1
     4    26    25    1
     5    26    28    1
     6    14    13    1
     7    21    20    1
     8    22    20    1
     9    22    23    1
    10    13    12    1
    11    20    19    1
    12    18    12    1
    13    18    19    1
    14    12    11    1
    15    12    15    1
    16    19     6    1
    17    17    15   ar
    18     6     5    1
    19     6     7    1
    20    11     5    1
    21    15    16   ar
    22     9     8    2
    23     5     4    1
    24     7     8   am
    25     4     2    1
    26     8    10    1
    27     2     1    2
    28     2     3    1
