@<TRIPOS>MOLECULE
3cl9_MTX_A_1.pdb
 33 35 0 0 0
SMALL
GASTEIGER

@<TRIPOS>ATOM
      1  N1       -38.5180    5.5660   -8.8550 N.2   602  MTX602     -0.2684
      2  C2       -37.3380    5.3280   -8.1880 C.1   602  MTX602      0.2519
      3  NA2      -36.5940    4.2820   -8.5170 N.pl3 602  MTX602     -0.0226
      4  N3       -36.9280    6.1700   -7.1780 N.2   602  MTX602     -0.3033
      5  C4       -37.6790    7.2690   -6.8260 C.2   602  MTX602      0.2728
      6  NA4      -37.0380    8.3040   -6.2940 N.pl3 602  MTX602     -0.0887
      7  C4A      -38.8730    7.5100   -7.4950 C.2   602  MTX602      0.2518
      8  N5       -39.6490    8.6020   -7.1570 N.2   602  MTX602     -0.3917
      9  C6       -40.8430    8.8590   -7.8110 C.2   602  MTX602      0.1330
     10  C7       -41.2560    8.0000   -8.8360 C.3   602  MTX602      0.1930
     11  N8       -40.4810    6.9050   -9.1810 N.2   602  MTX602     -0.1998
     12  C8A      -39.2910    6.6570   -8.5150 C.1   602  MTX602      0.1314
     13  C9       -41.6450   10.0820   -7.3860 C.3   602  MTX602      0.1481
     14  N10      -43.0360   10.1080   -7.8270 N.pl3 602  MTX602     -0.2999
     15  CM       -43.4320   11.0820   -8.8570 C.3   602  MTX602      0.1125
     16  C11      -45.7130    7.0780   -6.7320 C.ar  602  MTX602      0.0551
     17  C12      -45.7420    7.6030   -8.0190 C.ar  602  MTX602      0.0058
     18  C13      -44.8530    8.6070   -8.3760 C.ar  602  MTX602      0.0147
     19  C14      -43.9440    9.0880   -7.4430 C.ar  602  MTX602      0.0482
     20  C15      -43.9160    8.5620   -6.1560 C.ar  602  MTX602      0.0147
     21  C16      -44.8750    7.6350   -5.7730 C.ar  602  MTX602      0.0058
     22  C        -46.6760    5.9930   -6.3630 C.2   602  MTX602      0.2652
     23  O        -47.5920    5.5300   -7.3390 O.2   602  MTX602     -0.2684
     24  N        -46.6230    5.5130   -5.1210 N.am  602  MTX602     -0.1918
     25  CA       -47.0040    4.1700   -4.7310 C.3   602  MTX602      0.1986
     26  CT       -46.3150    3.7300   -3.4800 C.2   602  MTX602      0.3842
     27  O1       -45.1560    4.1190   -3.2030 O.co2 602  MTX602     -0.2437
     28  O2       -46.9070    2.9430   -2.7100 O.co2 602  MTX602     -0.2437
     29  CB       -46.6380    3.1510   -5.7910 C.3   602  MTX602      0.0451
     30  CG       -47.7020    2.0670   -5.8700 C.3   602  MTX602      0.1164
     31  CD       -47.5880    1.4800   -7.2470 C.2   602  MTX602      0.3649
     32  OE1      -47.7970    2.1900   -8.2610 O.co2 602  MTX602     -0.2457
     33  OE2      -47.2610    0.2810   -7.3770 O.co2 602  MTX602     -0.2457
@<TRIPOS>BOND
     1    11    10    1
     2    11    12    2
     3    15    14    1
     4     1    12    2
     5     1     2    2
     6    10     9    1
     7     3     2    1
     8    12     7    1
     9    18    17   ar
    10    18    19   ar
    11    32    31   ar
    12     2     4    2
    13    17    16   ar
    14    14    19    1
    15    14    13    1
    16     9    13    1
    17     9     8    2
    18     7     8    2
    19     7     5    1
    20    19    20   ar
    21    33    31   ar
    22    23    22    2
    23    31    30    1
    24     4     5    2
    25     5     6    1
    26    16    22    1
    27    16    21   ar
    28    22    24   am
    29    20    21   ar
    30    30    29    1
    31    29    25    1
    32    24    25    1
    33    25    26    1
    34    26    27   ar
    35    26    28   ar
