@<TRIPOS>MOLECULE
3cl9_UMP_A_1.pdb
 20 21 0 0 0
SMALL
GASTEIGER

@<TRIPOS>ATOM
      1  N1       -11.3090  -11.4330   26.3040 N.am  603  UMP603     -0.1790
      2  C2       -11.2910  -10.3790   25.3560 C.1   603  UMP603      0.2844
      3  N3       -11.7840   -9.1290   25.7280 N.2   603  UMP603     -0.2452
      4  C4       -12.2920   -8.9050   27.0080 C.1   603  UMP603      0.2182
      5  C5       -12.3170   -9.9470   27.9400 C.2   603  UMP603      0.1242
      6  C6       -11.8280  -11.1980   27.5650 C.2   603  UMP603      0.0928
      7  O2       -10.8550  -10.4910   24.1970 O.2   603  UMP603     -0.1918
      8  O4       -12.7220   -7.7890   27.3210 O.2   603  UMP603     -0.2085
      9  C1'      -10.8190  -12.8270   26.0650 C.3   603  UMP603      0.2090
     10  C2'       -9.6670  -12.9660   25.0680 C.3   603  UMP603      0.0874
     11  C3'       -8.7390  -13.9900   25.6950 C.3   603  UMP603      0.1857
     12  C4'       -9.0650  -13.9880   27.1810 C.3   603  UMP603      0.1774
     13  O3'       -8.9990  -15.2650   25.1480 O.3   603  UMP603     -0.2203
     14  O4'      -10.3370  -13.3640   27.2960 O.3   603  UMP603     -0.3339
     15  C5'       -8.0080  -13.2470   28.0080 C.3   603  UMP603      0.1858
     16  O5'       -7.7150  -13.9230   29.2150 O.3   603  UMP603     -0.2675
     17  P         -6.3230  -14.6880   29.4450 P.3   603  UMP603      0.5327
     18  OP1       -5.9450  -15.3460   28.1530 O.2   603  UMP603     -0.2224
     19  OP2       -6.5320  -15.7110   30.5180 O.3   603  UMP603     -0.1145
     20  OP3       -5.2110  -13.8160   29.8590 O.3   603  UMP603     -0.1145
@<TRIPOS>BOND
     1     7     2    2
     2    10    11    1
     3    10     9    1
     4    13    11    1
     5     2     3    2
     6     2     1   am
     7    11    12    1
     8     3     4    2
     9     9     1    1
    10     9    14    1
    11     1     6    1
    12     4     8    2
    13     4     5    1
    14    12    14    1
    15    12    15    1
    16     6     5    2
    17    15    16    1
    18    18    17    2
    19    16    17    1
    20    17    20    1
    21    17    19    1
