@<TRIPOS>MOLECULE
3cl9_NAP_A_1.pdb
 48 52 0 0 0
SMALL
GASTEIGER

@<TRIPOS>ATOM
      1  PA       -38.7950   18.5730   -5.4520 P.3   601  NAP601      0.2189
      2  O1A      -40.0360   17.8500   -5.1050 O.2   601  NAP601     -0.5170
      3  O2A      -37.6570   17.9980   -4.7080 O.3   601  NAP601     -0.4371
      4  O5B      -38.9730   20.1510   -5.1410 O.3   601  NAP601     -0.3112
      5  C5B      -38.2400   20.8280   -4.1330 C.3   601  NAP601      0.1813
      6  C4B      -39.1810   21.6170   -3.2220 C.3   601  NAP601      0.1820
      7  O4B      -39.0680   21.2030   -1.8630 O.3   601  NAP601     -0.3136
      8  C3B      -38.9180   23.1180   -3.2330 C.3   601  NAP601      0.2157
      9  O3B      -39.6000   23.7620   -4.2850 O.3   601  NAP601     -0.2175
     10  C2B      -39.3720   23.5570   -1.8460 C.3   601  NAP601      0.2314
     11  O2B      -40.7520   23.9160   -1.7950 O.3   601  NAP601     -0.2630
     12  C1B      -39.0730   22.3190   -0.9870 C.3   601  NAP601      0.3158
     13  N9A      -37.7330   22.5340   -0.3890 N.pl3 601  NAP601     -0.1439
     14  C8A      -36.5510   22.0070   -0.8500 C.3   601  NAP601      0.3377
     15  N7A      -35.5360   22.4500   -0.0720 N.2   601  NAP601     -0.2095
     16  C5A      -36.0430   23.2620    0.8820 C.2   601  NAP601      0.2526
     17  C6A      -35.4460   23.9730    1.9210 C.2   601  NAP601      0.4393
     18  N6A      -34.1280   23.9090    2.0990 N.pl3 601  NAP601      0.2180
     19  N1A      -36.2300   24.7440    2.7640 N.2   601  NAP601      0.0021
     20  C2A      -37.5980   24.8060    2.5700 C.3   601  NAP601      0.5254
     21  N3A      -38.1810   24.0950    1.5350 N.2   601  NAP601     -0.0055
     22  C4A      -37.4240   23.3310    0.6980 C.2   601  NAP601      0.3518
     23  O3       -38.5340   18.4920   -7.0410 O.3   601  NAP601     -0.2703
     24  PN       -37.4180   19.1900   -7.9710 P.3   601  NAP601      0.2189
     25  O1N      -37.6650   20.6470   -7.9910 O.2   601  NAP601     -0.5170
     26  O2N      -36.0800   18.7460   -7.5340 O.3   601  NAP601     -0.4371
     27  O5D      -37.7360   18.5430   -9.4210 O.3   601  NAP601     -0.3112
     28  C5D      -37.1560   17.3250   -9.8650 C.3   601  NAP601      0.1813
     29  C4D      -38.1910   16.4160  -10.5340 C.3   601  NAP601      0.1799
     30  O4D      -37.6640   15.1140  -10.7750 O.3   601  NAP601     -0.3327
     31  C3D      -39.4410   16.2370   -9.6780 C.3   601  NAP601      0.2158
     32  O3D      -40.4880   17.0440  -10.1670 O.3   601  NAP601     -0.2175
     33  C2D      -39.7730   14.7490   -9.7250 C.3   601  NAP601      0.2309
     34  O2D      -41.0240   14.4520  -10.3190 O.3   601  NAP601     -0.2158
     35  C1D      -38.6210   14.0920  -10.4920 C.3   601  NAP601      0.2263
     36  N1N      -38.0690   12.9410   -9.7110 N.pl3 601  NAP601     -0.2787
     37  C2N      -37.2860   11.9730  -10.3130 C.3   601  NAP601      0.1244
     38  C3N      -36.7830   10.8800   -9.5830 C.2   601  NAP601      0.0544
     39  C7N      -36.4880    9.5690  -10.2700 C.2   601  NAP601      0.2818
     40  O7N      -36.5050    8.3820   -9.5110 O.2   601  NAP601     -0.2670
     41  N7N      -36.2160    9.5320  -11.5730 N.am  601  NAP601     -0.0839
     42  C4N      -37.0840   10.8030   -8.2240 C.2   601  NAP601      0.0033
     43  C5N      -37.8790   11.7670   -7.6180 C.2   601  NAP601      0.0157
     44  C6N      -38.3640   12.8290   -8.3700 C.2   601  NAP601      0.0633
     45  P2B      -41.3340   25.3660   -1.3450 P.3   601  NAP601      0.5328
     46  O1X      -42.6570   25.1490   -0.6540 O.3   601  NAP601     -0.1145
     47  O2X      -40.3960   26.0920   -0.4100 O.3   601  NAP601     -0.1145
     48  O3X      -41.5530   26.2290   -2.5600 O.2   601  NAP601     -0.2224
@<TRIPOS>BOND
     1    41    39   am
     2    30    29    1
     3    30    35    1
     4    29    28    1
     5    29    31    1
     6    35    33    1
     7    35    36    1
     8    34    33    1
     9    37    36    1
    10    37    38    1
    11    39    38    1
    12    39    40    2
    13    32    31    1
    14    28    27    1
    15    33    31    1
    16    36    44    1
    17    38    42    2
    18    27    24    1
    19    44    43    2
    20    42    43    1
    21    25    24    2
    22    24    26    1
    23    24    23    1
    24    23     1    1
    25     1     4    1
    26     1     2    2
    27     1     3    1
    28     4     5    1
    29     9     8    1
    30     5     6    1
    31     8     6    1
    32     8    10    1
    33     6     7    1
    34    48    45    2
    35     7    12    1
    36    10    11    1
    37    10    12    1
    38    11    45    1
    39    45    46    1
    40    45    47    1
    41    12    13    1
    42    14    13    1
    43    14    15    1
    44    13    22    1
    45    15    16    2
    46    22    16    1
    47    22    21    2
    48    16    17    1
    49    21    20    1
    50    17    18    1
    51    17    19    2
    52    20    19    1
