@<TRIPOS>MOLECULE
3cla_CLM_A_1.pdb
 20 20 0 0 0
SMALL
GASTEIGER

@<TRIPOS>ATOM
      1  C1         1.1530   17.1150   14.2980 C.3   221  CLM221      0.2356
      2 CL1         2.0330   16.7450   12.8850 Cl    221  CLM221     -0.0870
      3 CL2         0.2160   18.5650   13.9090 Cl    221  CLM221     -0.0870
      4  C2         0.0530   15.9770   14.4550 C.2   221  CLM221      0.2720
      5  O2        -0.5480   15.6040   13.4830 O.2   221  CLM221     -0.2706
      6  N2        -0.1030   15.6330   15.7220 N.am  221  CLM221     -0.1994
      7  C3        -1.0030   14.5950   16.2060 C.3   221  CLM221      0.1626
      8  C4        -1.8980   15.1400   17.3060 C.3   221  CLM221      0.2065
      9  O4        -2.7310   14.0060   17.7680 O.3   221  CLM221     -0.2184
     10  C5        -0.2520   13.3100   16.5310 C.3   221  CLM221      0.1966
     11  O5         0.5870   13.5500   17.6550 O.3   221  CLM221     -0.2163
     12  C6         0.5950   12.9620   15.3460 C.ar  221  CLM221      0.0096
     13  C7        -0.0480   12.1220   14.3530 C.ar  221  CLM221     -0.0001
     14  C8         0.6680   11.6280   13.2930 C.ar  221  CLM221      0.0238
     15  C9         1.9570   11.9390   13.2140 C.ar  221  CLM221      0.1429
     16  N9         2.8370   11.5150   12.1000 N.pl3 221  CLM221      0.0577
     17  O9A        3.8700   12.0930   11.9320 O.2   221  CLM221     -0.1261
     18  O9B        2.4200   10.5890   11.4030 O.2   221  CLM221     -0.1261
     19  C10        2.6230   12.8200   14.1060 C.ar  221  CLM221      0.0238
     20  C11        1.9290   13.2890   15.2080 C.ar  221  CLM221     -0.0001
@<TRIPOS>BOND
     1    18    16    2
     2    17    16    2
     3    16    15    1
     4     2     1    1
     5    15    14   ar
     6    15    19   ar
     7    14    13   ar
     8     5     4    2
     9     3     1    1
    10    19    20   ar
    11     1     4    1
    12    13    12   ar
    13     4     6   am
    14    20    12   ar
    15    12    10    1
    16     6     7    1
    17     7    10    1
    18     7     8    1
    19    10    11    1
    20     8     9    1
