@<TRIPOS>MOLECULE
3clb_TMQ_A_1.pdb
 27 29 0 0 0
SMALL
GASTEIGER

@<TRIPOS>ATOM
      1  N1        22.9050   35.0330   24.2520 N.2   611  TMQ611     -0.3298
      2  C2        23.3370   34.1810   25.1780 C.1   611  TMQ611      0.2424
      3  N3        24.0560   34.6250   26.2250 N.2   611  TMQ611     -0.3073
      4  C4        24.3480   35.9340   26.3490 C.2   611  TMQ611      0.2346
      5  C3A       23.1650   36.3440   24.3290 C.2   611  TMQ611      0.1305
      6  C4A       23.9080   36.8740   25.3910 C.2   611  TMQ611      0.0704
      7  C5        24.1500   38.2710   25.4190 C.2   611  TMQ611     -0.0184
      8  C6        23.6390   39.0840   24.3830 C.2   611  TMQ611     -0.0083
      9  C7        22.9160   38.5110   23.3430 C.2   611  TMQ611     -0.0215
     10  C8        22.6750   37.1520   23.3160 C.3   611  TMQ611      0.0858
     11  C9        23.8480   40.4740   24.2750 C.3   611  TMQ611      0.1379
     12  N10       23.0530   41.2860   25.1790 N.pl3 611  TMQ611     -0.2326
     13  C11       21.8240   41.7490   24.9220 C.ar  611  TMQ611      0.0719
     14  C12       20.8060   41.2720   25.7430 C.ar  611  TMQ611      0.0563
     15  C13       19.5070   41.7270   25.5740 C.ar  611  TMQ611      0.1767
     16  C14       19.2270   42.6580   24.5700 C.ar  611  TMQ611      0.2061
     17  C15       20.2390   43.1530   23.7440 C.ar  611  TMQ611      0.1767
     18  C16       21.5580   42.7010   23.9240 C.ar  611  TMQ611      0.0563
     19  C17       24.8690   38.8600   26.4590 C.3   611  TMQ611      0.0309
     20  O18       18.4690   41.2830   26.3450 O.3   611  TMQ611     -0.4682
     21  O19       17.9460   43.1140   24.4040 O.3   611  TMQ611     -0.4654
     22  O20       19.8670   44.0760   22.7980 O.3   611  TMQ611     -0.4682
     23  C21       18.8840   40.4160   27.4350 C.3   611  TMQ611      0.2526
     24  C22       17.0780   42.2520   23.6280 C.3   611  TMQ611      0.2528
     25  C23       19.8040   43.5380   21.4640 C.3   611  TMQ611      0.2526
     26  N24       23.0370   32.8950   25.0360 N.pl3 611  TMQ611     -0.0232
     27  N25       25.0590   36.3540   27.3910 N.pl3 611  TMQ611     -0.0921
@<TRIPOS>BOND
     1    25    22    1
     2    22    17    1
     3    10     9    1
     4    10     5    1
     5     9     8    2
     6    24    21    1
     7    17    18   ar
     8    17    16   ar
     9    18    13   ar
    10     1     5    2
    11     1     2    2
    12    11     8    1
    13    11    12    1
    14     5     6    1
    15     8     7    1
    16    21    16    1
    17    16    15   ar
    18    13    12    1
    19    13    14   ar
    20    26     2    1
    21     2     3    2
    22     6     7    2
    23     6     4    1
    24     7    19    1
    25    15    14   ar
    26    15    20    1
    27     3     4    2
    28    20    23    1
    29     4    27    1
