@<TRIPOS>MOLECULE
3clb_NAP_A_1.pdb
 48 52 0 0 0
SMALL
GASTEIGER

@<TRIPOS>ATOM
      1  PA        33.1780   43.3950   27.5660 P.3   601  NAP601      0.2189
      2  O1A       31.7090   43.2590   27.6460 O.2   601  NAP601     -0.5170
      3  O2A       33.8770   42.2340   28.1540 O.3   601  NAP601     -0.4371
      4  O5B       33.6000   44.7370   28.3220 O.3   601  NAP601     -0.3112
      5  C5B       34.9550   45.0670   28.5100 C.3   601  NAP601      0.1813
      6  C4B       34.9230   46.1740   29.5460 C.3   601  NAP601      0.1820
      7  O4B       34.5040   45.6790   30.8150 O.3   601  NAP601     -0.3136
      8  C3B       36.2710   46.8380   29.7650 C.3   601  NAP601      0.2157
      9  O3B       36.5440   47.8270   28.8020 O.3   601  NAP601     -0.2175
     10  C2B       36.0520   47.3970   31.1550 C.3   601  NAP601      0.2314
     11  O2B       35.2450   48.5540   31.1010 O.3   601  NAP601     -0.2630
     12  C1B       35.2710   46.2790   31.8450 C.3   601  NAP601      0.3158
     13  N9A       36.2610   45.3510   32.4290 N.pl3 601  NAP601     -0.1439
     14  C8A       36.6100   44.1090   31.9560 C.3   601  NAP601      0.3377
     15  N7A       37.5720   43.5910   32.7500 N.2   601  NAP601     -0.2095
     16  C5A       37.8490   44.4850   33.7210 C.2   601  NAP601      0.2526
     17  C6A       38.7410   44.4570   34.7840 C.2   601  NAP601      0.4393
     18  N6A       39.5140   43.3920   34.9620 N.pl3 601  NAP601      0.2180
     19  N1A       38.8120   45.5390   35.6440 N.2   601  NAP601      0.0021
     20  C2A       38.0000   46.6430   35.4440 C.3   601  NAP601      0.5254
     21  N3A       37.1120   46.6630   34.3830 N.2   601  NAP601     -0.0055
     22  C4A       37.0370   45.6010   33.5350 C.2   601  NAP601      0.3518
     23  O3        33.6490   43.7280   26.0690 O.3   601  NAP601     -0.2703
     24  PN        34.4990   42.9110   24.9780 P.3   601  NAP601      0.2189
     25  O1N       35.1040   43.8980   24.0520 O.2   601  NAP601     -0.5170
     26  O2N       35.3670   41.9320   25.6690 O.3   601  NAP601     -0.4371
     27  O5D       33.3250   42.1300   24.1860 O.3   601  NAP601     -0.3112
     28  C5D       32.1600   42.8160   23.7630 C.3   601  NAP601      0.1813
     29  C4D       31.4620   42.0740   22.6240 C.3   601  NAP601      0.1799
     30  O4D       30.9820   40.8130   23.0650 O.3   601  NAP601     -0.3327
     31  C3D       30.2490   42.8330   22.1000 C.3   601  NAP601      0.2158
     32  O3D       30.2500   42.7150   20.6970 O.3   601  NAP601     -0.2175
     33  C2D       29.0550   42.0900   22.6660 C.3   601  NAP601      0.2309
     34  O2D       27.9190   42.1620   21.8380 O.3   601  NAP601     -0.2158
     35  C1D       29.6100   40.6760   22.7130 C.3   601  NAP601      0.2263
     36  N1N       28.8900   39.7740   23.6280 N.pl3 601  NAP601     -0.2787
     37  C2N       28.4840   38.5760   23.1090 C.3   601  NAP601      0.1244
     38  C3N       27.7990   37.6460   23.8890 C.2   601  NAP601      0.0544
     39  C7N       27.3120   36.3590   23.2750 C.2   601  NAP601      0.2818
     40  O7N       26.8500   35.3280   24.1050 O.2   601  NAP601     -0.2670
     41  N7N       27.3290   36.2040   21.9550 N.am  601  NAP601     -0.0839
     42  C4N       27.5550   37.9550   25.2270 C.2   601  NAP601      0.0033
     43  C5N       27.9790   39.1810   25.7510 C.2   601  NAP601      0.0157
     44  C6N       28.6520   40.0900   24.9400 C.2   601  NAP601      0.0633
     45  P2B       35.8720   50.0010   31.3790 P.3   601  NAP601      0.5328
     46  O1X       34.7440   50.9210   31.7810 O.3   601  NAP601     -0.1145
     47  O2X       36.8650   49.8950   32.5170 O.3   601  NAP601     -0.1145
     48  O3X       36.5490   50.4850   30.1190 O.2   601  NAP601     -0.2224
@<TRIPOS>BOND
     1    32    31    1
     2    34    33    1
     3    41    39   am
     4    31    29    1
     5    31    33    1
     6    29    30    1
     7    29    28    1
     8    33    35    1
     9    35    30    1
    10    35    36    1
    11    37    36    1
    12    37    38    1
    13    39    38    1
    14    39    40    2
    15    36    44    1
    16    28    27    1
    17    38    42    2
    18    25    24    2
    19    27    24    1
    20    44    43    2
    21    24    26    1
    22    24    23    1
    23    42    43    1
    24    23     1    1
    25     1     2    2
    26     1     3    1
    27     1     4    1
    28     4     5    1
    29     5     6    1
    30     9     8    1
    31     6     8    1
    32     6     7    1
    33     8    10    1
    34    48    45    2
    35     7    12    1
    36    11    10    1
    37    11    45    1
    38    10    12    1
    39    45    46    1
    40    45    47    1
    41    12    13    1
    42    14    13    1
    43    14    15    1
    44    13    22    1
    45    15    16    2
    46    22    16    1
    47    22    21    2
    48    16    17    1
    49    21    20    1
    50    17    18    1
    51    17    19    2
    52    20    19    1
