@<TRIPOS>MOLECULE
3cld_GW6_A_1.pdb
 37 41 0 0 0
SMALL
GASTEIGER

@<TRIPOS>ATOM
      1  C1        31.7240    9.5090    7.9180 C.3     1  GW61        0.0041
      2  C2        31.7410    8.2170    7.1300 C.3     1  GW61        0.0445
      3  C3        32.8200    8.2550    6.0620 C.3     1  GW61        0.0041
      4  C4        32.0330    8.0390    4.7820 C.3     1  GW61        0.0066
      5  C5        32.7770    7.6030    3.5360 C.3     1  GW61        0.0363
      6  C6        33.7920    8.6680    3.1790 C.3     1  GW61        0.0423
      7  C7        34.4910    8.3100    1.8880 C.3     1  GW61        0.1799
      8  F1        35.2800    9.3500    1.5080 F       1  GW61       -0.2328
      9  C8        33.5160    7.9730    0.8080 C.2     1  GW61       -0.0034
     10  C9        33.5900    8.6300   -0.3470 C.2     1  GW61        0.0365
     11  C10       32.6390    8.2940   -1.4100 C.2     1  GW61        0.1949
     12  O1        32.7500    8.8120   -2.5080 O.2     1  GW61       -0.2866
     13  C11       31.5580    7.3320   -1.1560 C.2     1  GW61        0.0378
     14  C12       31.5440    6.7280    0.0270 C.2     1  GW61       -0.0170
     15  C13       32.5150    6.9210    1.1180 C.3     1  GW61        0.0663
     16  C14       33.2060    5.5870    1.2920 C.3     1  GW61        0.0113
     17  C15       31.7960    7.4080    2.3770 C.3     1  GW61        0.1680
     18  F2        31.3210    8.6540    2.0830 F       1  GW61       -0.2368
     19  C16       30.5480    6.5860    2.7370 C.3     1  GW61        0.1823
     20  O2        30.8160    5.1940    2.8240 O.3     1  GW61       -0.2203
     21  C17       29.9200    6.9910    4.0570 C.3     1  GW61        0.0395
     22  C18       30.9190    7.1040    5.1960 C.3     1  GW61        0.0436
     23  C19       31.4310    5.7280    5.6100 C.3     1  GW61        0.0040
     24  C20       30.4360    7.9010    6.3990 C.3     1  GW61        0.1959
     25  O3        29.8210    9.1130    5.9130 O.3     1  GW61       -0.4426
     26  C21       28.8470    9.7290    6.6550 C.2     1  GW61        0.3765
     27  O4        28.4470    9.4020    7.7640 O.2     1  GW61       -0.2414
     28  C22       28.3650   10.8530    5.9240 C.ar    1  GW61        0.2206
     29  C23       28.3600   11.1380    4.5770 C.ar    1  GW61        0.0475
     30  C24       27.7490   12.4080    4.4480 C.ar    1  GW61        0.0440
     31  C25       27.4220   12.8140    5.7230 C.ar    1  GW61        0.1799
     32  O5        27.7940   11.8680    6.6310 O.2     1  GW61       -0.4439
     33  C26       29.4780    7.1010    7.2620 C.2     1  GW61        0.2371
     34  O6        29.7440    6.7330    8.3970 O.2     1  GW61       -0.2807
     35  S1        27.9220    6.7270    6.5290 S.3     1  GW61       -0.0357
     36  C27       27.1120    6.0390    7.9820 C.3     1  GW61        0.2582
     37  F3        27.6930    4.8370    8.2390 F       1  GW61       -0.2208
@<TRIPOS>BOND
     1    12    11    2
     2    11    13    1
     3    11    10    1
     4    13    14    2
     5    10     9    2
     6    14    15    1
     7     9    15    1
     8     9     7    1
     9    15    16    1
    10    15    17    1
    11     8     7    1
    12     7     6    1
    13    18    17    1
    14    17    19    1
    15    17     5    1
    16    19    20    1
    17    19    21    1
    18     6     5    1
    19     5     4    1
    20    21    22    1
    21    30    29   ar
    22    30    31   ar
    23    29    28   ar
    24     4    22    1
    25     4     3    1
    26    22    23    1
    27    22    24    1
    28    31    32   ar
    29    25    24    1
    30    25    26    1
    31    28    32   ar
    32    28    26    1
    33     3     2    1
    34    24     2    1
    35    24    33    1
    36    35    33    1
    37    35    36    1
    38    26    27    2
    39     2     1    1
    40    33    34    2
    41    36    37    1
