@<TRIPOS>MOLECULE
3clh_NAD_A_1.pdb
 44 48 0 0 0
SMALL
GASTEIGER

@<TRIPOS>ATOM
      1  PA        20.3810  -13.1130   47.4320 P.3   400  NAD400      0.2189
      2  O1A       20.3910  -13.8770   46.1640 O.2   400  NAD400     -0.5170
      3  O2A       19.4480  -11.9670   47.3470 O.3   400  NAD400     -0.4371
      4  O5B       21.8730  -12.6140   47.7840 O.3   400  NAD400     -0.3112
      5  C5B       22.1020  -11.7660   48.8910 C.3   400  NAD400      0.1813
      6  C4B       22.6740  -10.4120   48.4700 C.3   400  NAD400      0.1821
      7  O4B       24.0870  -10.4800   48.4060 O.3   400  NAD400     -0.3135
      8  C3B       22.1700   -9.9380   47.1120 C.3   400  NAD400      0.2184
      9  O3B       21.4630   -8.7280   47.2670 O.3   400  NAD400     -0.2174
     10  C2B       23.4120   -9.7480   46.2600 C.3   400  NAD400      0.2570
     11  O2B       23.4350   -8.4890   45.6290 O.3   400  NAD400     -0.2130
     12  C1B       24.5820   -9.8780   47.2240 C.3   400  NAD400      0.3186
     13  N9A       25.6650  -10.7060   46.6540 N.pl3 400  NAD400     -0.1439
     14  C8A       25.5240  -11.8710   45.9430 C.3   400  NAD400      0.3377
     15  N7A       26.7510  -12.3250   45.6040 N.2   400  NAD400     -0.2095
     16  C5A       27.6770  -11.4670   46.0840 C.2   400  NAD400      0.2526
     17  C6A       29.0690  -11.4560   46.0220 C.2   400  NAD400      0.4393
     18  N6A       29.7220  -12.5300   45.5890 N.pl3 400  NAD400      0.2180
     19  N1A       29.7680  -10.4250   46.6220 N.2   400  NAD400      0.0021
     20  C2A       29.0900   -9.4150   47.2810 C.3   400  NAD400      0.5254
     21  N3A       27.7080   -9.4360   47.3380 N.2   400  NAD400     -0.0055
     22  C4A       27.0100  -10.4440   46.7500 C.2   400  NAD400      0.3518
     23  O3        19.9880  -14.0720   48.6650 O.3   400  NAD400     -0.2703
     24  PN        20.5070  -15.5940   48.7760 P.3   400  NAD400      0.2189
     25  O1N       21.6830  -15.7780   47.8950 O.2   400  NAD400     -0.5170
     26  O2N       20.6240  -15.9250   50.2150 O.3   400  NAD400     -0.4371
     27  O5D       19.2740  -16.4270   48.1540 O.3   400  NAD400     -0.3112
     28  C5D       18.0210  -16.4750   48.8040 C.3   400  NAD400      0.1813
     29  C4D       16.9200  -16.8170   47.8050 C.3   400  NAD400      0.1799
     30  O4D       17.1980  -18.0530   47.1740 O.3   400  NAD400     -0.3327
     31  C3D       15.5720  -16.9450   48.4980 C.3   400  NAD400      0.2158
     32  O3D       14.6830  -15.9720   47.9970 O.3   400  NAD400     -0.2175
     33  C2D       15.0810  -18.3510   48.1960 C.3   400  NAD400      0.2309
     34  O2D       13.7820  -18.3440   47.6490 O.3   400  NAD400     -0.2158
     35  C1D       16.0760  -18.9200   47.1930 C.3   400  NAD400      0.2263
     36  N1N       16.4820  -20.2950   47.5580 N.pl3 400  NAD400     -0.2787
     37  C2N       16.1070  -21.3380   46.7510 C.3   400  NAD400      0.1244
     38  C3N       16.4750  -22.6470   47.0650 C.2   400  NAD400      0.0544
     39  C7N       16.2900  -23.7370   46.0500 C.2   400  NAD400      0.2818
     40  O7N       16.7970  -23.5600   44.7460 O.2   400  NAD400     -0.2670
     41  N7N       15.6510  -24.8490   46.4100 N.am  400  NAD400     -0.0839
     42  C4N       17.2300  -22.8920   48.2100 C.2   400  NAD400      0.0033
     43  C5N       17.6090  -21.8280   49.0260 C.2   400  NAD400      0.0157
     44  C6N       17.2280  -20.5310   48.6870 C.2   400  NAD400      0.0633
@<TRIPOS>BOND
     1    40    39    2
     2    18    17    1
     3    15    14    1
     4    15    16    2
     5    11    10    1
     6    14    13    1
     7    17    16    1
     8    17    19    2
     9    39    41   am
    10    39    38    1
    11    16    22    1
    12     2     1    2
    13    10     8    1
    14    10    12    1
    15    19    20    1
    16    13    22    1
    17    13    12    1
    18    22    21    2
    19    37    38    1
    20    37    36    1
    21    38    42    2
    22     8     9    1
    23     8     6    1
    24    30    35    1
    25    30    29    1
    26    35    36    1
    27    35    33    1
    28    12     7    1
    29    20    21    1
    30     3     1    1
    31     1     4    1
    32     1    23    1
    33    36    44    1
    34    34    33    1
    35     4     5    1
    36    29    31    1
    37    29    28    1
    38    25    24    2
    39    32    31    1
    40    27    24    1
    41    27    28    1
    42    33    31    1
    43    42    43    1
    44     7     6    1
    45     6     5    1
    46    23    24    1
    47    44    43    2
    48    24    26    1
