@<TRIPOS>MOLECULE
3cli_HEM_A_1.pdb
 43 50 0 0 0
SMALL
GASTEIGER

@<TRIPOS>ATOM
      1  CHA       -1.7690   25.7060   36.2720 C.2   600  HEM600      0.0000
      2  CHB        0.5850   29.7220   34.9640 C.2   600  HEM600      0.0000
      3  CHC        4.6890   28.0140   36.8610 C.2   600  HEM600      0.0000
      4  CHD        2.3970   23.9960   38.1310 C.2   600  HEM600      0.0000
      5  C1A       -1.5220   26.9550   35.7540 C.ar  600  HEM600      0.0000
      6  C2A       -2.4880   27.8040   35.0800 C.ar  600  HEM600      0.0000
      7  C3A       -1.8270   28.9400   34.7510 C.ar  600  HEM600      0.0000
      8  C4A       -0.4480   28.8080   35.1700 C.ar  600  HEM600      0.0000
      9  CMA       -2.3880   30.1750   33.9970 C.3   600  HEM600      0.0000
     10  CAA       -3.9760   27.4130   34.8810 C.3   600  HEM600      0.0000
     11  CBA       -4.1230   26.4260   33.6960 C.3   600  HEM600      0.0000
     12  CGA       -5.5840   26.3420   33.3170 C.2   600  HEM600      0.0000
     13  O1A       -5.9910   27.0350   32.3270 O.co2 600  HEM600      0.0000
     14  O2A       -6.3200   25.5720   34.0170 O.co2 600  HEM600      0.0000
     15  C1B        1.9390   29.5690   35.2370 C.2   600  HEM600      0.0000
     16  C2B        3.0530   30.4480   34.8550 C.2   600  HEM600      0.0000
     17  C3B        4.2000   29.9500   35.3510 C.2   600  HEM600      0.0000
     18  C4B        3.8400   28.7650   36.1020 C.2   600  HEM600      0.0000
     19  CMB        2.8960   31.6950   33.9650 C.3   600  HEM600      0.0000
     20  CAB        5.6610   30.4620   35.2600 C.2   600  HEM600      0.0000
     21  CBB        5.9510   31.7470   35.0870 C.2   600  HEM600      0.0000
     22  C1C        4.4230   26.8290   37.5100 C.ar  600  HEM600      0.0000
     23  C2C        5.2600   26.1200   38.4370 C.ar  600  HEM600      0.0000
     24  C3C        4.6440   24.9960   38.8040 C.ar  600  HEM600      0.0000
     25  C4C        3.3660   24.9790   38.1100 C.ar  600  HEM600      0.0000
     26  CMC        6.6280   26.6100   38.9330 C.3   600  HEM600      0.0000
     27  CAC        5.2560   23.9490   39.7690 C.2   600  HEM600      0.0000
     28  CBC        4.5380   22.9980   40.3350 C.2   600  HEM600      0.0000
     29  C1D        1.0950   24.0480   37.6940 C.2   600  HEM600      0.0000
     30  C2D        0.1430   22.9670   37.8380 C.2   600  HEM600      0.0000
     31  C3D       -1.1550   23.4920   37.2690 C.2   600  HEM600      0.0000
     32  C4D       -0.8630   24.8510   36.8420 C.2   600  HEM600      0.0000
     33  CMD        0.3810   21.5490   38.4240 C.3   600  HEM600      0.0000
     34  CAD       -2.4940   22.7480   37.2380 C.3   600  HEM600      0.0000
     35  CBD       -3.0370   22.8960   38.6830 C.3   600  HEM600      0.0000
     36  CGD       -4.2000   21.9640   39.0030 C.2   600  HEM600      0.0000
     37  O1D       -4.4240   21.0080   38.2430 O.co2 600  HEM600      0.0000
     38  O2D       -4.9010   22.2080   40.0190 O.co2 600  HEM600      0.0000
     39  NA        -0.2780   27.5820   35.7890 N.ar  600  HEM600      0.0000
     40  NB         2.4870   28.5690   35.9700 N.2   600  HEM600      0.0000
     41  NC         3.2470   26.1230   37.3550 N.ar  600  HEM600      0.0000
     42  ND         0.4640   25.1230   37.1070 N.2   600  HEM600      0.0000
     43 FE          1.4300   26.9440   36.7760 Fe    600  HEM600      0.0000
@<TRIPOS>BOND
     1    13    12   ar
     2    12    11    1
     3    12    14   ar
     4    11    10    1
     5    19    16    1
     6     9     7    1
     7     7     6   ar
     8     7     8   ar
     9    16    15    1
    10    16    17    2
    11    10     6    1
    12     2     8    2
    13     2    15    1
    14     6     5   ar
    15    21    20    2
    16     8    39   ar
    17    15    40    2
    18    20    17    1
    19    17    18    1
    20     5    39   ar
    21     5     1    2
    22    39    43    1
    23    40    18    1
    24    40    43    1
    25    18     3    2
    26     1    32    1
    27    43    42    1
    28    43    41    1
    29    32    42    2
    30    32    31    1
    31     3    22    1
    32    42    29    1
    33    34    31    1
    34    34    35    1
    35    31    30    2
    36    41    22   ar
    37    41    25   ar
    38    22    23   ar
    39    29    30    1
    40    29     4    2
    41    30    33    1
    42    25     4    1
    43    25    24   ar
    44    37    36   ar
    45    23    24   ar
    46    23    26    1
    47    35    36    1
    48    24    27    1
    49    36    38   ar
    50    27    28    2
