@<TRIPOS>MOLECULE
3clp_CMP_A_1.pdb
 22 25 0 0 0
SMALL
GASTEIGER

@<TRIPOS>ATOM
      1  P         21.8830  -36.8170   12.0350 P.3     1  CMP1        0.2141
      2  O1P       22.1570  -38.2890   12.2580 O.2     1  CMP1       -0.5172
      3  O2P       21.9340  -36.0340   13.3200 O.3     1  CMP1       -0.4373
      4  O5'       22.9290  -36.2640   10.9480 O.3     1  CMP1       -0.3114
      5  C5'       22.8460  -36.7280    9.5810 C.3     1  CMP1        0.1812
      6  C4'       21.4240  -36.4380    9.0930 C.3     1  CMP1        0.1793
      7  O4'       21.1020  -36.9430    7.7790 O.3     1  CMP1       -0.3136
      8  C3'       20.4160  -37.1470    9.9820 C.3     1  CMP1        0.1884
      9  O3'       20.4610  -36.6130   11.3150 O.3     1  CMP1       -0.3111
     10  C2'       19.1260  -37.0410    9.1950 C.3     1  CMP1        0.2541
     11  O2'       18.6120  -35.7080    9.2950 O.3     1  CMP1       -0.2131
     12  C1'       19.6790  -37.2490    7.7600 C.3     1  CMP1        0.3185
     13  N9        19.3840  -38.6780    7.4190 N.pl3   1  CMP1       -0.1439
     14  C8        19.9800  -39.7790    7.9380 C.3     1  CMP1        0.3377
     15  N7        19.4450  -40.9200    7.4320 N.2     1  CMP1       -0.2095
     16  C5        18.4760  -40.5490    6.5700 C.2     1  CMP1        0.2526
     17  C6        17.5090  -41.2340    5.6800 C.2     1  CMP1        0.4393
     18  N6        17.4580  -42.5860    5.6020 N.pl3   1  CMP1        0.2180
     19  N1        16.6680  -40.4660    4.9450 N.2     1  CMP1        0.0021
     20  C2        16.6860  -39.1190    4.9880 C.3     1  CMP1        0.5254
     21  N3        17.5250  -38.4170    5.7650 N.2     1  CMP1       -0.0055
     22  C4        18.4330  -39.0690    6.5660 C.2     1  CMP1        0.3518
@<TRIPOS>BOND
     1    19    20    1
     2    19    17    2
     3    20    21    1
     4    18    17    1
     5    17    16    1
     6    21    22    2
     7    22    16    1
     8    22    13    1
     9    16    15    2
    10    13    12    1
    11    13    14    1
    12    15    14    1
    13    12     7    1
    14    12    10    1
    15     7     6    1
    16     6     5    1
    17     6     8    1
    18    10    11    1
    19    10     8    1
    20     5     4    1
    21     8     9    1
    22     4     1    1
    23     9     1    1
    24     1     2    2
    25     1     3    1
