@<TRIPOS>MOLECULE
3clr_AMP_C_1.pdb
 23 25 0 0 0
SMALL
GASTEIGER

@<TRIPOS>ATOM
      1  P         76.9170   48.8270    2.4670 P.3   1262  AMP1262     0.5327
      2  O1P       76.5720   47.3810    2.3840 O.3   1262  AMP1262    -0.1145
      3  O2P       77.2860   49.2920    3.8210 O.3   1262  AMP1262    -0.1145
      4  O3P       75.8700   49.6840    1.8470 O.2   1262  AMP1262    -0.2224
      5  O5'       78.2800   48.9730    1.5960 O.3   1262  AMP1262    -0.2675
      6  C5'       78.6110   48.0700    0.5660 C.3   1262  AMP1262     0.1860
      7  C4'       80.0790   47.6940    0.6030 C.3   1262  AMP1262     0.1823
      8  O4'       80.3880   47.0470    1.8540 O.3   1262  AMP1262    -0.3135
      9  C3'       80.3950   46.7050   -0.4960 C.3   1262  AMP1262     0.2184
     10  O3'       80.8790   47.3930   -1.6380 O.3   1262  AMP1262    -0.2174
     11  C2'       81.4100   45.7960    0.1630 C.3   1262  AMP1262     0.2570
     12  O2'       82.7340   46.3640    0.0790 O.3   1262  AMP1262    -0.2130
     13  C1'       80.9690   45.8000    1.6120 C.3   1262  AMP1262     0.3186
     14  N9        80.0040   44.7200    1.8680 N.pl3 1262  AMP1262    -0.1439
     15  C8        78.6980   44.8220    2.2120 C.3   1262  AMP1262     0.3377
     16  N7        78.1780   43.5920    2.4010 N.2   1262  AMP1262    -0.2095
     17  C5        79.1580   42.7160    2.2050 C.2   1262  AMP1262     0.2526
     18  C6        79.2440   41.2670    2.2350 C.2   1262  AMP1262     0.4393
     19  N6        78.1200   40.5730    2.5290 N.pl3 1262  AMP1262     0.2180
     20  N1        80.4450   40.6940    1.9960 N.2   1262  AMP1262     0.0021
     21  C2        81.5380   41.4470    1.7260 C.3   1262  AMP1262     0.5254
     22  N3        81.5280   42.7950    1.6600 N.2   1262  AMP1262    -0.0055
     23  C4        80.3660   43.4530    1.8800 C.2   1262  AMP1262     0.3518
@<TRIPOS>BOND
     1    10     9    1
     2     9    11    1
     3     9     7    1
     4    12    11    1
     5    11    13    1
     6     6     7    1
     7     6     5    1
     8     7     8    1
     9     5     1    1
    10    13     8    1
    11    13    14    1
    12    22    21    1
    13    22    23    2
    14    21    20    1
    15     4     1    2
    16    14    23    1
    17    14    15    1
    18    23    17    1
    19    20    18    2
    20    17    18    1
    21    17    16    2
    22    15    16    1
    23    18    19    1
    24     2     1    1
    25     1     3    1
