@<TRIPOS>MOLECULE
3cls_AMP_C_1.pdb
 23 25 0 0 0
SMALL
GASTEIGER

@<TRIPOS>ATOM
      1  P         77.3650   49.0270    2.4900 P.3   1262  AMP1262     0.5327
      2  O1P       77.1260   47.5640    2.5030 O.3   1262  AMP1262    -0.1145
      3  O2P       77.7480   49.5350    3.8320 O.3   1262  AMP1262    -0.1145
      4  O3P       76.3690   49.8610    1.8860 O.2   1262  AMP1262    -0.2224
      5  O5'       78.6830   49.0990    1.5410 O.3   1262  AMP1262    -0.2675
      6  C5'       78.9830   48.2020    0.5260 C.3   1262  AMP1262     0.1860
      7  C4'       80.4930   47.8650    0.6840 C.3   1262  AMP1262     0.1823
      8  O4'       80.8020   47.1750    1.9040 O.3   1262  AMP1262    -0.3135
      9  C3'       80.8330   46.9380   -0.4630 C.3   1262  AMP1262     0.2184
     10  O3'       81.2870   47.5610   -1.6850 O.3   1262  AMP1262    -0.2174
     11  C2'       81.8540   46.0390    0.1760 C.3   1262  AMP1262     0.2570
     12  O2'       83.1480   46.6600    0.1130 O.3   1262  AMP1262    -0.2130
     13  C1'       81.3920   45.9740    1.6190 C.3   1262  AMP1262     0.3186
     14  N9        80.4130   44.9020    1.8710 N.pl3 1262  AMP1262    -0.1439
     15  C8        79.1000   45.0130    2.2020 C.3   1262  AMP1262     0.3377
     16  N7        78.6000   43.7960    2.4160 N.2   1262  AMP1262    -0.2095
     17  C5        79.5580   42.9160    2.2110 C.2   1262  AMP1262     0.2526
     18  C6        79.6450   41.4600    2.2050 C.2   1262  AMP1262     0.4393
     19  N6        78.4890   40.7850    2.5370 N.pl3 1262  AMP1262     0.2180
     20  N1        80.8260   40.8910    2.0060 N.2   1262  AMP1262     0.0021
     21  C2        81.9460   41.6270    1.6860 C.3   1262  AMP1262     0.5254
     22  N3        81.9410   42.9690    1.6260 N.2   1262  AMP1262    -0.0055
     23  C4        80.7850   43.6260    1.8720 C.2   1262  AMP1262     0.3518
@<TRIPOS>BOND
     1    10     9    1
     2     9    11    1
     3     9     7    1
     4    12    11    1
     5    11    13    1
     6     6     7    1
     7     6     5    1
     8     7     8    1
     9     5     1    1
    10    13    14    1
    11    13     8    1
    12    22    21    1
    13    22    23    2
    14    21    20    1
    15    14    23    1
    16    14    15    1
    17    23    17    1
    18     4     1    2
    19    20    18    2
    20    15    16    1
    21    18    17    1
    22    18    19    1
    23    17    16    2
    24     1     2    1
    25     1     3    1
