@<TRIPOS>MOLECULE
3clt_AMP_C_1.pdb
 23 25 0 0 0
SMALL
GASTEIGER

@<TRIPOS>ATOM
      1  P         76.7510   48.6140    2.4070 P.3   1262  AMP1262     0.5327
      2  O1P       76.4210   47.1480    2.4340 O.3   1262  AMP1262    -0.1145
      3  O2P       77.1780   49.1790    3.7350 O.3   1262  AMP1262    -0.1145
      4  O3P       75.6900   49.4290    1.7450 O.2   1262  AMP1262    -0.2224
      5  O5'       78.1060   48.7490    1.5390 O.3   1262  AMP1262    -0.2675
      6  C5'       78.4180   47.8600    0.4800 C.3   1262  AMP1262     0.1860
      7  C4'       79.8760   47.4600    0.5630 C.3   1262  AMP1262     0.1823
      8  O4'       80.1810   46.8640    1.8230 O.3   1262  AMP1262    -0.3135
      9  C3'       80.2190   46.4560   -0.5210 C.3   1262  AMP1262     0.2184
     10  O3'       80.7150   47.1360   -1.6690 O.3   1262  AMP1262    -0.2174
     11  C2'       81.2440   45.5770    0.1530 C.3   1262  AMP1262     0.2570
     12  O2'       82.5600   46.1260    0.0560 O.3   1262  AMP1262    -0.2130
     13  C1'       80.8030   45.6130    1.6020 C.3   1262  AMP1262     0.3186
     14  N9        79.8300   44.5380    1.8610 N.pl3 1262  AMP1262    -0.1439
     15  C8        78.5230   44.6440    2.1760 C.3   1262  AMP1262     0.3377
     16  N7        77.9780   43.4260    2.3780 N.2   1262  AMP1262    -0.2095
     17  C5        78.9540   42.5340    2.1770 C.2   1262  AMP1262     0.2526
     18  C6        79.0650   41.0720    2.2100 C.2   1262  AMP1262     0.4393
     19  N6        77.9610   40.3520    2.5040 N.pl3 1262  AMP1262     0.2180
     20  N1        80.2820   40.5220    1.9640 N.2   1262  AMP1262     0.0021
     21  C2        81.3650   41.2730    1.6740 C.3   1262  AMP1262     0.5254
     22  N3        81.3330   42.6160    1.6180 N.2   1262  AMP1262    -0.0055
     23  C4        80.1730   43.2660    1.8490 C.2   1262  AMP1262     0.3518
@<TRIPOS>BOND
     1    10     9    1
     2     9    11    1
     3     9     7    1
     4    12    11    1
     5    11    13    1
     6     6     7    1
     7     6     5    1
     8     7     8    1
     9     5     1    1
    10    13     8    1
    11    13    14    1
    12    22    21    1
    13    22    23    2
    14    21    20    1
    15     4     1    2
    16    23    14    1
    17    23    17    1
    18    14    15    1
    19    20    18    2
    20    15    16    1
    21    17    18    1
    22    17    16    2
    23    18    19    1
    24     1     2    1
    25     1     3    1
