@<TRIPOS>MOLECULE
3clu_AMP_C_1.pdb
 23 25 0 0 0
SMALL
GASTEIGER

@<TRIPOS>ATOM
      1  P         76.6190   48.5260    2.4820 P.3   1262  AMP1262     0.5327
      2  O1P       76.4050   47.0310    2.5680 O.3   1262  AMP1262    -0.1145
      3  O2P       77.0570   49.1870    3.7380 O.3   1262  AMP1262    -0.1145
      4  O3P       75.5300   49.3060    1.8370 O.2   1262  AMP1262    -0.2224
      5  O5'       77.9060   48.6550    1.4880 O.3   1262  AMP1262    -0.2675
      6  C5'       78.2130   47.6790    0.4870 C.3   1262  AMP1262     0.1860
      7  C4'       79.6830   47.3020    0.5570 C.3   1262  AMP1262     0.1823
      8  O4'       80.0570   46.7080    1.8150 O.3   1262  AMP1262    -0.3135
      9  C3'       80.0660   46.3110   -0.5300 C.3   1262  AMP1262     0.2184
     10  O3'       80.5440   46.9900   -1.6830 O.3   1262  AMP1262    -0.2174
     11  C2'       81.1500   45.4850    0.1600 C.3   1262  AMP1262     0.2570
     12  O2'       82.4150   46.1570    0.0200 O.3   1262  AMP1262    -0.2130
     13  C1'       80.6980   45.4810    1.6100 C.3   1262  AMP1262     0.3186
     14  N9        79.7010   44.4260    1.8930 N.pl3 1262  AMP1262    -0.1439
     15  C8        78.3850   44.5140    2.2180 C.3   1262  AMP1262     0.3377
     16  N7        77.8470   43.2890    2.4120 N.2   1262  AMP1262    -0.2095
     17  C5        78.8310   42.4160    2.2180 C.2   1262  AMP1262     0.2526
     18  C6        78.9550   40.9590    2.2580 C.2   1262  AMP1262     0.4393
     19  N6        77.8390   40.2630    2.5520 N.pl3 1262  AMP1262     0.2180
     20  N1        80.1690   40.4140    2.0170 N.2   1262  AMP1262     0.0021
     21  C2        81.2310   41.1720    1.7400 C.3   1262  AMP1262     0.5254
     22  N3        81.1990   42.5090    1.6760 N.2   1262  AMP1262    -0.0055
     23  C4        80.0400   43.1580    1.8940 C.2   1262  AMP1262     0.3518
@<TRIPOS>BOND
     1    10     9    1
     2     9    11    1
     3     9     7    1
     4    12    11    1
     5    11    13    1
     6     6     7    1
     7     6     5    1
     8     7     8    1
     9     5     1    1
    10    13     8    1
    11    13    14    1
    12    22    21    1
    13    22    23    2
    14    21    20    1
    15     4     1    2
    16    14    23    1
    17    14    15    1
    18    23    17    1
    19    20    18    2
    20    15    16    1
    21    17    18    1
    22    17    16    2
    23    18    19    1
    24     1     2    1
    25     1     3    1
