@<TRIPOS>MOLECULE
3clv_GDP_A_1.pdb
 28 30 0 0 0
SMALL
GASTEIGER

@<TRIPOS>ATOM
      1  PB       -41.4610   -2.3390   -4.5240 P.3   211  GDP211      0.5373
      2  O1B      -40.6970   -3.3200   -3.6950 O.3   211  GDP211     -0.1143
      3  O2B      -42.8400   -2.1050   -3.9500 O.3   211  GDP211     -0.1143
      4  O3B      -40.7630   -1.0090   -4.6540 O.2   211  GDP211     -0.2221
      5  O3A      -41.6240   -2.8730   -6.0470 O.3   211  GDP211     -0.2261
      6  PA       -41.6430   -4.4280   -6.5160 P.3   211  GDP211      0.2231
      7  O1A      -42.6940   -5.2020   -5.7370 O.3   211  GDP211     -0.4370
      8  O2A      -40.2860   -5.0600   -6.5360 O.2   211  GDP211     -0.5169
      9  O5'      -42.1650   -4.2720   -8.0290 O.3   211  GDP211     -0.3111
     10  C5'      -43.4550   -3.7330   -8.3410 C.3   211  GDP211      0.1813
     11  C4'      -43.8410   -4.2110   -9.7460 C.3   211  GDP211      0.1799
     12  O4'      -42.9760   -3.6280  -10.7240 O.3   211  GDP211     -0.3326
     13  C3'      -43.7610   -5.7200   -9.9610 C.3   211  GDP211      0.2158
     14  O3'      -44.8530   -6.0320  -10.8350 O.3   211  GDP211     -0.2175
     15  C2'      -42.4420   -5.9410  -10.7050 C.3   211  GDP211      0.2310
     16  O2'      -42.4270   -7.0960  -11.5560 O.3   211  GDP211     -0.2158
     17  C1'      -42.3630   -4.6560  -11.5160 C.3   211  GDP211      0.2293
     18  N9       -40.9780   -4.2390  -11.7560 N.pl3 211  GDP211     -0.2354
     19  C8       -40.0190   -4.0650  -10.8210 C.3   211  GDP211      0.2246
     20  N7       -38.8700   -3.6680  -11.4010 N.2   211  GDP211     -0.2322
     21  C5       -39.1030   -3.5700  -12.7300 C.2   211  GDP211      0.2182
     22  C6       -38.3180   -3.1930  -13.9290 C.1   211  GDP211      0.2372
     23  O6       -37.1160   -2.8540  -13.8100 O.2   211  GDP211     -0.2069
     24  N1       -38.9460   -3.2220  -15.1350 N.2   211  GDP211     -0.2485
     25  C2       -40.2500   -3.5710  -15.2860 C.1   211  GDP211      0.2531
     26  N2       -40.7920   -3.5610  -16.5310 N.pl3 211  GDP211     -0.0226
     27  N3       -41.0330   -3.9500  -14.2270 N.2   211  GDP211     -0.3074
     28  C4       -40.5080   -3.9510  -12.9580 C.2   211  GDP211      0.2300
@<TRIPOS>BOND
     1    26    25    1
     2    25    24    2
     3    25    27    2
     4    24    22    2
     5    27    28    2
     6    22    23    2
     7    22    21    1
     8    28    21    1
     9    28    18    1
    10    21    20    2
    11    18    17    1
    12    18    19    1
    13    16    15    1
    14    17    12    1
    15    17    15    1
    16    20    19    1
    17    14    13    1
    18    12    11    1
    19    15    13    1
    20    13    11    1
    21    11    10    1
    22    10     9    1
    23     9     6    1
    24     8     6    2
    25     6     5    1
    26     6     7    1
    27     5     1    1
    28     4     1    2
    29     1     3    1
    30     1     2    1
