@<TRIPOS>MOLECULE
3clx_X22_A_1.pdb
 36 39 0 0 0
SMALL
GASTEIGER

@<TRIPOS>ATOM
      1  CAA        6.1140   46.9730    8.5830 C.3   600  X22600      0.0021
      2  CB         4.9710   46.6670    7.6160 C.3   600  X22600      0.0284
      3  CA         3.6120   47.0640    8.1990 C.3   600  X22600      0.1693
      4  N          2.5200   46.4840    7.4030 N.3   600  X22600     -0.1231
      5  C          3.4640   48.5690    8.1820 C.2   600  X22600      0.2592
      6  O          3.3780   49.1680    7.1090 O.2   600  X22600     -0.2718
      7  NAX        3.4350   49.1420    9.3870 N.am  600  X22600     -0.1965
      8  CBI        3.3060   50.6020    9.4960 C.3   600  X22600      0.1737
      9  CBA        4.4860   51.2410   10.2960 C.2   600  X22600      0.2458
     10  OAE        5.2090   50.5310   10.9970 O.2   600  X22600     -0.2730
     11  NBJ        4.7460   52.5550   10.2230 N.am  600  X22600     -0.2732
     12  CBE        1.8570   51.0730    9.8280 C.3   600  X22600      0.0619
     13  CAR        1.0780   50.0660   10.6720 C.3   600  X22600      0.1842
     14  OAF       -0.2600   50.0100   10.1860 O.3   600  X22600     -0.2204
     15  CAS        1.8230   52.4610   10.4710 C.3   600  X22600      0.0065
     16  CAT        2.4460   53.5720    9.5990 C.3   600  X22600      0.0200
     17  CBF        3.9900   53.5010    9.3580 C.3   600  X22600      0.0759
     18  CAU        4.5850   54.8880    9.5900 C.3   600  X22600      0.0220
     19  CAV        5.9890   54.6350   10.2040 C.3   600  X22600      0.0310
     20  CBG        5.9200   53.2320   10.8550 C.3   600  X22600      0.1535
     21  CAZ        6.0110   53.4310   12.3840 C.2   600  X22600      0.2600
     22  OAD        6.6700   54.3840   12.8250 O.2   600  X22600     -0.2715
     23  NAW        5.4080   52.5510   13.1860 N.am  600  X22600     -0.1967
     24  CBH        5.4690   52.7640   14.6590 C.3   600  X22600      0.1397
     25  CBC        4.1320   52.3790   15.2940 C.ar  600  X22600      0.0016
     26  CAO        3.0040   52.2510   14.4840 C.ar  600  X22600     -0.0023
     27  CAK        1.7820   51.9000   15.0390 C.ar  600  X22600     -0.0003
     28  CAH        1.6870   51.6830   16.4150 C.ar  600  X22600     -0.0000
     29  CAL        2.8090   51.8130   17.2280 C.ar  600  X22600     -0.0003
     30  CAP        4.0370   52.1600   16.6670 C.ar  600  X22600     -0.0023
     31  CBB        6.6940   52.1610   15.3890 C.ar  600  X22600      0.0016
     32  CAM        7.4660   53.0060   16.1910 C.ar  600  X22600     -0.0023
     33  CAI        8.5840   52.5220   16.8840 C.ar  600  X22600     -0.0003
     34  CAG        8.9260   51.1790   16.7850 C.ar  600  X22600     -0.0000
     35  CAJ        8.1600   50.3290   15.9860 C.ar  600  X22600     -0.0003
     36  CAN        7.0500   50.8190   15.2900 C.ar  600  X22600     -0.0023
@<TRIPOS>BOND
     1     6     5    2
     2     4     3    1
     3     2     3    1
     4     2     1    1
     5     5     3    1
     6     5     7   am
     7    17    18    1
     8    17    16    1
     9    17    11    1
    10     7     8    1
    11     8    12    1
    12     8     9    1
    13    18    19    1
    14    16    15    1
    15    12    15    1
    16    12    13    1
    17    14    13    1
    18    19    20    1
    19    11     9   am
    20    11    20    1
    21     9    10    2
    22    20    21    1
    23    21    22    2
    24    21    23   am
    25    23    24    1
    26    26    27   ar
    27    26    25   ar
    28    24    25    1
    29    24    31    1
    30    27    28   ar
    31    36    31   ar
    32    36    35   ar
    33    25    30   ar
    34    31    32   ar
    35    35    34   ar
    36    32    33   ar
    37    28    29   ar
    38    30    29   ar
    39    34    33   ar
