@<TRIPOS>MOLECULE
3cly_ACP_A_1.pdb
 31 33 0 0 0
SMALL
GASTEIGER

@<TRIPOS>ATOM
      1  PG        18.5900   -1.6130   28.6960 P.3   1803  ACP1803     0.1295
      2  O1G       18.8390   -0.7620   27.5210 O.2   1803  ACP1803    -0.4595
      3  O2G       18.0850   -0.9510   29.9400 O.3   1803  ACP1803    -0.3567
      4  O3G       19.6230   -2.6380   28.9080 O.3   1803  ACP1803    -0.3567
      5  PB        15.8430   -1.6340   27.5810 P.3   1803  ACP1803     0.3815
      6  O1B       14.8720   -2.7130   27.2870 O.2   1803  ACP1803    -0.2547
      7  O2B       15.4910   -0.7090   28.6750 O.3   1803  ACP1803    -0.1391
      8  C3B       17.2280   -2.3880   28.1100 C.3   1803  ACP1803     0.1768
      9  PA        15.6560    0.4620   25.6240 P.3   1803  ACP1803     0.2209
     10  O1A       14.2390    0.7700   25.9320 O.3   1803  ACP1803    -0.4371
     11  O2A       16.5980    1.5570   25.8040 O.2   1803  ACP1803    -0.5170
     12  O3A       16.0970   -0.8560   26.2770 O.3   1803  ACP1803    -0.2483
     13  O5'       15.7790    0.2730   24.0570 O.3   1803  ACP1803    -0.3111
     14  C5'       16.9790   -0.2530   23.4390 C.3   1803  ACP1803     0.1813
     15  C4'       17.1790    0.3590   22.0710 C.3   1803  ACP1803     0.1821
     16  O4'       16.0230    0.0620   21.2360 O.3   1803  ACP1803    -0.3135
     17  C3'       17.2800    1.8770   22.0460 C.3   1803  ACP1803     0.2184
     18  O3'       18.6050    2.3160   22.3220 O.3   1803  ACP1803    -0.2174
     19  C2'       16.8570    2.1950   20.6170 C.3   1803  ACP1803     0.2570
     20  O2'       17.8910    1.9800   19.6760 O.3   1803  ACP1803    -0.2130
     21  C1'       15.7270    1.1780   20.4110 C.3   1803  ACP1803     0.3186
     22  N9        14.4160    1.7070   20.8020 N.pl3 1803  ACP1803    -0.1439
     23  C8        13.8130    1.6390   22.0390 C.3   1803  ACP1803     0.3377
     24  N7        12.6530    2.2420   22.0950 N.2   1803  ACP1803    -0.2095
     25  C5        12.4700    2.7340   20.8100 C.2   1803  ACP1803     0.2526
     26  C6        11.4290    3.4700   20.2220 C.2   1803  ACP1803     0.4393
     27  N6        10.3390    3.8610   20.8840 N.pl3 1803  ACP1803     0.2180
     28  N1        11.5490    3.8020   18.9190 N.2   1803  ACP1803     0.0021
     29  C2        12.6480    3.4100   18.2590 C.3   1803  ACP1803     0.5254
     30  N3        13.6950    2.7140   18.7010 N.2   1803  ACP1803    -0.0055
     31  C4        13.5420    2.4030   20.0000 C.2   1803  ACP1803     0.3518
@<TRIPOS>BOND
     1    29    30    1
     2    29    28    1
     3    30    31    2
     4    28    26    2
     5    20    19    1
     6    31    22    1
     7    31    25    1
     8    26    25    1
     9    26    27    1
    10    21    19    1
    11    21    22    1
    12    21    16    1
    13    19    17    1
    14    22    23    1
    15    25    24    2
    16    16    15    1
    17    23    24    1
    18    17    15    1
    19    17    18    1
    20    15    14    1
    21    14    13    1
    22    13     9    1
    23     9    11    2
    24     9    10    1
    25     9    12    1
    26    12     5    1
    27     6     5    2
    28     2     1    2
    29     5     8    1
    30     5     7    1
    31     8     1    1
    32     1     4    1
    33     1     3    1
