@<TRIPOS>MOLECULE
3cm2_X23_A_1.pdb
 36 39 0 0 0
SMALL
GASTEIGER

@<TRIPOS>ATOM
      1  CAA      -22.7520  -15.6020   52.6460 C.3   600  X23600      0.0021
      2  CB       -21.8700  -14.7170   53.5040 C.3   600  X23600      0.0284
      3  CA       -20.5680  -14.3730   52.8070 C.3   600  X23600      0.1693
      4  N        -19.5000  -14.4090   53.8090 N.3   600  X23600     -0.1231
      5  C        -20.6850  -12.9600   52.2410 C.2   600  X23600      0.2592
      6  O        -20.5090  -11.9800   52.9590 O.2   600  X23600     -0.2718
      7  NAX      -20.9790  -12.8590   50.9500 N.am  600  X23600     -0.1966
      8  CBH      -21.1470  -11.5250   50.3420 C.3   600  X23600      0.1726
      9  CBA      -22.3920  -11.5360   49.4410 C.2   600  X23600      0.2458
     10  OAF      -22.9050  -12.6170   49.1690 O.2   600  X23600     -0.2730
     11  NBJ      -22.9390  -10.4250   48.9380 N.am  600  X23600     -0.2732
     12  CBE      -19.8910  -10.9220   49.6530 C.3   600  X23600      0.0480
     13  CAR      -18.8400  -11.9710   49.2740 C.3   600  X23600      0.1115
     14  NAB      -17.5340  -11.3210   49.0910 N.3   600  X23600     -0.1313
     15  CAS      -20.2560  -10.0630   48.4210 C.3   600  X23600      0.0054
     16  CAT      -21.0210   -8.7800   48.7900 C.3   600  X23600      0.0199
     17  CBF      -22.5050   -9.0210   49.1670 C.3   600  X23600      0.0759
     18  CAU      -23.4150   -8.1950   48.2640 C.3   600  X23600      0.0220
     19  CAV      -24.6950   -9.0200   48.2680 C.3   600  X23600      0.0310
     20  CBI      -24.1610  -10.4500   48.1130 C.3   600  X23600      0.1535
     21  CAZ      -24.0120  -10.7530   46.5990 C.2   600  X23600      0.2600
     22  OAE      -22.9410  -10.9870   46.0420 O.2   600  X23600     -0.2715
     23  NAW      -25.2150  -10.7010   46.0320 N.am  600  X23600     -0.1967
     24  CBG      -25.6950  -10.8820   44.6430 C.3   600  X23600      0.1397
     25  CBC      -24.8890  -10.2960   43.4840 C.ar  600  X23600      0.0016
     26  CAO      -25.3600   -9.0750   42.9850 C.ar  600  X23600     -0.0023
     27  CAK      -24.7300   -8.4490   41.9090 C.ar  600  X23600     -0.0003
     28  CAH      -23.6240   -9.0690   41.3300 C.ar  600  X23600     -0.0000
     29  CAL      -23.1610  -10.2950   41.8220 C.ar  600  X23600     -0.0003
     30  CAP      -23.7960  -10.9240   42.8990 C.ar  600  X23600     -0.0023
     31  CBB      -26.2120  -12.3090   44.3880 C.ar  600  X23600      0.0016
     32  CAM      -25.9040  -13.3520   45.2580 C.ar  600  X23600     -0.0023
     33  CAI      -26.4270  -14.6200   45.0280 C.ar  600  X23600     -0.0003
     34  CAG      -27.2610  -14.8350   43.9340 C.ar  600  X23600     -0.0000
     35  CAJ      -27.5790  -13.7900   43.0680 C.ar  600  X23600     -0.0003
     36  CAN      -27.0620  -12.5210   43.3010 C.ar  600  X23600     -0.0023
@<TRIPOS>BOND
     1    28    29   ar
     2    28    27   ar
     3    29    30   ar
     4    27    26   ar
     5    30    25   ar
     6    26    25   ar
     7    35    36   ar
     8    35    34   ar
     9    36    31   ar
    10    25    24    1
    11    34    33   ar
    12    31    24    1
    13    31    32   ar
    14    24    23    1
    15    33    32   ar
    16    23    21   am
    17    22    21    2
    18    21    20    1
    19    20    19    1
    20    20    11    1
    21    18    19    1
    22    18    17    1
    23    15    16    1
    24    15    12    1
    25    16    17    1
    26    11    17    1
    27    11     9   am
    28    14    13    1
    29    10     9    2
    30    13    12    1
    31     9     8    1
    32    12     8    1
    33     8     7    1
    34     7     5   am
    35     5     3    1
    36     5     6    2
    37     1     2    1
    38     3     2    1
    39     3     4    1
