@<TRIPOS>MOLECULE
3cm7_X22_A_1.pdb
 36 39 0 0 0
SMALL
GASTEIGER

@<TRIPOS>ATOM
      1  CAA      -14.5900  -46.4100  -13.5510 C.3   600  X22600      0.0021
      2  CB       -14.5120  -47.6430  -14.4430 C.3   600  X22600      0.0284
      3  CA       -13.1920  -48.4780  -14.3830 C.3   600  X22600      0.1693
      4  N        -13.1500  -49.3800  -13.2170 N.3   600  X22600     -0.1231
      5  C        -11.9150  -47.6280  -14.4520 C.2   600  X22600      0.2592
      6  O        -11.6630  -46.8050  -13.5720 O.2   600  X22600     -0.2718
      7  NAX      -11.1280  -47.8680  -15.5080 N.am  600  X22600     -0.1965
      8  CBI       -9.8640  -47.1240  -15.6940 C.3   600  X22600      0.1737
      9  CBA      -10.0960  -45.8620  -16.5780 C.2   600  X22600      0.2458
     10  OAE      -11.2120  -45.6610  -17.0730 O.2   600  X22600     -0.2730
     11  NBJ       -9.1350  -44.9510  -16.7860 N.am  600  X22600     -0.2732
     12  CBE       -8.6760  -48.0770  -16.0710 C.3   600  X22600      0.0619
     13  CAR       -8.9470  -48.9270  -17.3130 C.3   600  X22600      0.1842
     14  OAF       -9.6710  -50.0810  -16.8790 O.3   600  X22600     -0.2204
     15  CAS       -7.2390  -47.4590  -16.0980 C.3   600  X22600      0.0065
     16  CAT       -7.0360  -46.1750  -16.9190 C.3   600  X22600      0.0200
     17  CBF       -7.7590  -45.0070  -16.2510 C.3   600  X22600      0.0759
     18  CAU       -7.1030  -43.6810  -16.6220 C.3   600  X22600      0.0220
     19  CAV       -8.2910  -42.7650  -16.9430 C.3   600  X22600      0.0310
     20  CBG       -9.3280  -43.7080  -17.5630 C.3   600  X22600      0.1535
     21  CAZ       -9.0740  -43.8020  -19.0730 C.2   600  X22600      0.2600
     22  OAD       -7.9840  -43.5120  -19.5660 O.2   600  X22600     -0.2715
     23  NAW      -10.1070  -44.1720  -19.8030 N.am  600  X22600     -0.1967
     24  CBH       -9.9850  -44.2410  -21.2680 C.3   600  X22600      0.1397
     25  CBC       -9.9060  -45.6670  -21.7740 C.ar  600  X22600      0.0016
     26  CAO      -10.2900  -45.9820  -23.0800 C.ar  600  X22600     -0.0023
     27  CAK      -10.2010  -47.2950  -23.5420 C.ar  600  X22600     -0.0003
     28  CAH       -9.7130  -48.2870  -22.6890 C.ar  600  X22600     -0.0000
     29  CAL       -9.3180  -47.9680  -21.3870 C.ar  600  X22600     -0.0003
     30  CAP       -9.4090  -46.6550  -20.9300 C.ar  600  X22600     -0.0023
     31  CBB      -11.1450  -43.4200  -21.8350 C.ar  600  X22600      0.0016
     32  CAM      -10.8680  -42.2080  -22.4490 C.ar  600  X22600     -0.0023
     33  CAI      -11.9050  -41.4240  -22.9480 C.ar  600  X22600     -0.0003
     34  CAG      -13.2260  -41.8450  -22.8200 C.ar  600  X22600     -0.0000
     35  CAJ      -13.5030  -43.0550  -22.1930 C.ar  600  X22600     -0.0003
     36  CAN      -12.4640  -43.8350  -21.6970 C.ar  600  X22600     -0.0023
@<TRIPOS>BOND
     1    27    26   ar
     2    27    28   ar
     3    26    25   ar
     4    33    34   ar
     5    33    32   ar
     6    34    35   ar
     7    28    29   ar
     8    32    31   ar
     9    35    36   ar
    10    31    36   ar
    11    31    24    1
    12    25    24    1
    13    25    30   ar
    14    29    30   ar
    15    24    23    1
    16    23    21   am
    17    22    21    2
    18    21    20    1
    19    20    19    1
    20    20    11    1
    21    13    14    1
    22    13    12    1
    23    10     9    2
    24    19    18    1
    25    16    17    1
    26    16    15    1
    27    11     9   am
    28    11    17    1
    29    18    17    1
    30     9     8    1
    31    15    12    1
    32    12     8    1
    33     8     7    1
    34     7     5   am
    35     5     3    1
    36     5     6    2
    37     2     3    1
    38     2     1    1
    39     3     4    1
