@<TRIPOS>MOLECULE
3cmc_NAD_O_1.pdb
 44 48 0 0 0
SMALL
GASTEIGER

@<TRIPOS>ATOM
      1  PA        15.8150    8.8720   14.5810 P.3   407  NAD407      0.2189
      2  O1A       15.5260    7.5330   15.1370 O.3   407  NAD407     -0.4371
      3  O2A       17.2440    9.1450   14.4040 O.2   407  NAD407     -0.5170
      4  O5B       15.2750   10.0030   15.5710 O.3   407  NAD407     -0.3112
      5  C5B       13.9520    9.9930   16.0580 C.3   407  NAD407      0.1813
      6  C4B       14.0010   10.6170   17.4420 C.3   407  NAD407      0.1821
      7  O4B       12.6730   10.6210   18.0100 O.3   407  NAD407     -0.3135
      8  C3B       14.9400    9.9130   18.4270 C.3   407  NAD407      0.2184
      9  O3B       15.7460   10.8810   19.0860 O.3   407  NAD407     -0.2174
     10  C2B       13.9570    9.2350   19.4000 C.3   407  NAD407      0.2570
     11  O2B       14.3900    9.1700   20.7360 O.3   407  NAD407     -0.2130
     12  C1B       12.7310   10.1560   19.3170 C.3   407  NAD407      0.3186
     13  N9A       11.4330    9.5210   19.6170 N.pl3 407  NAD407     -0.1439
     14  C8A       10.9620    8.3050   19.2190 C.3   407  NAD407      0.3377
     15  N7A        9.6710    8.1700   19.6210 N.2   407  NAD407     -0.2095
     16  C5A        9.2910    9.3250   20.2290 C.2   407  NAD407      0.2526
     17  C6A        8.1210    9.7490   20.8600 C.2   407  NAD407      0.4393
     18  N6A        7.0650    8.9370   21.0820 N.pl3 407  NAD407      0.2180
     19  N1A        8.1190   11.0080   21.4130 N.2   407  NAD407      0.0021
     20  C2A        9.2070   11.8680   21.3790 C.3   407  NAD407      0.5254
     21  N3A       10.3730   11.4220   20.8000 N.2   407  NAD407     -0.0055
     22  C4A       10.4140   10.1720   20.2500 C.2   407  NAD407      0.3518
     23  O3        15.0140    9.0870   13.2250 O.3   407  NAD407     -0.2703
     24  PN        15.4410   10.1010   12.0490 P.3   407  NAD407      0.2189
     25  O1N       16.2570    9.4540   11.0260 O.2   407  NAD407     -0.5170
     26  O2N       15.7490   11.4110   12.6190 O.3   407  NAD407     -0.4371
     27  O5D       14.0240   10.1240   11.2230 O.3   407  NAD407     -0.3112
     28  C5D       12.9440   10.8270   11.7950 C.3   407  NAD407      0.1813
     29  C4D       11.8200   10.9280   10.7750 C.3   407  NAD407      0.1799
     30  O4D       12.2510   11.6730    9.6360 O.3   407  NAD407     -0.3327
     31  C3D       11.3640    9.5790   10.2210 C.3   407  NAD407      0.2158
     32  O3D        9.9660    9.7340    9.8140 O.3   407  NAD407     -0.2175
     33  C2D       12.2420    9.4340    8.9860 C.3   407  NAD407      0.2309
     34  O2D       11.6590    8.6070    8.0000 O.3   407  NAD407     -0.2158
     35  C1D       12.2650   10.8900    8.4870 C.3   407  NAD407      0.2263
     36  N1N       13.3980   11.2580    7.6270 N.pl3 407  NAD407     -0.2787
     37  C2N       14.6290   10.6660    7.8540 C.3   407  NAD407      0.1244
     38  C3N       15.7150   11.0730    7.0770 C.2   407  NAD407      0.0544
     39  C7N       17.0930   10.5360    7.3290 C.2   407  NAD407      0.2818
     40  O7N       17.8520   10.4600    6.2050 O.2   407  NAD407     -0.2670
     41  N7N       17.5280   10.1220    8.5050 N.am  407  NAD407     -0.0839
     42  C4N       15.5830   11.9670    6.0200 C.2   407  NAD407      0.0033
     43  C5N       14.3160   12.5390    5.7870 C.2   407  NAD407      0.0157
     44  C6N       13.2580   12.2060    6.6420 C.2   407  NAD407      0.0633
@<TRIPOS>BOND
     1    43    42    1
     2    43    44    2
     3    42    38    2
     4    40    39    2
     5    44    36    1
     6    38    39    1
     7    38    37    1
     8    39    41   am
     9    36    37    1
    10    36    35    1
    11    34    33    1
    12    35    33    1
    13    35    30    1
    14    33    31    1
    15    30    29    1
    16    32    31    1
    17    31    29    1
    18    29    28    1
    19    25    24    2
    20    27    28    1
    21    27    24    1
    22    24    26    1
    23    24    23    1
    24    23     1    1
    25     3     1    2
    26     1     2    1
    27     1     4    1
    28     4     5    1
    29     5     6    1
    30     6     7    1
    31     6     8    1
    32     7    12    1
    33     8     9    1
    34     8    10    1
    35    14    13    1
    36    14    15    1
    37    12    10    1
    38    12    13    1
    39    10    11    1
    40    13    22    1
    41    15    16    2
    42    16    22    1
    43    16    17    1
    44    22    21    2
    45    21    20    1
    46    17    18    1
    47    17    19    2
    48    20    19    1
