@<TRIPOS>MOLECULE
3cmc_G3H_O_1.pdb
 10 9 0 0 0
SMALL
GASTEIGER

@<TRIPOS>ATOM
      1  O1        13.7010   10.5520    3.7750 O.2   400  G3H400     -0.2854
      2  C1        14.7670   10.0070    3.5270 C.2   400  G3H400      0.2426
      3  C2        15.0810    8.6610    4.1490 C.3   400  G3H400      0.2459
      4  O2        16.3690    8.6560    4.7750 O.3   400  G3H400     -0.2119
      5  C3        15.2480    7.7110    2.9830 C.3   400  G3H400      0.1946
      6  O1P       14.0240    7.1760    2.5950 O.3   400  G3H400     -0.2670
      7  O2P       12.0970    6.9400    1.2080 O.3   400  G3H400     -0.1145
      8  O3P       14.4270    6.6470    0.1770 O.2   400  G3H400     -0.2224
      9  O4P       13.5900    8.9260    0.9720 O.3   400  G3H400     -0.1145
     10  P         13.5190    7.4360    1.1020 P.3   400  G3H400      0.5327
@<TRIPOS>BOND
     1     8    10    2
     2     9    10    1
     3    10     7    1
     4    10     6    1
     5     6     5    1
     6     5     3    1
     7     2     1    2
     8     2     3    1
     9     3     4    1
