@<TRIPOS>MOLECULE
3cmf_PDN_A_1.pdb
 26 29 0 0 0
SMALL
GASTEIGER

@<TRIPOS>ATOM
      1  C1        15.1330  -12.9780   -5.4090 C.3   946  PDN946      0.0123
      2  C2        14.2310  -11.6750   -5.2910 C.3   946  PDN946      0.0695
      3  C3        12.8030  -11.9130   -5.0780 C.2   946  PDN946      0.1725
      4  C4        12.2980  -13.2310   -4.6490 C.2   946  PDN946      0.0290
      5  C5        13.1040  -14.2770   -4.4490 C.2   946  PDN946     -0.0416
      6  C6        12.5100  -15.6050   -3.9810 C.3   946  PDN946      0.0221
      7  C7        13.1300  -16.8970   -4.8690 C.3   946  PDN946      0.0048
      8  C8        14.5770  -16.8720   -4.9200 C.3   946  PDN946      0.0076
      9  C9        15.0630  -15.5120   -5.5490 C.3   946  PDN946      0.0610
     10  C10       14.6470  -14.2390   -4.6520 C.3   946  PDN946      0.0222
     11  C11       16.5860  -15.6750   -5.8470 C.2   946  PDN946      0.1506
     12  C12       17.0330  -16.8810   -6.6830 C.3   946  PDN946      0.0673
     13  C13       16.5210  -18.2160   -6.0360 C.3   946  PDN946      0.0393
     14  C14       14.9830  -18.0860   -5.8080 C.3   946  PDN946      0.0036
     15  C15       14.5630  -19.4760   -5.2670 C.3   946  PDN946      0.0031
     16  C16       15.5360  -20.4860   -6.0300 C.3   946  PDN946      0.0377
     17  C17       16.4420  -19.5540   -6.9110 C.3   946  PDN946      0.1799
     18  C18       17.3580  -18.4230   -4.7280 C.3   946  PDN946      0.0033
     19  C19       15.2990  -14.2620   -3.2580 C.3   946  PDN946      0.0045
     20  C20       17.8790  -20.2020   -7.1980 C.2   946  PDN946      0.2109
     21  C21       18.5390  -19.7890   -8.5130 C.3   946  PDN946      0.2484
     22  O1        11.9880  -10.9790   -5.2460 O.2   946  PDN946     -0.2914
     23  O2        17.4520  -14.9180   -5.4380 O.2   946  PDN946     -0.2961
     24  O3        15.8310  -19.2560   -8.1730 O.3   946  PDN946     -0.2181
     25  O4        18.3950  -20.9600   -6.4490 O.2   946  PDN946     -0.2907
     26  O5        19.7390  -19.0290   -8.2210 O.3   946  PDN946     -0.2118
@<TRIPOS>BOND
     1    21    26    1
     2    21    20    1
     3    24    17    1
     4    20    17    1
     5    20    25    2
     6    17    13    1
     7    17    16    1
     8    12    13    1
     9    12    11    1
    10    13    14    1
    11    13    18    1
    12    16    15    1
    13    11     9    1
    14    11    23    2
    15    14    15    1
    16    14     8    1
    17     9     8    1
    18     9    10    1
    19     1     2    1
    20     1    10    1
    21     2     3    1
    22    22     3    2
    23     3     4    1
    24     8     7    1
    25     7     6    1
    26    10     5    1
    27    10    19    1
    28     4     5    2
    29     5     6    1
