@<TRIPOS>MOLECULE
3cmf_NAP_A_1.pdb
 48 52 0 0 0
SMALL
GASTEIGER

@<TRIPOS>ATOM
      1  PA         6.3340  -15.9620    4.0210 P.3   944  NAP944      0.2189
      2  O1A        7.0710  -15.6600    5.1720 O.3   944  NAP944     -0.4371
      3  O2A        5.2530  -15.0540    3.5360 O.2   944  NAP944     -0.5170
      4  O5B        5.7680  -17.4940    4.1920 O.3   944  NAP944     -0.3112
      5  C5B        5.1640  -18.1550    3.3170 C.3   944  NAP944      0.1813
      6  C4B        4.9950  -19.6640    3.6150 C.3   944  NAP944      0.1820
      7  O4B        4.1200  -19.6900    4.7140 O.3   944  NAP944     -0.3136
      8  C3B        4.2580  -20.4540    2.5060 C.3   944  NAP944      0.2157
      9  O3B        4.8700  -21.7380    2.4820 O.3   944  NAP944     -0.2175
     10  C2B        2.7820  -20.4630    2.9640 C.3   944  NAP944      0.2314
     11  O2B        2.0980  -21.6470    2.4690 O.3   944  NAP944     -0.2630
     12  C1B        2.8950  -20.4280    4.4800 C.3   944  NAP944      0.3158
     13  N9A        1.8450  -19.7120    5.2210 N.pl3 944  NAP944     -0.1439
     14  C8A        1.1640  -18.5700    4.8510 C.3   944  NAP944      0.3377
     15  N7A        0.2480  -18.1890    5.8200 N.2   944  NAP944     -0.2095
     16  C5A        0.4180  -19.1350    6.7660 C.2   944  NAP944      0.2526
     17  C6A       -0.2580  -19.2370    7.9600 C.2   944  NAP944      0.4393
     18  N6A       -1.1880  -18.4490    8.4410 N.pl3 944  NAP944      0.2180
     19  N1A        0.1130  -20.3610    8.8050 N.2   944  NAP944      0.0021
     20  C2A        1.0800  -21.2930    8.4590 C.3   944  NAP944      0.5254
     21  N3A        1.7270  -21.1680    7.2740 N.2   944  NAP944     -0.0055
     22  C4A        1.3920  -20.0560    6.4010 C.2   944  NAP944      0.3518
     23  O3         7.3500  -15.9100    2.7980 O.3   944  NAP944     -0.2703
     24  PN         7.8230  -15.4570    1.4300 P.3   944  NAP944      0.2189
     25  O1N        9.1760  -15.7800    1.2680 O.3   944  NAP944     -0.4371
     26  O2N        6.8090  -16.0030    0.4440 O.2   944  NAP944     -0.5170
     27  O5D        7.5490  -14.0400    1.6430 O.3   944  NAP944     -0.3112
     28  C5D        6.4840  -13.1310    1.3850 C.3   944  NAP944      0.1813
     29  C4D        6.4830  -12.4060    0.0780 C.3   944  NAP944      0.1799
     30  O4D        7.6310  -11.4880    0.1030 O.3   944  NAP944     -0.3327
     31  C3D        6.8440  -13.2400   -1.2150 C.3   944  NAP944      0.2158
     32  O3D        5.8320  -14.2420   -1.5650 O.3   944  NAP944     -0.2175
     33  C2D        7.1720  -12.0810   -2.1590 C.3   944  NAP944      0.2309
     34  O2D        5.9350  -11.4480   -2.6360 O.3   944  NAP944     -0.2158
     35  C1D        8.0920  -11.2500   -1.2390 C.3   944  NAP944      0.2263
     36  N1N        9.5760  -11.5920   -1.1760 N.pl3 944  NAP944     -0.2787
     37  C2N       10.4840  -10.5850   -1.5940 C.3   944  NAP944      0.1244
     38  C3N       11.8940  -10.8710   -1.5860 C.2   944  NAP944      0.0544
     39  C7N       12.8880   -9.7900   -2.0350 C.2   944  NAP944      0.2818
     40  O7N       14.0860  -10.0320   -2.0340 O.2   944  NAP944     -0.2670
     41  N7N       12.2660   -8.6620   -2.3790 N.am  944  NAP944     -0.0839
     42  C4N       12.3830  -12.1720   -1.1490 C.2   944  NAP944      0.0033
     43  C5N       11.4780  -13.2290   -0.7060 C.2   944  NAP944      0.0157
     44  C6N       10.1140  -12.9170   -0.7270 C.2   944  NAP944      0.0633
     45  P2B        0.6680  -21.5200    1.7230 P.3   944  NAP944      0.5328
     46  O1X        0.8280  -20.6330    0.4870 O.2   944  NAP944     -0.2224
     47  O2X        0.2960  -22.9670    1.3780 O.3   944  NAP944     -0.1145
     48  O3X       -0.2820  -20.8480    2.7170 O.3   944  NAP944     -0.1145
@<TRIPOS>BOND
     1    34    33    1
     2    41    39   am
     3    33    35    1
     4    33    31    1
     5    39    40    2
     6    39    38    1
     7    37    38    1
     8    37    36    1
     9    38    42    2
    10    32    31    1
    11    35    36    1
    12    35    30    1
    13    31    29    1
    14    36    44    1
    15    42    43    1
    16    44    43    2
    17    29    30    1
    18    29    28    1
    19    26    24    2
    20    46    45    2
    21    25    24    1
    22    47    45    1
    23    28    27    1
    24    24    27    1
    25    24    23    1
    26    45    11    1
    27    45    48    1
    28    11    10    1
    29     9     8    1
    30     8    10    1
    31     8     6    1
    32    23     1    1
    33    10    12    1
    34     5     6    1
    35     5     4    1
    36     3     1    2
    37     6     7    1
    38     1     4    1
    39     1     2    1
    40    12     7    1
    41    12    13    1
    42    14    13    1
    43    14    15    1
    44    13    22    1
    45    15    16    2
    46    22    16    1
    47    22    21    2
    48    16    17    1
    49    21    20    1
    50    17    18    1
    51    17    19    2
    52    20    19    1
