@<TRIPOS>MOLECULE
3cmp_DBH_B_1.pdb
 11 11 0 0 0
SMALL
GASTEIGER

@<TRIPOS>ATOM
      1  O17       54.0690  105.4440   40.2160 O.co2 303  DBH303     -0.2404
      2  C21       54.4140  104.2860   40.5450 C.2   303  DBH303      0.3910
      3  O9        53.8540  103.6880   41.4900 O.co2 303  DBH303     -0.2404
      4  C18       55.5260  103.6020   39.7930 C.ar  303  DBH303      0.1218
      5  C15       56.2610  102.5900   40.4130 C.ar  303  DBH303      0.0100
      6  C12       57.2930  101.9530   39.7280 C.ar  303  DBH303      0.0037
      7  C3        55.8330  103.9690   38.4840 C.ar  303  DBH303      0.2405
      8  O3        55.1310  104.9550   37.8580 O.3   303  DBH303     -0.2829
      9  C6        56.8620  103.3350   37.8020 C.ar  303  DBH303      0.2345
     10  C9        57.5940  102.3260   38.4210 C.ar  303  DBH303      0.0454
     11  O6        57.1570  103.6980   36.5230 O.3   303  DBH303     -0.2831
@<TRIPOS>BOND
     1    11     9    1
     2     9    10   ar
     3     9     7   ar
     4     8     7    1
     5    10     6   ar
     6     7     4   ar
     7     6     5   ar
     8     4     5   ar
     9     4     2    1
    10     1     2   ar
    11     2     3   ar
