@<TRIPOS>MOLECULE
3cmp_EB4_A_1.pdb
 48 51 0 0 0
SMALL
GASTEIGER

@<TRIPOS>ATOM
      1  O6        30.1000   75.1610   64.0560 O.3   183  EB4183     -0.2831
      2  O4        26.7280   77.3940   62.8670 O.3   183  EB4183     -0.2831
      3  O5        26.4520   75.7370   65.6290 O.3   183  EB4183     -0.2831
      4  N1        29.1850   81.5590   64.7870 N.am  183  EB4183     -0.1879
      5  C5        25.6830   76.4420   66.5060 C.ar  183  EB4183      0.2344
      6  C4        26.8350   78.7120   62.5470 C.ar  183  EB4183      0.2344
      7  C1        27.8300   79.4760   63.1310 C.ar  183  EB4183      0.2386
      8  C2        25.8850   77.8050   66.6650 C.ar  183  EB4183      0.2386
      9  C6        31.0220   75.4790   65.0070 C.ar  183  EB4183      0.2344
     10  C8        24.6930   75.7940   67.2400 C.ar  183  EB4183      0.0454
     11  N2        26.4880   80.4760   68.1490 N.am  183  EB4183     -0.1879
     12  C9        32.2930   74.9140   64.9640 C.ar  183  EB4183      0.0454
     13  C10       26.0700   80.6360   61.3200 C.ar  183  EB4183      0.0036
     14  O3        29.4490   76.9180   66.0520 O.3   183  EB4183     -0.2830
     15  N3        31.3210   78.9690   67.8400 N.am  183  EB4183     -0.1879
     16  C16       27.9500   80.8250   62.8220 C.ar  183  EB4183      0.0971
     17  C7        25.9520   79.2870   61.6400 C.ar  183  EB4183      0.0454
     18  C3        30.6970   76.3680   66.0200 C.ar  183  EB4183      0.2386
     19  C11       23.9090   76.5140   68.1340 C.ar  183  EB4183      0.0036
     20  O1        28.6800   78.8840   64.0180 O.3   183  EB4183     -0.2830
     21  O2        26.8560   78.4260   65.9400 O.3   183  EB4183     -0.2830
     22  C12       33.2330   75.2420   65.9380 C.ar  183  EB4183      0.0036
     23  C15       32.9040   76.1350   66.9560 C.ar  183  EB4183      0.0080
     24  C14       24.1120   77.8820   68.2920 C.ar  183  EB4183      0.0080
     25  C13       27.0710   81.4030   61.9110 C.ar  183  EB4183      0.0080
     26  O7        29.7320   82.3530   62.7550 O.2   183  EB4183     -0.2682
     27  C19       29.0340   81.6440   63.4620 C.2   183  EB4183      0.2686
     28  C22       30.2110   82.2690   65.5470 C.3   183  EB4183      0.2370
     29  C25       31.2930   81.3000   65.9600 C.2   183  EB4183      0.3409
     30  O10       31.5420   80.3370   65.2480 O.2   183  EB4183     -0.2481
     31  O15       32.0920   81.4660   67.1780 O.3   183  EB4183     -0.4447
     32  C30       31.6830   81.2590   68.5440 C.3   183  EB4183      0.2414
     33  C24       30.9190   79.9600   68.8350 C.3   183  EB4183      0.2370
     34  C21       31.2430   77.6590   68.0770 C.2   183  EB4183      0.2686
     35  C18       31.6340   76.6990   66.9920 C.ar  183  EB4183      0.0971
     36  O9        30.8460   77.2080   69.1410 O.2   183  EB4183     -0.2682
     37  C27       29.4150   80.1180   68.7860 C.2   183  EB4183      0.3409
     38  O12       28.7920   79.5050   67.9350 O.2   183  EB4183     -0.2481
     39  C28       29.5750   82.8560   66.8000 C.3   183  EB4183      0.2414
     40  O13       28.2480   83.3500   66.6540 O.3   183  EB4183     -0.4447
     41  C26       27.1000   82.4980   66.9400 C.2   183  EB4183      0.3409
     42  O11       26.3690   82.2650   65.9910 O.2   183  EB4183     -0.2481
     43  C23       26.7670   81.9060   68.3020 C.3   183  EB4183      0.2370
     44  C29       27.8480   82.0930   69.3940 C.3   183  EB4183      0.2414
     45  O14       28.6580   80.9450   69.7280 O.3   183  EB4183     -0.4447
     46  C20       25.3120   80.0050   67.7260 C.2   183  EB4183      0.2686
     47  O8        24.3770   80.7380   67.4470 O.2   183  EB4183     -0.2682
     48  C17       25.1060   78.5260   67.5630 C.ar  183  EB4183      0.0971
@<TRIPOS>BOND
     1    13    17   ar
     2    13    25   ar
     3    17     6   ar
     4    25    16   ar
     5     6     2    1
     6     6     7   ar
     7    26    27    2
     8    16     7   ar
     9    16    27    1
    10     7    20    1
    11    27     4   am
    12     1     9    1
    13     4    28    1
    14    12     9   ar
    15    12    22   ar
    16     9    18   ar
    17    30    29    2
    18    28    29    1
    19    28    39    1
    20     3     5    1
    21    22    23   ar
    22    21     8    1
    23    29    31    1
    24    42    41    2
    25    18    14    1
    26    18    35   ar
    27     5     8   ar
    28     5    10   ar
    29    40    39    1
    30    40    41    1
    31     8    48   ar
    32    41    43    1
    33    23    35   ar
    34    35    34    1
    35    31    32    1
    36    10    19   ar
    37    47    46    2
    38    48    46    1
    39    48    24   ar
    40    46    11   am
    41    15    34   am
    42    15    33    1
    43    38    37    2
    44    34    36    2
    45    19    24   ar
    46    11    43    1
    47    43    44    1
    48    32    33    1
    49    37    33    1
    50    37    45    1
    51    44    45    1
