@<TRIPOS>MOLECULE
3cmq_FA5_A_1.pdb
 34 37 0 0 0
SMALL
GASTEIGER

@<TRIPOS>ATOM
      1  C          4.6390   21.0470   11.3830 C.2   999  FA5999      0.3389
      2  O          4.4960   21.8640   12.3050 O.2   999  FA5999     -0.2482
      3  CA         5.0200   19.5910   11.7530 C.3   999  FA5999      0.1946
      4  N          5.3060   19.4360   13.1730 N.3   999  FA5999     -0.1206
      5  CB         3.8750   18.6550   11.3400 C.3   999  FA5999      0.0568
      6  CG         4.0840   17.1900   11.5780 C.ar  999  FA5999     -0.0202
      7  CD1        4.6640   16.3580   10.5940 C.ar  999  FA5999     -0.0042
      8  CD2        3.7120   16.5730   12.8000 C.ar  999  FA5999     -0.0042
      9  CE1        4.8620   14.9770   10.8190 C.ar  999  FA5999     -0.0003
     10  CE2        3.9140   15.1900   13.0190 C.ar  999  FA5999     -0.0003
     11  CZ         4.4890   14.3780   12.0350 C.ar  999  FA5999     -0.0000
     12  P          4.4160   23.0110    9.5650 P.3   999  FA5999      0.2723
     13  OP1        4.6070   23.8360   10.7630 O.3   999  FA5999     -0.4273
     14  OP2        4.5540   23.3840    8.3220 O.2   999  FA5999     -0.5082
     15  OP3        4.4820   21.3460    9.9280 O.3   999  FA5999     -0.4091
     16  O5'        2.8730   23.3900    9.7810 O.3   999  FA5999     -0.3024
     17  C5'        2.0490   23.0470    8.6270 C.3   999  FA5999      0.1823
     18  C4'        0.7930   23.6260    7.8680 C.3   999  FA5999      0.1822
     19  O4'        0.5480   24.7730    8.7670 O.3   999  FA5999     -0.3135
     20  C3'        1.4890   24.2540    6.6590 C.3   999  FA5999      0.2184
     21  O3'        1.3880   23.4130    5.5040 O.3   999  FA5999     -0.2174
     22  C2'        0.8520   25.6630    6.5270 C.3   999  FA5999      0.2570
     23  O2'       -0.0620   25.8380    5.4320 O.3   999  FA5999     -0.2130
     24  C1'        0.2580   25.9350    7.9380 C.3   999  FA5999      0.3186
     25  N9         0.8070   27.1590    8.6690 N.pl3 999  FA5999     -0.1439
     26  C8         2.1250   27.5990    8.7290 C.3   999  FA5999      0.3377
     27  N7         2.3310   28.6830    9.4260 N.2   999  FA5999     -0.2095
     28  C5         1.0450   29.0170    9.8860 C.2   999  FA5999      0.2526
     29  C6         0.4880   30.1020   10.7250 C.2   999  FA5999      0.4393
     30  N6         1.2650   31.0890   11.2540 N.pl3 999  FA5999      0.2180
     31  N1        -0.8720   30.1160   10.9820 N.2   999  FA5999      0.0021
     32  C2        -1.6490   29.1250   10.4490 C.3   999  FA5999      0.5254
     33  N3        -1.2530   28.0790    9.6660 N.2   999  FA5999     -0.0055
     34  C4         0.0970   28.0980    9.4340 C.2   999  FA5999      0.3518
@<TRIPOS>BOND
     1    23    22    1
     2    21    20    1
     3    22    20    1
     4    22    24    1
     5    20    18    1
     6    18    17    1
     7    18    19    1
     8    24    25    1
     9    24    19    1
    10    14    12    2
    11    17    16    1
    12    25    26    1
    13    25    34    1
    14    26    27    1
    15    27    28    2
    16    34    33    2
    17    34    28    1
    18    12    16    1
    19    12    15    1
    20    12    13    1
    21    33    32    1
    22    28    29    1
    23    15     1    1
    24    32    31    1
    25     7     9   ar
    26     7     6   ar
    27    29    31    2
    28    29    30    1
    29     9    11   ar
    30     5     6    1
    31     5     3    1
    32     1     3    1
    33     1     2    2
    34     6     8   ar
    35     3     4    1
    36    11    10   ar
    37     8    10   ar
