@<TRIPOS>MOLECULE
3cmt_ADP_A_1.pdb
 27 29 0 0 0
SMALL
GASTEIGER

@<TRIPOS>ATOM
      1  PB        86.3380   25.6260   36.9080 P.3   502  ADP502      0.5373
      2  O1B       87.8520   25.5200   36.9060 O.3   502  ADP502     -0.1143
      3  O2B       85.6450   24.9630   38.0650 O.3   502  ADP502     -0.1143
      4  O3B       85.7330   25.3420   35.5390 O.2   502  ADP502     -0.2221
      5  PA        87.0580   28.2700   37.4050 P.3   502  ADP502      0.2231
      6  O1A       87.6610   28.0430   38.7700 O.3   502  ADP502     -0.4370
      7  O2A       87.9500   28.2880   36.1630 O.2   502  ADP502     -0.5169
      8  O3A       85.9200   27.1580   37.1900 O.3   502  ADP502     -0.2261
      9  O5'       86.2000   29.6210   37.4570 O.3   502  ADP502     -0.3111
     10  C5'       85.1300   29.6650   38.3670 C.3   502  ADP502      0.1813
     11  C4'       84.6430   31.0880   38.3740 C.3   502  ADP502      0.1821
     12  O4'       85.7660   31.9660   38.2670 O.3   502  ADP502     -0.3135
     13  C3'       83.7350   31.3370   37.1920 C.3   502  ADP502      0.2184
     14  O3'       82.5870   32.0440   37.6770 O.3   502  ADP502     -0.2174
     15  C2'       84.5440   32.2400   36.2850 C.3   502  ADP502      0.2570
     16  O2'       83.7460   33.2510   35.6520 O.3   502  ADP502     -0.2130
     17  C1'       85.5690   32.8930   37.2010 C.3   502  ADP502      0.3186
     18  N9        86.8240   33.0980   36.4330 N.pl3 502  ADP502     -0.1439
     19  C8        87.6610   32.1180   36.0110 C.3   502  ADP502      0.3377
     20  N7        88.7120   32.6360   35.3200 N.2   502  ADP502     -0.2095
     21  C5        88.5390   33.9750   35.2920 C.2   502  ADP502      0.2526
     22  C6        89.2770   35.1250   34.7100 C.2   502  ADP502      0.4393
     23  N6        90.4270   34.9090   34.0220 N.pl3 502  ADP502      0.2180
     24  N1        88.7620   36.3730   34.9020 N.2   502  ADP502      0.0021
     25  C2        87.6110   36.5710   35.5930 C.3   502  ADP502      0.5254
     26  N3        86.8800   35.5700   36.1340 N.2   502  ADP502     -0.0055
     27  C4        87.2910   34.2790   36.0220 C.2   502  ADP502      0.3518
@<TRIPOS>BOND
     1    23    22    1
     2    22    24    2
     3    22    21    1
     4    24    25    1
     5    21    20    2
     6    21    27    1
     7    20    19    1
     8     4     1    2
     9    25    26    1
    10    16    15    1
    11    19    18    1
    12    27    26    2
    13    27    18    1
    14     7     5    2
    15    15    13    1
    16    15    17    1
    17    18    17    1
    18     2     1    1
    19     1     8    1
    20     1     3    1
    21     8     5    1
    22    13    14    1
    23    13    11    1
    24    17    12    1
    25     5     9    1
    26     5     6    1
    27     9    10    1
    28    12    11    1
    29    10    11    1
