@<TRIPOS>MOLECULE
3cmu_ADP_A_1.pdb
 27 29 0 0 0
SMALL
GASTEIGER

@<TRIPOS>ATOM
      1  PB       -11.4310  -80.3320  162.3910 P.3   502  ADP502      0.5373
      2  O1B      -11.4770  -80.9530  163.7850 O.3   502  ADP502     -0.1143
      3  O2B      -10.5320  -81.0360  161.4020 O.2   502  ADP502     -0.2221
      4  O3B      -11.3500  -78.8160  162.4470 O.3   502  ADP502     -0.1143
      5  PA       -13.8290  -81.7620  162.1670 P.3   502  ADP502      0.2231
      6  O1A      -13.0030  -83.0290  162.1070 O.2   502  ADP502     -0.5169
      7  O2A      -14.4470  -81.3520  163.4730 O.3   502  ADP502     -0.4370
      8  O3A      -12.8690  -80.5500  161.7080 O.3   502  ADP502     -0.2261
      9  O5'      -15.0210  -81.8180  161.0840 O.3   502  ADP502     -0.3111
     10  C5'      -14.7610  -82.3330  159.7790 C.3   502  ADP502      0.1813
     11  C4'      -15.9690  -82.2060  158.8590 C.3   502  ADP502      0.1821
     12  O4'      -17.0870  -82.7350  159.5580 O.3   502  ADP502     -0.3135
     13  C3'      -16.2950  -80.7600  158.4920 C.3   502  ADP502      0.2184
     14  O3'      -16.7090  -80.6640  157.1180 O.3   502  ADP502     -0.2174
     15  C2'      -17.4350  -80.3850  159.4030 C.3   502  ADP502      0.2570
     16  O2'      -18.3040  -79.4300  158.7870 O.3   502  ADP502     -0.2130
     17  C1'      -18.1020  -81.7310  159.6690 C.3   502  ADP502      0.3186
     18  N9       -18.7020  -81.7530  161.0270 N.pl3 502  ADP502     -0.1439
     19  C8       -18.0680  -81.4230  162.1720 C.3   502  ADP502      0.3377
     20  N7       -18.9050  -81.5460  163.2370 N.2   502  ADP502     -0.2095
     21  C5       -20.0890  -81.9600  162.7630 C.2   502  ADP502      0.2526
     22  C6       -21.3910  -82.2890  163.3490 C.2   502  ADP502      0.4393
     23  N6       -21.5340  -82.1720  164.6850 N.pl3 502  ADP502      0.2180
     24  N1       -22.3840  -82.7010  162.5180 N.2   502  ADP502      0.0021
     25  C2       -22.2090  -82.8210  161.1850 C.3   502  ADP502      0.5254
     26  N3       -21.0460  -82.5310  160.5800 N.2   502  ADP502     -0.0055
     27  C4       -19.9670  -82.1060  161.3050 C.2   502  ADP502      0.3518
@<TRIPOS>BOND
     1    14    13    1
     2    13    11    1
     3    13    15    1
     4    16    15    1
     5    11    12    1
     6    11    10    1
     7    15    17    1
     8    12    17    1
     9    17    18    1
    10    10     9    1
    11    26    25    1
    12    26    27    2
    13    18    27    1
    14    18    19    1
    15     9     5    1
    16    25    24    1
    17    27    21    1
    18     3     1    2
    19     8     5    1
    20     8     1    1
    21     6     5    2
    22     5     7    1
    23    19    20    1
    24     1     4    1
    25     1     2    1
    26    24    22    2
    27    21    20    2
    28    21    22    1
    29    22    23    1
