@<TRIPOS>MOLECULE
3cmv_ANP_A_1.pdb
 31 33 0 0 0
SMALL
GASTEIGER

@<TRIPOS>ATOM
      1  PG       -11.6690   32.3740  218.6700 P.3   400  ANP400      0.4884
      2  O1G      -12.3790   32.7220  219.9630 O.3   400  ANP400     -0.1240
      3  O2G      -11.4150   33.5670  217.8010 O.2   400  ANP400     -0.2331
      4  O3G      -12.2820   31.2130  217.9310 O.3   400  ANP400     -0.1240
      5  PB        -9.2630   32.6680  220.4760 P.3   400  ANP400      0.4669
      6  O1B       -8.8120   34.0290  220.0210 O.2   400  ANP400     -0.2351
      7  O2B      -10.2600   32.5990  221.6210 O.3   400  ANP400     -0.1253
      8  N3B      -10.0650   31.8410  219.1460 N.3   400  ANP400     -0.0163
      9  PA        -6.9600   30.9060  220.1760 P.3   400  ANP400      0.2220
     10  O1A       -5.8550   30.4990  221.1100 O.3   400  ANP400     -0.4370
     11  O2A       -7.7940   29.8240  219.5210 O.2   400  ANP400     -0.5170
     12  O3A       -7.9160   31.9190  220.9990 O.3   400  ANP400     -0.2360
     13  O5'       -6.3460   31.9140  219.0800 O.3   400  ANP400     -0.3111
     14  C5'       -4.9980   31.8550  218.5610 C.3   400  ANP400      0.1813
     15  C4'       -4.7600   30.7170  217.5510 C.3   400  ANP400      0.1821
     16  O4'       -4.0670   29.6430  218.1990 O.3   400  ANP400     -0.3135
     17  C3'       -3.9950   31.0020  216.2360 C.3   400  ANP400      0.2184
     18  O3'       -3.2590   32.2380  216.1720 O.3   400  ANP400     -0.2174
     19  C2'       -3.0390   29.8400  216.0900 C.3   400  ANP400      0.2570
     20  O2'       -1.7260   30.3500  216.2870 O.3   400  ANP400     -0.2130
     21  C1'       -3.3480   28.8780  217.2310 C.3   400  ANP400      0.3186
     22  N9        -4.1510   27.6530  216.8750 N.pl3 400  ANP400     -0.1439
     23  C8        -5.3790   27.3480  217.3690 C.3   400  ANP400      0.3377
     24  N7        -5.8500   26.1640  216.8870 N.2   400  ANP400     -0.2095
     25  C5        -4.9100   25.6590  216.0620 C.2   400  ANP400      0.2526
     26  C6        -4.7560   24.4360  215.2170 C.2   400  ANP400      0.4393
     27  N6        -5.7260   23.4930  215.1570 N.pl3 400  ANP400      0.2180
     28  N1        -3.6100   24.2930  214.4990 N.2   400  ANP400      0.0021
     29  C2        -2.6280   25.2190  214.5370 C.3   400  ANP400      0.5254
     30  N3        -2.7010   26.3490  215.2850 N.2   400  ANP400     -0.0055
     31  C4        -3.7920   26.6350  216.0600 C.2   400  ANP400      0.3518
@<TRIPOS>BOND
     1    28    29    1
     2    28    26    2
     3    29    30    1
     4    27    26    1
     5    26    25    1
     6    30    31    2
     7    31    25    1
     8    31    22    1
     9    25    24    2
    10    19    17    1
    11    19    20    1
    12    19    21    1
    13    18    17    1
    14    17    15    1
    15    22    21    1
    16    22    23    1
    17    24    23    1
    18    21    16    1
    19    15    16    1
    20    15    14    1
    21     3     1    2
    22     4     1    1
    23    14    13    1
    24     1     8    1
    25     1     2    1
    26    13     9    1
    27     8     5    1
    28    11     9    2
    29     6     5    2
    30     9    12    1
    31     9    10    1
    32     5    12    1
    33     5     7    1
