@<TRIPOS>MOLECULE
3cmw_ADP_A_1.pdb
 27 29 0 0 0
SMALL
GASTEIGER

@<TRIPOS>ATOM
      1  PB        86.6610   24.6090   37.0560 P.3   502  ADP502      0.5373
      2  O1B       88.1750   24.5160   37.1580 O.3   502  ADP502     -0.1143
      3  O2B       85.8910   23.7610   38.0500 O.3   502  ADP502     -0.1143
      4  O3B       86.2030   24.4180   35.6090 O.2   502  ADP502     -0.2221
      5  PA        87.2930   27.3030   37.7320 P.3   502  ADP502      0.2231
      6  O1A       88.0000   27.1180   39.0470 O.3   502  ADP502     -0.4370
      7  O2A       88.1610   27.3730   36.4800 O.2   502  ADP502     -0.5169
      8  O3A       86.2100   26.1060   37.5360 O.3   502  ADP502     -0.2261
      9  O5'       86.4230   28.6430   37.8500 O.3   502  ADP502     -0.3111
     10  C5'       85.4390   28.7240   38.8630 C.3   502  ADP502      0.1813
     11  C4'       84.8200   30.0940   38.8110 C.3   502  ADP502      0.1821
     12  O4'       85.8670   31.0570   38.7090 O.3   502  ADP502     -0.3135
     13  C3'       83.9640   30.2540   37.5770 C.3   502  ADP502      0.2184
     14  O3'       82.8180   31.0220   37.9470 O.3   502  ADP502     -0.2174
     15  C2'       84.8270   31.0760   36.6440 C.3   502  ADP502      0.2570
     16  O2'       84.0750   31.8910   35.7400 O.3   502  ADP502     -0.2130
     17  C1'       85.6760   31.9080   37.5820 C.3   502  ADP502      0.3186
     18  N9        86.9470   32.1840   36.8780 N.pl3 502  ADP502     -0.1439
     19  C8        87.7980   31.2490   36.4160 C.3   502  ADP502      0.3377
     20  N7        88.8730   31.8140   35.8050 N.2   502  ADP502     -0.2095
     21  C5        88.6990   33.1380   35.8660 C.2   502  ADP502      0.2526
     22  C6        89.4590   34.3080   35.3920 C.2   502  ADP502      0.4393
     23  N6        90.6280   34.0880   34.7350 N.pl3 502  ADP502      0.2180
     24  N1        88.9530   35.5520   35.6460 N.2   502  ADP502      0.0021
     25  C2        87.7790   35.7160   36.3070 C.3   502  ADP502      0.5254
     26  N3        87.0310   34.6830   36.7580 N.2   502  ADP502     -0.0055
     27  C4        87.4330   33.3910   36.5730 C.2   502  ADP502      0.3518
@<TRIPOS>BOND
     1    23    22    1
     2    22    24    2
     3    22    21    1
     4     4     1    2
     5    24    25    1
     6    16    15    1
     7    20    21    2
     8    20    19    1
     9    21    27    1
    10    25    26    1
    11    19    18    1
    12     7     5    2
    13    27    26    2
    14    27    18    1
    15    15    13    1
    16    15    17    1
    17    18    17    1
    18     1     2    1
    19     1     8    1
    20     1     3    1
    21     8     5    1
    22    13    14    1
    23    13    11    1
    24    17    12    1
    25     5     9    1
    26     5     6    1
    27     9    10    1
    28    12    11    1
    29    11    10    1
