@<TRIPOS>MOLECULE
3cmx_ADP_A_1.pdb
 27 29 0 0 0
SMALL
GASTEIGER

@<TRIPOS>ATOM
      1  PB        86.9140   26.7740   37.9340 P.3   502  ADP502      0.5373
      2  O1B       88.4150   26.7480   38.1540 O.3   502  ADP502     -0.1143
      3  O2B       86.1000   26.1140   39.0200 O.3   502  ADP502     -0.1143
      4  O3B       86.4670   26.3770   36.5310 O.2   502  ADP502     -0.2221
      5  PA        87.5630   29.4520   38.3590 P.3   502  ADP502      0.2231
      6  O1A       88.1390   29.2040   39.7400 O.3   502  ADP502     -0.4370
      7  O2A       88.4280   29.4590   37.1050 O.2   502  ADP502     -0.5169
      8  O3A       86.4660   28.3060   38.1470 O.3   502  ADP502     -0.2261
      9  O5'       86.7080   30.8220   38.3950 O.3   502  ADP502     -0.3111
     10  C5'       85.7620   30.9890   39.4370 C.3   502  ADP502      0.1813
     11  C4'       85.1460   32.3630   39.3380 C.3   502  ADP502      0.1821
     12  O4'       86.1950   33.3140   39.2430 O.3   502  ADP502     -0.3135
     13  C3'       84.2690   32.4830   38.0960 C.3   502  ADP502      0.2184
     14  O3'       83.0880   33.2420   38.4070 O.3   502  ADP502     -0.2174
     15  C2'       85.1120   33.2800   37.1220 C.3   502  ADP502      0.2570
     16  O2'       84.3410   34.1090   36.2260 O.3   502  ADP502     -0.2130
     17  C1'       86.0130   34.0840   38.0520 C.3   502  ADP502      0.3186
     18  N9        87.3030   34.2970   37.3610 N.pl3 502  ADP502     -0.1439
     19  C8        88.1510   33.3310   36.9150 C.3   502  ADP502      0.3377
     20  N7        89.2430   33.8950   36.3200 N.2   502  ADP502     -0.2095
     21  C5        89.0860   35.2460   36.3830 C.2   502  ADP502      0.2526
     22  C6        89.8440   36.4540   35.9480 C.2   502  ADP502      0.4393
     23  N6        91.0270   36.2850   35.3120 N.pl3 502  ADP502      0.2180
     24  N1        89.3340   37.7010   36.2040 N.2   502  ADP502      0.0021
     25  C2        88.1550   37.8720   36.8370 C.3   502  ADP502      0.5254
     26  N3        87.4070   36.8210   37.2570 N.2   502  ADP502     -0.0055
     27  C4        87.8020   35.5130   37.0660 C.2   502  ADP502      0.3518
@<TRIPOS>BOND
     1    23    22    1
     2    22    24    2
     3    22    21    1
     4    24    25    1
     5    16    15    1
     6    20    21    2
     7    20    19    1
     8    21    27    1
     9     4     1    2
    10    25    26    1
    11    19    18    1
    12    27    26    2
    13    27    18    1
    14     7     5    2
    15    15    17    1
    16    15    13    1
    17    18    17    1
    18     1     8    1
    19     1     2    1
    20     1     3    1
    21    17    12    1
    22    13    14    1
    23    13    11    1
    24     8     5    1
    25     5     9    1
    26     5     6    1
    27     9    10    1
    28    12    11    1
    29    11    10    1
