@<TRIPOS>MOLECULE
3cn0_LJ1_A_1.pdb
 17 18 0 0 0
SMALL
GASTEIGER

@<TRIPOS>ATOM
      1  CAA       -0.7130    2.5160  -10.2740 C.3   128  LJ1128      0.0344
      2  CAM       -0.5260    1.1360   -9.6290 C.ar  128  LJ1128      0.0164
      3  CAK       -0.7400    0.9530   -8.2740 C.ar  128  LJ1128     -0.0054
      4  CAQ       -0.1410    0.0340  -10.4080 C.ar  128  LJ1128      0.1877
      5  OAC        0.0580    0.2320  -11.7220 O.3   128  LJ1128     -0.2872
      6  CAN        0.0510   -1.2410   -9.8380 C.ar  128  LJ1128      0.0164
      7  CAB        0.4680   -2.4400  -10.6820 C.3   128  LJ1128      0.0344
      8  CAL       -0.1850   -1.4190   -8.4920 C.ar  128  LJ1128     -0.0054
      9  CAP       -0.5840   -0.3210   -7.7400 C.ar  128  LJ1128     -0.0223
     10  CAE       -0.7620   -0.4330   -6.3900 C.3   128  LJ1128      0.0310
     11  CAD        0.4420   -0.2900   -5.7200 C.3   128  LJ1128      0.0310
     12  CAO        0.4310   -0.3180   -4.3510 C.ar  128  LJ1128     -0.0218
     13  CAI       -0.4530    0.5660   -3.7060 C.ar  128  LJ1128     -0.0043
     14  CAG       -0.4620    0.5450   -2.3330 C.ar  128  LJ1128     -0.0003
     15  CAF        0.3930   -0.2760   -1.6030 C.ar  128  LJ1128     -0.0000
     16  CAH        1.2860   -1.1430   -2.2510 C.ar  128  LJ1128     -0.0003
     17  CAJ        1.2830   -1.1400   -3.6380 C.ar  128  LJ1128     -0.0043
@<TRIPOS>BOND
     1     5     4    1
     2     7     6    1
     3     4     6   ar
     4     4     2   ar
     5     1     2    1
     6     6     8   ar
     7     2     3   ar
     8     8     9   ar
     9     3     9   ar
    10     9    10    1
    11    10    11    1
    12    11    12    1
    13    12    13   ar
    14    12    17   ar
    15    13    14   ar
    16    17    16   ar
    17    14    15   ar
    18    16    15   ar
