@<TRIPOS>MOLECULE
3cn1_LJ2_A_1.pdb
 17 18 0 0 0
SMALL
GASTEIGER

@<TRIPOS>ATOM
      1  CAK       -1.0630    0.9360   -4.2840 C.ar  128  LJ2128      0.0099
      2  CAM       -0.9310    0.7990   -2.9120 C.ar  128  LJ2128      0.0739
      3 BRAB       -2.0890    1.8000   -1.7820 Br    128  LJ2128     -0.0457
      4  CAO        0.0350   -0.0380   -2.3720 C.ar  128  LJ2128      0.2079
      5  OAA        0.1870   -0.1870   -1.0300 O.3   128  LJ2128     -0.2855
      6  CAN        0.8540   -0.7470   -3.2230 C.ar  128  LJ2128      0.0739
      7 BRAC        2.1850   -1.8900   -2.5520 Br    128  LJ2128     -0.0457
      8  CAL        0.7190   -0.6150   -4.5900 C.ar  128  LJ2128      0.0099
      9  CAQ       -0.2470    0.2150   -5.1320 C.ar  128  LJ2128      0.0012
     10  CAE       -0.3610    0.3550   -6.5220 C.2   128  LJ2128      0.0000
     11  CAD        0.2390   -0.5360   -7.4150 C.2   128  LJ2128      0.0000
     12  CAP        0.1870   -0.4160   -8.8180 C.ar  128  LJ2128      0.0000
     13  CAI       -0.1210    0.7980   -9.4570 C.ar  128  LJ2128      0.0000
     14  CAG       -0.1100    0.8480  -10.8580 C.ar  128  LJ2128      0.0000
     15  CAF        0.1770   -0.2850  -11.6370 C.ar  128  LJ2128      0.0000
     16  CAH        0.4840   -1.4860  -10.9970 C.ar  128  LJ2128      0.0000
     17  CAJ        0.4860   -1.5330   -9.5940 C.ar  128  LJ2128      0.0000
@<TRIPOS>BOND
     1    15    16   ar
     2    15    14   ar
     3    16    17   ar
     4    14    13   ar
     5    17    12   ar
     6    13    12   ar
     7    12    11    1
     8    11    10    2
     9    10     9    1
    10     9     8   ar
    11     9     1   ar
    12     8     6   ar
    13     1     2   ar
    14     6     7    1
    15     6     4   ar
    16     2     4   ar
    17     2     3    1
    18     4     5    1
