@<TRIPOS>MOLECULE
3cn2_LJ3_A_1.pdb
 15 16 0 0 0
SMALL
GASTEIGER

@<TRIPOS>ATOM
      1  CAI       -0.9700    0.8110   -6.0490 C.ar  128  LJ3128      0.0099
      2  CAL       -1.1140    0.9090   -4.6710 C.ar  128  LJ3128      0.0739
      3 BRAB       -2.3570    1.9950   -3.7620 Br    128  LJ3128     -0.0457
      4  CAK       -0.3710    0.2350   -3.8600 C.ar  128  LJ3128      0.2079
      5  OAA       -0.3280    0.1770   -2.4760 O.3   128  LJ3128     -0.2855
      6  CAM        0.6550   -0.6960   -4.4320 C.ar  128  LJ3128      0.0739
      7 BRAC        1.8130   -1.8060   -3.3040 Br    128  LJ3128     -0.0457
      8  CAJ        0.7940   -0.8110   -5.8390 C.ar  128  LJ3128      0.0099
      9  CAO       -0.0280   -0.0220   -6.6600 C.ar  128  LJ3128      0.0012
     10  CAN        0.0050   -0.0670   -8.0700 C.ar  128  LJ3128      0.0000
     11  CAG        0.1070   -1.3150   -8.7140 C.ar  128  LJ3128      0.0000
     12  CAE        0.1180   -1.4150  -10.1030 C.ar  128  LJ3128      0.0000
     13  CAD       -0.0190   -0.2860  -10.9350 C.ar  128  LJ3128      0.0000
     14  CAF       -0.1120    0.9610  -10.2920 C.ar  128  LJ3128      0.0000
     15  CAH       -0.1180    1.0810   -8.8890 C.ar  128  LJ3128      0.0000
@<TRIPOS>BOND
     1    13    14   ar
     2    13    12   ar
     3    14    15   ar
     4    12    11   ar
     5    15    10   ar
     6    11    10   ar
     7    10     9    1
     8     9     1   ar
     9     9     8   ar
    10     1     2   ar
    11     8     6   ar
    12     2     4   ar
    13     2     3    1
    14     6     4   ar
    15     6     7    1
    16     4     5    1
