@<TRIPOS>MOLECULE
3cn3_LJ4_A_1.pdb
 16 17 0 0 0
SMALL
GASTEIGER

@<TRIPOS>ATOM
      1  CAI        1.2110   -0.9940   -5.4040 C.ar  128  LJ4128      0.0474
      2  CAL        1.0900   -0.8480   -4.0160 C.ar  128  LJ4128      0.0770
      3 BRAB        2.2740   -1.7180   -2.8160 Br    128  LJ4128     -0.0456
      4  CAP        0.0970   -0.0440   -3.4850 C.ar  128  LJ4128      0.2081
      5  OAA       -0.0120    0.0930   -2.1370 O.3   128  LJ4128     -0.2855
      6  CAM       -0.7820    0.6020   -4.3500 C.ar  128  LJ4128      0.0770
      7 BRAC       -2.1280    1.6940   -3.6180 Br    128  LJ4128     -0.0456
      8  CAJ       -0.6710    0.4550   -5.7380 C.ar  128  LJ4128      0.0474
      9  CAO        0.3350   -0.3530   -6.2800 C.ar  128  LJ4128      0.1465
     10  OAK        0.4960   -0.5500   -7.6370 O.3   128  LJ4128     -0.4535
     11  CAN        0.2120    0.4230   -8.5950 C.ar  128  LJ4128      0.1453
     12  CAG       -0.2940    0.0490   -9.8610 C.ar  128  LJ4128      0.0375
     13  CAE       -0.5860    1.0080  -10.8400 C.ar  128  LJ4128      0.0031
     14  CAD       -0.3790    2.3640  -10.5710 C.ar  128  LJ4128      0.0002
     15  CAF        0.1380    2.7320   -9.3310 C.ar  128  LJ4128      0.0031
     16  CAH        0.4300    1.7800   -8.3500 C.ar  128  LJ4128      0.0375
@<TRIPOS>BOND
     1    13    14   ar
     2    13    12   ar
     3    14    15   ar
     4    12    11   ar
     5    15    16   ar
     6    11    16   ar
     7    11    10    1
     8    10     9    1
     9     9     8   ar
    10     9     1   ar
    11     8     6   ar
    12     1     2   ar
    13     6     7    1
    14     6     4   ar
    15     2     4   ar
    16     2     3    1
    17     4     5    1
