@<TRIPOS>MOLECULE
3cn4_LJ5_A_1.pdb
 18 19 0 0 0
SMALL
GASTEIGER

@<TRIPOS>ATOM
      1  CAJ       -0.9990    0.9710   -4.1790 C.ar  128  LJ5128      0.0265
      2  CAO       -0.9130    0.8050   -2.8000 C.ar  128  LJ5128      0.0752
      3 BRAC       -2.0750    1.7960   -1.6440 Br    128  LJ5128     -0.0456
      4  CAR        0.0420   -0.0650   -2.2730 C.ar  128  LJ5128      0.2080
      5  OAB        0.1500   -0.2270   -0.9190 O.3   128  LJ5128     -0.2855
      6  CAP        0.8750   -0.7610   -3.1560 C.ar  128  LJ5128      0.0752
      7 BRAD        2.2110   -1.9650   -2.5610 Br    128  LJ5128     -0.0456
      8  CAK        0.7640   -0.6020   -4.5310 C.ar  128  LJ5128      0.0265
      9  CAN       -0.1960    0.2590   -5.0680 C.ar  128  LJ5128      0.0749
     10  NAL       -0.3160    0.5270   -6.3830 N.am  128  LJ5128     -0.1754
     11  CAM        0.3030   -0.0240   -7.4530 C.2   128  LJ5128      0.2690
     12  OAA        1.0460   -1.0210   -7.4280 O.2   128  LJ5128     -0.2680
     13  CAQ       -0.0420    0.6780   -8.8190 C.ar  128  LJ5128      0.0554
     14  CAH       -0.2150    2.0750   -8.9100 C.ar  128  LJ5128      0.0046
     15  CAF       -0.5280    2.7530  -10.1060 C.ar  128  LJ5128      0.0001
     16  CAE       -0.6390    1.9450  -11.2400 C.ar  128  LJ5128      0.0000
     17  CAG       -0.4320    0.5610  -11.1980 C.ar  128  LJ5128      0.0001
     18  CAI       -0.1440   -0.0740   -9.9920 C.ar  128  LJ5128      0.0046
@<TRIPOS>BOND
     1    16    17   ar
     2    16    15   ar
     3    17    18   ar
     4    15    14   ar
     5    18    13   ar
     6    14    13   ar
     7    13    11    1
     8    11    12    2
     9    11    10   am
    10    10     9    1
    11     9     8   ar
    12     9     1   ar
    13     8     6   ar
    14     1     2   ar
    15     6     7    1
    16     6     4   ar
    17     2     4   ar
    18     2     3    1
    19     4     5    1
