@<TRIPOS>MOLECULE
3cn8_SPD_A_1.pdb
 10 9 0 0 0
SMALL
GASTEIGER

@<TRIPOS>ATOM
      1  N1        60.4300  -23.7740   55.4540 N.3   517  SPD517     -0.1314
      2  C2        61.5590  -23.8720   54.5180 C.3   517  SPD517      0.1094
      3  C3        62.8330  -23.3840   55.2120 C.3   517  SPD517      0.0220
      4  C4        62.7180  -21.9070   55.5970 C.3   517  SPD517      0.0203
      5  C5        63.9150  -21.4360   56.4270 C.3   517  SPD517      0.0887
      6  N6        63.9000  -22.0830   57.7470 N.3   517  SPD517     -0.2180
      7  C7        64.5970  -23.3780   57.7090 C.3   517  SPD517      0.0902
      8  C8        66.1070  -23.1550   57.8060 C.3   517  SPD517      0.0393
      9  C9        66.8550  -24.4870   57.7200 C.3   517  SPD517      0.1108
     10  N10       66.4080  -25.3770   58.8010 N.3   517  SPD517     -0.1313
@<TRIPOS>BOND
     1     2     3    1
     2     2     1    1
     3     3     4    1
     4     4     5    1
     5     5     6    1
     6     7     6    1
     7     7     8    1
     8     9     8    1
     9     9    10    1
