@<TRIPOS>MOLECULE
3cnd_SP5_B_1.pdb
 17 16 0 0 0
SMALL
GASTEIGER

@<TRIPOS>ATOM
      1  CAB       56.3910  -58.5530   59.2580 C.3   803  SP5803      0.0964
      2  CAC       57.1690  -57.4600   58.5230 C.2   803  SP5803      0.2419
      3  OAA       58.0610  -56.8320   59.0920 O.2   803  SP5803     -0.2733
      4  NAD       56.8270  -57.2790   57.2480 N.am  803  SP5803     -0.2054
      5  CAE       55.7810  -58.0830   56.6000 C.3   803  SP5803      0.1166
      6  CAF       55.7050  -57.7680   55.1050 C.3   803  SP5803      0.0422
      7  CAG       54.6800  -58.6800   54.4300 C.3   803  SP5803      0.0905
      8  NAH       53.8540  -57.9220   53.4800 N.3   803  SP5803     -0.2180
      9  CAI       52.4640  -57.8290   53.9500 C.3   803  SP5803      0.0887
     10  CAJ       51.9130  -56.4490   53.5830 C.3   803  SP5803      0.0203
     11  CAK       51.0680  -56.4980   52.3090 C.3   803  SP5803      0.0203
     12  CAL       50.1600  -55.2740   52.1720 C.3   803  SP5803      0.0887
     13  NAM       50.4870  -54.3120   53.2340 N.3   803  SP5803     -0.2180
     14  CAN       49.9470  -52.9960   52.8640 C.3   803  SP5803      0.0902
     15  CAO       50.5560  -52.5490   51.5330 C.3   803  SP5803      0.0393
     16  CAP       50.0500  -51.1580   51.1460 C.3   803  SP5803      0.1108
     17  NAQ       51.1740  -50.2110   51.0980 N.3   803  SP5803     -0.1313
@<TRIPOS>BOND
     1    17    16    1
     2    16    15    1
     3    15    14    1
     4    12    11    1
     5    12    13    1
     6    11    10    1
     7    14    13    1
     8     8     9    1
     9     8     7    1
    10    10     9    1
    11     7     6    1
    12     6     5    1
    13     5     4    1
    14     4     2   am
    15     2     3    2
    16     2     1    1
