@<TRIPOS>MOLECULE
3cne_FMN_B_1.pdb
 25 27 0 0 0
SMALL
GASTEIGER

@<TRIPOS>ATOM
      1  N1        32.6200    6.5020   32.5520 N.2   201  FMN201     -0.2887
      2  C2        32.1540    7.2020   31.4440 C.1   201  FMN201      0.3669
      3  O2        32.4240    6.8340   30.2920 O.2   201  FMN201     -0.1744
      4  N3        31.3700    8.3300   31.6300 N.2   201  FMN201     -0.2300
      5  C4        31.0520    8.7620   32.9080 C.1   201  FMN201      0.2513
      6  O4        30.1360    9.5760   33.0600 O.2   201  FMN201     -0.2057
      7  C4A       31.5200    8.0650   34.0160 C.2   201  FMN201      0.2706
      8  N5        31.1930    8.5220   35.2790 N.2   201  FMN201     -0.3841
      9  C5A       31.6450    7.8380   36.3800 C.2   201  FMN201      0.1452
     10  C6        31.3060    8.2990   37.6420 C.2   201  FMN201      0.0252
     11  C7        31.7550    7.6320   38.7780 C.2   201  FMN201     -0.0375
     12  C7M       31.6610    8.3550   40.1030 C.3   201  FMN201      0.0268
     13  C8        32.5510    6.4900   38.6310 C.3   201  FMN201      0.0417
     14  C8M       33.3290    5.9400   39.7930 C.3   201  FMN201      0.0091
     15  C9        32.8780    6.0280   37.3570 C.2   201  FMN201     -0.0049
     16  C9A       32.4340    6.6950   36.2250 C.2   201  FMN201      0.0795
     17  N10       32.7710    6.2270   34.9620 N.pl3 201  FMN201     -0.2545
     18  C10       32.3100    6.9210   33.8450 C.2   201  FMN201      0.2449
     19  C1'       33.1370    4.7720   34.8380 C.3   201  FMN201      0.1336
     20  C2'       34.5790    4.5120   34.3830 C.3   201  FMN201      0.2048
     21  O2'       34.7590    5.0100   33.0760 O.3   201  FMN201     -0.2185
     22  C3'       34.8970    3.0180   34.3410 C.3   201  FMN201      0.2166
     23  O3'       33.7320    2.2580   34.5990 O.3   201  FMN201     -0.2175
     24  C4'       35.9950    2.6230   35.3230 C.3   201  FMN201      0.2175
     25  O4'       36.6480    1.4590   34.8510 O.3   201  FMN201     -0.2175
@<TRIPOS>BOND
     1     3     2    2
     2     2     4    2
     3     2     1    2
     4     4     5    2
     5     1    18    2
     6     5     6    2
     7     5     7    1
     8    21    20    1
     9    18     7    1
    10    18    17    1
    11     7     8    2
    12    22    20    1
    13    22    23    1
    14    22    24    1
    15    20    19    1
    16    19    17    1
    17    25    24    1
    18    17    16    1
    19     8     9    2
    20    16     9    1
    21    16    15    2
    22     9    10    1
    23    15    13    1
    24    10    11    2
    25    13    11    1
    26    13    14    1
    27    11    12    1
