@<TRIPOS>MOLECULE
3cnl_GNP_A_1.pdb
 32 34 0 0 0
SMALL
GASTEIGER

@<TRIPOS>ATOM
      1  PG         3.4610   -4.9260   23.1750 P.3   501  GNP501      0.4884
      2  O1G        3.6710   -3.7030   24.0380 O.3   501  GNP501     -0.1240
      3  O2G        3.7470   -4.6520   21.7100 O.2   501  GNP501     -0.2331
      4  O3G        2.0710   -5.4820   23.4600 O.3   501  GNP501     -0.1240
      5  N3B        4.3400   -6.2080   23.4840 N.3   501  GNP501     -0.0163
      6  PB         5.1800   -6.5360   24.7780 P.3   501  GNP501      0.4669
      7  O1B        6.2770   -5.5360   24.9440 O.2   501  GNP501     -0.2351
      8  O2B        4.2340   -6.6680   25.9260 O.3   501  GNP501     -0.1253
      9  O3A        5.8180   -7.9090   24.4890 O.3   501  GNP501     -0.2360
     10  PA         5.3040   -9.3470   24.8070 P.3   501  GNP501      0.2220
     11  O1A        5.6590   -9.7350   26.1820 O.3   501  GNP501     -0.4370
     12  O2A        3.9010   -9.5440   24.4080 O.2   501  GNP501     -0.5170
     13  O5'        6.2040  -10.2350   23.8980 O.3   501  GNP501     -0.3111
     14  C5'        6.2810  -10.0560   22.4760 C.3   501  GNP501      0.1813
     15  C4'        6.8250  -11.3440   21.8670 C.3   501  GNP501      0.1799
     16  O4'        8.1950  -11.5970   22.2940 O.3   501  GNP501     -0.3326
     17  C3'        6.0810  -12.6210   22.2180 C.3   501  GNP501      0.2158
     18  O3'        6.1050  -13.4740   21.0830 O.3   501  GNP501     -0.2175
     19  C2'        6.9340  -13.2050   23.3330 C.3   501  GNP501      0.2310
     20  O2'        6.7520  -14.5990   23.4180 O.3   501  GNP501     -0.2158
     21  C1'        8.3450  -12.8790   22.8570 C.3   501  GNP501      0.2293
     22  N9         9.3340  -12.7210   23.9200 N.pl3 501  GNP501     -0.2354
     23  C8         9.1850  -11.9710   25.0690 C.3   501  GNP501      0.2246
     24  N7        10.2550  -11.9880   25.8280 N.2   501  GNP501     -0.2322
     25  C5        11.1570  -12.8160   25.1260 C.2   501  GNP501      0.2182
     26  C6        12.4870  -13.2200   25.4270 C.1   501  GNP501      0.2372
     27  O6        13.1740  -12.9340   26.4240 O.2   501  GNP501     -0.2069
     28  N1        13.0340  -14.0460   24.4280 N.2   501  GNP501     -0.2485
     29  C2        12.3730  -14.4360   23.2740 C.1   501  GNP501      0.2531
     30  N2        13.0420  -15.2370   22.4180 N.pl3 501  GNP501     -0.0226
     31  N3        11.1420  -14.0600   22.9740 N.2   501  GNP501     -0.3074
     32  C4        10.5970  -13.2620   23.9440 C.2   501  GNP501      0.2300
@<TRIPOS>BOND
     1    18    17    1
     2     3     1    2
     3    15    17    1
     4    15    16    1
     5    15    14    1
     6    17    19    1
     7    16    21    1
     8    30    29    1
     9    14    13    1
    10    21    19    1
    11    21    22    1
    12    31    29    2
    13    31    32    2
    14     1     4    1
    15     1     5    1
    16     1     2    1
    17    29    28    2
    18    19    20    1
    19     5     6    1
    20    13    10    1
    21    22    32    1
    22    22    23    1
    23    32    25    1
    24    12    10    2
    25    28    26    2
    26     9     6    1
    27     9    10    1
    28     6     7    2
    29     6     8    1
    30    10    11    1
    31    23    24    1
    32    25    26    1
    33    25    24    2
    34    26    27    2
