@<TRIPOS>MOLECULE
3cnm_HHA_A_1.pdb
 11 11 0 0 0
SMALL
GASTEIGER

@<TRIPOS>ATOM
      1  O1        44.3240   -1.2380   91.1690 O.co2 500  HHA500     -0.2456
      2  C         43.6790   -2.1720   91.6940 C.2   500  HHA500      0.3662
      3  O2        43.9440   -3.4050   91.6250 O.co2 500  HHA500     -0.2456
      4  C1        42.4450   -1.6610   92.5330 C.3   500  HHA500      0.1281
      5  C6        41.6080   -2.6470   92.9570 C.3   500  HHA500      0.0386
      6  C5        40.2560   -2.4160   93.0470 C.2   500  HHA500     -0.0275
      7  C4        39.6200   -1.3010   92.7490 C.2   500  HHA500      0.0030
      8  C3        40.4140   -0.1610   92.2280 C.3   500  HHA500      0.1917
      9  O3'       39.7090    0.2610   91.0480 O.3   500  HHA500     -0.2167
     10  C2        41.7550   -0.6250   91.6400 C.3   500  HHA500      0.1373
     11  N2        42.6250    0.6100   91.5890 N.3   500  HHA500     -0.1293
@<TRIPOS>BOND
     1     9     8    1
     2     1     2   ar
     3    11    10    1
     4     3     2   ar
     5    10     8    1
     6    10     4    1
     7     2     4    1
     8     8     7    1
     9     4     5    1
    10     7     6    2
    11     5     6    1
