@<TRIPOS>MOLECULE
3cnn_GTP_A_1.pdb
 32 34 0 0 0
SMALL
GASTEIGER

@<TRIPOS>ATOM
      1  PG        14.2530   -4.9680  -23.2230 P.3   263  GTP263      0.5373
      2  O1G       13.7610   -3.6190  -23.7540 O.3   263  GTP263     -0.1143
      3  O2G       14.4570   -4.8630  -21.7180 O.3   263  GTP263     -0.1143
      4  O3G       15.5910   -5.3760  -23.8260 O.2   263  GTP263     -0.2221
      5  O3B       13.2160   -6.1790  -23.5090 O.3   263  GTP263     -0.2258
      6  PB        12.4760   -6.4320  -24.9200 P.3   263  GTP263      0.2277
      7  O1B       11.4160   -5.3740  -25.1310 O.3   263  GTP263     -0.4368
      8  O2B       13.4620   -6.4740  -26.0610 O.2   263  GTP263     -0.5168
      9  O3A       11.7380   -7.8050  -24.6280 O.3   263  GTP263     -0.2700
     10  PA        12.2550   -9.2960  -24.7950 P.3   263  GTP263      0.2189
     11  O1A       11.8570   -9.7910  -26.1620 O.2   263  GTP263     -0.5170
     12  O2A       13.6980   -9.5260  -24.4490 O.3   263  GTP263     -0.4371
     13  O5'       11.2680  -10.0260  -23.7530 O.3   263  GTP263     -0.3112
     14  C5'       11.4810  -10.0090  -22.3580 C.3   263  GTP263      0.1813
     15  C4'       10.9250  -11.3130  -21.8110 C.3   263  GTP263      0.1799
     16  O4'        9.5980  -11.4840  -22.2630 O.3   263  GTP263     -0.3326
     17  C3'       11.6960  -12.5100  -22.3140 C.3   263  GTP263      0.2158
     18  O3'       11.8600  -13.4100  -21.2380 O.3   263  GTP263     -0.2175
     19  C2'       10.8080  -13.1100  -23.3800 C.3   263  GTP263      0.2310
     20  O2'       10.9900  -14.5010  -23.4240 O.3   263  GTP263     -0.2158
     21  C1'        9.4210  -12.7320  -22.9000 C.3   263  GTP263      0.2293
     22  N9         8.3860  -12.5890  -23.9550 N.pl3 263  GTP263     -0.2354
     23  C8         8.4550  -11.8370  -25.1140 C.3   263  GTP263      0.2246
     24  N7         7.2870  -11.9770  -25.7730 N.2   263  GTP263     -0.2322
     25  C5         6.4770  -12.8140  -25.0700 C.2   263  GTP263      0.2182
     26  C6         5.1850  -13.2860  -25.2890 C.1   263  GTP263      0.2372
     27  O6         4.5610  -12.9580  -26.3040 O.2   263  GTP263     -0.2069
     28  N1         4.5980  -14.1380  -24.3630 N.2   263  GTP263     -0.2485
     29  C2         5.3040  -14.5120  -23.2300 C.1   263  GTP263      0.2531
     30  N2         4.7560  -15.3280  -22.3400 N.pl3 263  GTP263     -0.0226
     31  N3         6.5830  -14.0290  -23.0200 N.2   263  GTP263     -0.3074
     32  C4         7.1590  -13.1980  -23.9230 C.2   263  GTP263      0.2300
@<TRIPOS>BOND
     1    27    26    2
     2    11    10    2
     3     8     6    2
     4    24    23    1
     5    24    25    2
     6    26    25    1
     7    26    28    2
     8     7     6    1
     9    23    22    1
    10    25    32    1
    11     6     9    1
    12     6     5    1
    13    10     9    1
    14    10    12    1
    15    10    13    1
    16    28    29    2
    17    22    32    1
    18    22    21    1
    19    32    31    2
    20     4     1    2
    21     2     1    1
    22    13    14    1
    23     5     1    1
    24    20    19    1
    25    19    21    1
    26    19    17    1
    27    29    31    2
    28    29    30    1
    29     1     3    1
    30    21    16    1
    31    14    15    1
    32    17    15    1
    33    17    18    1
    34    16    15    1
