@<TRIPOS>MOLECULE
3cno_GDP_A_1.pdb
 28 30 0 0 0
SMALL
GASTEIGER

@<TRIPOS>ATOM
      1  PB         4.8780   -5.2280   26.0500 P.3   501  GDP501      0.5373
      2  O1B        4.2160   -5.2520   27.4020 O.3   501  GDP501     -0.1143
      3  O2B        6.2360   -4.5760   26.2330 O.3   501  GDP501     -0.1143
      4  O3B        4.1470   -4.3730   25.0400 O.2   501  GDP501     -0.2221
      5  O3A        5.0790   -6.7080   25.4690 O.3   501  GDP501     -0.2261
      6  PA         4.4450   -8.1000   25.9460 P.3   501  GDP501      0.2231
      7  O1A        4.8720   -8.5490   27.3220 O.3   501  GDP501     -0.4370
      8  O2A        2.9470   -8.0990   25.7720 O.2   501  GDP501     -0.5169
      9  O5'        5.1160   -9.0860   24.8840 O.3   501  GDP501     -0.3111
     10  C5'        4.9890   -8.8070   23.4930 C.3   501  GDP501      0.1813
     11  C4'        5.1800  -10.0960   22.7130 C.3   501  GDP501      0.1799
     12  O4'        6.4880  -10.6170   22.9320 O.3   501  GDP501     -0.3326
     13  C3'        4.2090  -11.1740   23.1470 C.3   501  GDP501      0.2158
     14  O3'        3.8160  -11.8940   21.9710 O.3   501  GDP501     -0.2175
     15  C2'        5.0220  -12.0730   24.0460 C.3   501  GDP501      0.2310
     16  O2'        4.4620  -13.3890   24.0360 O.3   501  GDP501     -0.2158
     17  C1'        6.4190  -11.9470   23.4430 C.3   501  GDP501      0.2293
     18  N9         7.5570  -12.0400   24.3880 N.pl3 501  GDP501     -0.2354
     19  C8         7.7430  -11.3520   25.5300 C.3   501  GDP501      0.2246
     20  N7         8.9240  -11.6820   26.1110 N.2   501  GDP501     -0.2322
     21  C5         9.5200  -12.5970   25.3250 C.2   501  GDP501      0.2182
     22  C6        10.7810  -13.3760   25.3420 C.1   501  GDP501      0.2372
     23  O6        11.6040  -13.2500   26.2720 O.2   501  GDP501     -0.2069
     24  N1        11.0150  -14.2180   24.3210 N.2   501  GDP501     -0.2485
     25  C2        10.1420  -14.3880   23.3060 C.1   501  GDP501      0.2531
     26  N2        10.4540  -15.2550   22.3190 N.pl3 501  GDP501     -0.0226
     27  N3         8.9700  -13.7160   23.2320 N.2   501  GDP501     -0.3074
     28  C4         8.6170  -12.8280   24.1900 C.2   501  GDP501      0.2300
@<TRIPOS>BOND
     1    14    13    1
     2    26    25    1
     3    11    12    1
     4    11    13    1
     5    11    10    1
     6    12    17    1
     7    13    15    1
     8    27    25    2
     9    27    28    2
    10    25    24    2
    11    17    15    1
    12    17    18    1
    13    10     9    1
    14    16    15    1
    15    28    18    1
    16    28    21    1
    17    24    22    2
    18    18    19    1
    19     9     6    1
    20     4     1    2
    21    21    22    1
    22    21    20    2
    23    22    23    2
    24     5     6    1
    25     5     1    1
    26    19    20    1
    27     8     6    2
    28     6     7    1
    29     1     3    1
    30     1     2    1
