@<TRIPOS>MOLECULE
3cnp_SP7_A_1.pdb
 14 13 0 0 0
SMALL
GASTEIGER

@<TRIPOS>ATOM
      1  CAC       70.0070  -26.1860   57.5800 C.3   518  SP7518      0.0964
      2  CAD       69.0750  -25.5840   56.5190 C.2   518  SP7518      0.2418
      3  OAA       69.2380  -25.9010   55.3450 O.2   518  SP7518     -0.2733
      4  NAE       68.1250  -24.7260   56.9000 N.am  518  SP7518     -0.2071
      5  CAF       67.8390  -24.2750   58.2690 C.3   518  SP7518      0.0968
      6  CAB       69.0880  -23.5720   58.7970 C.3   518  SP7518      0.0235
      7  CAG       66.6180  -23.3360   58.2410 C.3   518  SP7518      0.0405
      8  CAH       65.5990  -23.6910   57.1560 C.3   518  SP7518      0.0905
      9  NAI       64.2700  -23.1470   57.4530 N.3   518  SP7518     -0.2180
     10  CAJ       64.0440  -21.9130   56.6730 C.3   518  SP7518      0.0887
     11  CAK       62.6800  -21.9990   55.9710 C.3   518  SP7518      0.0203
     12  CAL       62.8030  -22.4090   54.5000 C.3   518  SP7518      0.0220
     13  CAM       61.6230  -23.2670   54.0330 C.3   518  SP7518      0.1094
     14  NAN       62.0440  -24.6710   53.9310 N.3   518  SP7518     -0.1314
@<TRIPOS>BOND
     1    14    13    1
     2    13    12    1
     3    12    11    1
     4     3     2    2
     5    11    10    1
     6     2     4   am
     7     2     1    1
     8    10     9    1
     9     4     5    1
    10     8     9    1
    11     8     7    1
    12     7     5    1
    13     5     6    1
