@<TRIPOS>MOLECULE
3cns_SP8_A_1.pdb
 19 19 0 0 0
SMALL
GASTEIGER

@<TRIPOS>ATOM
      1  CAE       58.7700  -24.1460   -2.8060 C.ar  518  SP8518      0.0046
      2  CAD       57.4480  -24.3860   -2.4490 C.ar  518  SP8518      0.0001
      3  CAC       56.6590  -25.2320   -3.2210 C.ar  518  SP8518      0.0000
      4  CAR       57.1860  -25.8440   -4.3520 C.ar  518  SP8518      0.0001
      5  CAS       58.5090  -25.6050   -4.7080 C.ar  518  SP8518      0.0046
      6  CAF       59.2970  -24.7580   -3.9360 C.ar  518  SP8518      0.0550
      7  CAG       60.7460  -24.5020   -4.3550 C.2   518  SP8518      0.2647
      8  OAA       61.2750  -25.2100   -5.2100 O.2   518  SP8518     -0.2684
      9  NAH       61.3640  -23.5020   -3.7310 N.am  518  SP8518     -0.2034
     10  CAI       62.7570  -23.1680   -4.0630 C.3   518  SP8518      0.0971
     11  CAB       62.9370  -23.2930   -5.5760 C.3   518  SP8518      0.0235
     12  CAJ       63.1360  -21.7570   -3.6070 C.3   518  SP8518      0.0405
     13  CAK       63.0460  -21.5940   -2.0880 C.3   518  SP8518      0.0905
     14  NAL       63.7840  -22.6640   -1.4020 N.3   518  SP8518     -0.2180
     15  CAM       65.2010  -22.7090   -1.7920 C.3   518  SP8518      0.0887
     16  CAN       65.8580  -23.8800   -1.0570 C.3   518  SP8518      0.0203
     17  CAO       67.3120  -24.0840   -1.4840 C.3   518  SP8518      0.0220
     18  CAP       67.9400  -25.2570   -0.7270 C.3   518  SP8518      0.1094
     19  NAQ       69.3170  -25.4700   -1.1970 N.3   518  SP8518     -0.1314
@<TRIPOS>BOND
     1    11    10    1
     2     8     7    2
     3     5     4   ar
     4     5     6   ar
     5     7     6    1
     6     7     9   am
     7     4     3   ar
     8    10     9    1
     9    10    12    1
    10     6     1   ar
    11    12    13    1
    12     3     2   ar
    13     1     2   ar
    14    13    14    1
    15    15    14    1
    16    15    16    1
    17    17    16    1
    18    17    18    1
    19    19    18    1
