@<TRIPOS>MOLECULE
3cnt_SP9_B_1.pdb
 19 19 0 0 0
SMALL
GASTEIGER

@<TRIPOS>ATOM
      1  CAE       42.9740   11.0560   32.5880 C.ar  518  SP9518      0.0046
      2  CAD       42.6800   10.6480   31.2910 C.ar  518  SP9518      0.0001
      3  CAC       42.7670    9.3040   30.9510 C.ar  518  SP9518      0.0000
      4  CAR       43.1450    8.3700   31.9090 C.ar  518  SP9518      0.0001
      5  CAS       43.4390    8.7790   33.2060 C.ar  518  SP9518      0.0046
      6  CAF       43.3550   10.1230   33.5480 C.ar  518  SP9518      0.0550
      7  CAG       43.7040   10.5760   34.9680 C.2   518  SP9518      0.2647
      8  OAA       43.1770   10.0400   35.9430 O.2   518  SP9518     -0.2684
      9  NAH       44.5920   11.5640   35.0440 N.am  518  SP9518     -0.2034
     10  CAI       44.3070   12.8660   35.6700 C.3   518  SP9518      0.0971
     11  CAB       45.6130   13.5810   36.0180 C.3   518  SP9518      0.0235
     12  CAJ       43.4560   12.6710   36.9270 C.3   518  SP9518      0.0405
     13  CAK       42.3940   13.7650   37.0650 C.3   518  SP9518      0.0905
     14  NAL       42.9760   14.9680   37.6790 N.3   518  SP9518     -0.2180
     15  CAM       41.9190   15.7220   38.3680 C.3   518  SP9518      0.0887
     16  CAN       42.3000   17.2030   38.3910 C.3   518  SP9518      0.0203
     17  CAO       41.4300   18.0200   37.4330 C.3   518  SP9518      0.0220
     18  CAP       40.1570   18.5130   38.1260 C.3   518  SP9518      0.1094
     19  NAQ       40.0530   19.9740   37.9960 N.3   518  SP9518     -0.1314
@<TRIPOS>BOND
     1     3     2   ar
     2     3     4   ar
     3     2     1   ar
     4     4     5   ar
     5     1     6   ar
     6     5     6   ar
     7     6     7    1
     8     7     9   am
     9     7     8    2
    10     9    10    1
    11    10    11    1
    12    10    12    1
    13    12    13    1
    14    13    14    1
    15    17    18    1
    16    17    16    1
    17    14    15    1
    18    19    18    1
    19    15    16    1
