@<TRIPOS>MOLECULE
3co4_GCS_A_1.pdb
 12 12 0 0 0
SMALL
GASTEIGER

@<TRIPOS>ATOM
      1  C1        25.6010    0.3970  -13.8880 C.3   401  GCS401      0.2893
      2  C2        24.2550   -0.3490  -13.8810 C.3   401  GCS401      0.1836
      3  C3        23.2690    0.4760  -13.0400 C.3   401  GCS401      0.2071
      4  C4        23.8340    0.5700  -11.6210 C.3   401  GCS401      0.2133
      5  C5        25.2130    1.2700  -11.6930 C.3   401  GCS401      0.1835
      6  C6        25.8140    1.3590  -10.2840 C.3   401  GCS401      0.2142
      7  N2        23.7570   -0.4690  -15.2410 N.3   401  GCS401     -0.1247
      8  O1        26.5210   -0.3390  -14.6690 O.3   401  GCS401     -0.1882
      9  O3        22.0000   -0.1730  -13.0010 O.3   401  GCS401     -0.2186
     10  O4        22.9350    1.3370  -10.8040 O.3   401  GCS401     -0.2176
     11  O5        26.1200    0.5120  -12.5330 O.3   401  GCS401     -0.3244
     12  O6        27.0930    2.0000  -10.3300 O.3   401  GCS401     -0.2176
@<TRIPOS>BOND
     1     7     2    1
     2     8     1    1
     3     1     2    1
     4     1    11    1
     5     2     3    1
     6     3     9    1
     7     3     4    1
     8    11     5    1
     9     5     4    1
    10     5     6    1
    11     4    10    1
    12    12     6    1
