@<TRIPOS>MOLECULE
3co8_PLP_A_1.pdb
 15 15 0 0 0
SMALL
GASTEIGER

@<TRIPOS>ATOM
      1  N1        20.0620   30.6200   58.0110 N.ar  401  PLP401     -0.2452
      2  C2        20.7700   29.5270   57.4860 C.ar  401  PLP401      0.0978
      3  C2A       21.6700   28.6760   58.4400 C.3   401  PLP401      0.0555
      4  C3        20.6330   29.2220   56.0990 C.ar  401  PLP401      0.2049
      5  O3        21.3330   28.1420   55.5680 O.3   401  PLP401     -0.2857
      6  C4        19.7750   30.0450   55.2630 C.ar  401  PLP401      0.0182
      7  C4A       19.5640   29.6800   53.7350 C.3   401  PLP401      0.0342
      8  C5        19.0670   31.1590   55.8500 C.ar  401  PLP401      0.0261
      9  C6        19.2380   31.4100   57.1960 C.ar  401  PLP401      0.0965
     10  C5A       18.0650   32.1270   55.0930 C.3   401  PLP401      0.1815
     11  O4P       16.8470   31.2900   54.9230 O.3   401  PLP401     -0.2653
     12  P         15.5830   32.0680   54.1680 P.3   401  PLP401      0.5329
     13  O1P       15.4210   33.3560   54.8430 O.3   401  PLP401     -0.1145
     14  O2P       14.1940   31.3340   54.2520 O.3   401  PLP401     -0.1145
     15  O3P       15.9000   32.1010   52.7180 O.2   401  PLP401     -0.2224
@<TRIPOS>BOND
     1    15    12    2
     2     7     6    1
     3    12    14    1
     4    12    13    1
     5    12    11    1
     6    11    10    1
     7    10     8    1
     8     6     8   ar
     9     6     4   ar
    10     5     4    1
    11     8     9   ar
    12     4     2   ar
    13     9     1   ar
    14     2     1   ar
    15     2     3    1
