@<TRIPOS>MOLECULE
3co9_3MS_A_1.pdb
 33 36 0 0 0
SMALL
GASTEIGER

@<TRIPOS>ATOM
      1  C4        31.5070   46.1490   49.3590 C.ar  579  3MS579      0.0240
      2  C5        32.1790   45.1600   58.3310 C.2   579  3MS579      0.0244
      3  C6        32.5910   44.2980   48.6480 C.ar  579  3MS579      0.0987
      4  C7        33.3850   44.5320   56.2850 C.2   579  3MS579      0.1485
      5  C8        32.7350   44.0560   58.9890 C.2   579  3MS579      0.0886
      6  C10       32.1910   45.6160   50.4330 C.ar  579  3MS579      0.1208
      7  C13       32.9510   45.3700   54.1260 C.1   579  3MS579      0.1135
      8  C15       37.8190   44.1400   49.2730 C.3   579  3MS579      0.0001
      9  C17       30.5320   45.1650   61.6150 C.3   579  3MS579      0.2016
     10  C20       36.6720   43.8530   50.2510 C.3   579  3MS579      0.0020
     11  O30       32.8040   46.2900   61.0340 O.2   579  3MS579     -0.1528
     12  S33       32.3000   45.0150   61.5210 S.O2  579  3MS579      0.0750
     13  O29       32.7500   44.4650   62.7890 O.2   579  3MS579     -0.1528
     14  N25       32.4240   43.7740   60.3520 N.pl3 579  3MS579     -0.1009
     15  C3        33.6070   43.1910   58.3110 C.2   579  3MS579      0.0201
     16  C9        32.5140   45.3780   56.9900 C.3   579  3MS579      0.2293
     17  S32       31.8750   46.7790   56.1520 S.O2  579  3MS579      0.0981
     18  O27       30.4710   46.9510   56.4700 O.2   579  3MS579     -0.1495
     19  O28       32.8590   47.8040   56.4120 O.2   579  3MS579     -0.1495
     20  N23       31.9800   46.3070   54.5390 N.2   579  3MS579     -0.0649
     21  N21       33.7440   44.7300   54.9460 N.2   579  3MS579     -0.3511
     22  C2        33.9340   43.4290   56.9670 C.2   579  3MS579      0.0320
     23  C12       32.9890   45.1780   52.6660 C.ar  579  3MS579      0.1728
     24  C11       32.3320   45.9880   51.7900 C.ar  579  3MS579      0.2281
     25  O31       31.7980   47.2230   52.0720 O.3   579  3MS579     -0.2840
     26  C14       33.7690   44.0090   52.1530 C.ar  579  3MS579      0.2888
     27  O26       34.3780   43.3240   52.9660 O.2   579  3MS579     -0.2647
     28  N24       33.6550   43.6980   50.7990 N.ar  579  3MS579     -0.2318
     29  N22       32.8480   44.5000   49.9800 N.ar  579  3MS579     -0.2421
     30  C1        31.7620   45.3200   48.2420 C.ar  579  3MS579      0.0223
     31  C19       34.3380   42.5190   50.2860 C.3   579  3MS579      0.1291
     32  C18       35.6610   42.8730   49.5860 C.3   579  3MS579      0.0264
     33  C16       37.2660   43.3580   51.5780 C.3   579  3MS579      0.0001
@<TRIPOS>BOND
     1    30     3   ar
     2    30     1   ar
     3     3    29   ar
     4     8    10    1
     5     1     6   ar
     6    32    10    1
     7    32    31    1
     8    29     6   ar
     9    29    28   ar
    10    10    33    1
    11    31    28    1
    12     6    24   ar
    13    28    26   ar
    14    24    25    1
    15    24    23   ar
    16    26    23   ar
    17    26    27    2
    18    23     7    1
    19     7    20    2
    20     7    21    2
    21    20    17    1
    22    21     4    2
    23    17    19    2
    24    17    18    2
    25    17    16    1
    26     4    22    1
    27     4    16    1
    28    22    15    2
    29    16     2    1
    30    15     5    1
    31     2     5    2
    32     5    14    1
    33    14    12    1
    34    11    12    2
    35    12     9    1
    36    12    13    2
