@<TRIPOS>MOLECULE
3coc_RET_A_1.pdb
 20 20 0 0 0
SMALL
GASTEIGER

@<TRIPOS>ATOM
      1  C1        41.3200   54.8840    2.1900 C.3   301  RET301      0.0183
      2  C2        42.1300   56.1060    1.6830 C.3   301  RET301      0.0044
      3  C3        42.6870   56.0630    0.3020 C.3   301  RET301      0.0047
      4  C4        43.2460   54.7060   -0.1460 C.3   301  RET301      0.0217
      5  C5        42.4660   53.4440    0.3060 C.2   301  RET301     -0.0479
      6  C6        41.5670   53.5170    1.3900 C.2   301  RET301     -0.0307
      7  C7        40.8890   52.2180    1.7040 C.2   301  RET301     -0.0052
      8  C8        39.9640   51.8500    2.6460 C.2   301  RET301     -0.0049
      9  C9        39.3710   50.5420    2.8600 C.2   301  RET301     -0.0258
     10  C10       38.4830   50.5670    3.8980 C.2   301  RET301     -0.0257
     11  C11       37.7400   49.3700    4.3180 C.3   301  RET301      0.0510
     12  C12       36.9290   49.6620    5.3750 C.2   301  RET301     -0.0299
     13  C13       36.0590   48.7050    6.0440 C.2   301  RET301     -0.0478
     14  C14       35.3840   49.3330    7.0620 C.3   301  RET301      0.0217
     15  C15       34.4330   48.7040    7.9430 C.3   301  RET301      0.0047
     16  C16       41.7130   54.7290    3.7040 C.3   301  RET301      0.0043
     17  C17       39.8310   55.4160    2.0670 C.3   301  RET301      0.0043
     18  C18       42.8640   52.2970   -0.5850 C.3   301  RET301      0.0260
     19  C19       39.7170   49.3330    2.0180 C.3   301  RET301      0.0307
     20  C20       35.9480   47.2590    5.6400 C.3   301  RET301      0.0260
@<TRIPOS>BOND
     1    18     5    1
     2     4     3    1
     3     4     5    1
     4     3     2    1
     5     5     6    2
     6     6     7    1
     7     6     1    1
     8     2     1    1
     9     7     8    2
    10    19     9    1
    11    17     1    1
    12     1    16    1
    13     8     9    1
    14     9    10    2
    15    10    11    1
    16    11    12    1
    17    12    13    2
    18    20    13    1
    19    13    14    1
    20    14    15    1
