@<TRIPOS>MOLECULE
3cod_RET_A_1.pdb
 20 20 0 0 0
SMALL
GASTEIGER

@<TRIPOS>ATOM
      1  C1        40.2800   54.8670    2.2280 C.3   301  RET301      0.0183
      2  C2        41.1000   56.0970    1.7480 C.3   301  RET301      0.0044
      3  C3        41.6620   56.0880    0.3660 C.3   301  RET301      0.0047
      4  C4        42.1880   54.7470   -0.1420 C.3   301  RET301      0.0217
      5  C5        41.4080   53.4750    0.2920 C.2   301  RET301     -0.0479
      6  C6        40.5200   53.5110    1.3860 C.2   301  RET301     -0.0307
      7  C7        39.8540   52.1840    1.6580 C.2   301  RET301     -0.0052
      8  C8        38.9440   51.7720    2.5910 C.2   301  RET301     -0.0049
      9  C9        38.3520   50.4500    2.7810 C.2   301  RET301     -0.0258
     10  C10       37.4660   50.4660    3.8330 C.2   301  RET301     -0.0257
     11  C11       36.6930   49.2950    4.2800 C.3   301  RET301      0.0510
     12  C12       35.8780   49.6170    5.3370 C.2   301  RET301     -0.0299
     13  C13       34.9740   48.6830    6.0090 C.2   301  RET301     -0.0478
     14  C14       34.2830   49.3160    7.0230 C.3   301  RET301      0.0217
     15  C15       33.3010   48.6590    7.8690 C.3   301  RET301      0.0047
     16  C16       40.6480   54.6770    3.7480 C.3   301  RET301      0.0043
     17  C17       38.8020   55.4290    2.1030 C.3   301  RET301      0.0043
     18  C18       41.7950   52.3550   -0.6330 C.3   301  RET301      0.0260
     19  C19       38.6860   49.2580    1.9090 C.3   301  RET301      0.0307
     20  C20       34.8400   47.2410    5.6060 C.3   301  RET301      0.0260
@<TRIPOS>BOND
     1    18     5    1
     2     4     5    1
     3     4     3    1
     4     5     6    2
     5     3     2    1
     6     6     7    1
     7     6     1    1
     8     7     8    2
     9     2     1    1
    10    19     9    1
    11    17     1    1
    12     1    16    1
    13     8     9    1
    14     9    10    2
    15    10    11    1
    16    11    12    1
    17    12    13    2
    18    20    13    1
    19    13    14    1
    20    14    15    1
