@<TRIPOS>MOLECULE
3cog_PLP_A_1.pdb
 15 15 0 0 0
SMALL
GASTEIGER

@<TRIPOS>ATOM
      1  N1       -18.8070   35.3330  -17.0240 N.2   500  PLP500     -0.2505
      2  C2       -18.7980   36.4390  -17.8730 C.2   500  PLP500      0.0675
      3  C2A      -17.7380   37.5300  -17.8220 C.3   500  PLP500      0.0499
      4  C3       -19.8080   36.5880  -18.8250 C.3   500  PLP500      0.1913
      5  O3       -19.7380   37.6830  -19.6390 O.3   500  PLP500     -0.2167
      6  C4       -20.8280   35.6310  -18.9690 C.3   500  PLP500      0.0581
      7  C4A      -21.5440   35.6150  -20.2900 C.3   500  PLP500      0.0075
      8  C5       -20.8430   34.5210  -18.1080 C.2   500  PLP500      0.0073
      9  C6       -19.8240   34.3990  -17.1410 C.2   500  PLP500      0.0921
     10  C5A      -21.9460   33.4610  -18.1620 C.3   500  PLP500      0.1776
     11  O4P      -21.7870   32.5850  -19.2390 O.3   500  PLP500     -0.2656
     12  P        -23.0400   31.7890  -19.9510 P.3   500  PLP500      0.5329
     13  O1P      -23.9330   32.8670  -20.5030 O.3   500  PLP500     -0.1145
     14  O2P      -23.7530   30.9270  -18.9290 O.3   500  PLP500     -0.1145
     15  O3P      -22.3920   30.9600  -21.0570 O.2   500  PLP500     -0.2224
@<TRIPOS>BOND
     1    15    12    2
     2    13    12    1
     3     7     6    1
     4    12    11    1
     5    12    14    1
     6     5     4    1
     7    11    10    1
     8     6     4    1
     9     6     8    1
    10     4     2    1
    11    10     8    1
    12     8     9    2
    13     2     3    1
    14     2     1    2
    15     9     1    1
