@<TRIPOS>MOLECULE
3coh_83H_A_1.pdb
 26 30 0 0 0
SMALL
GASTEIGER

@<TRIPOS>ATOM
      1  C4        -0.5950   63.5780   42.2620 C.ar    1  83H1        0.1310
      2  C5        -1.1180   62.7280   43.3710 C.ar    1  83H1        0.0293
      3  C6        -1.6480   61.4640   43.1590 C.ar    1  83H1        0.0169
      4  C7        -1.3200   63.0690   46.0400 C.3     1  83H1        0.0291
      5  C8        -0.3130   64.6990   44.1170 C.2     1  83H1        0.1430
      6  C9        -0.9680   63.4840   44.6300 C.2     1  83H1        0.0111
      7  C10       -0.0030   65.8920   44.9570 C.2     1  83H1        0.1145
      8  C11       -0.3000   66.0730   46.3990 C.3     1  83H1        0.0824
      9  C12       -0.7870   65.0960   47.4410 C.3     1  83H1        0.0121
     10  C15        0.0740   67.4960   46.6070 C.2     1  83H1        0.0640
     11  O24       -2.3200   58.8290   39.3150 O.2     1  83H1       -0.2742
     12  C23       -1.9510   59.8350   40.0160 C.2     1  83H1        0.2322
     13  N16       -2.1380   59.8050   41.3340 N.am    1  83H1       -0.2587
     14  C27       -2.7380   58.6740   42.0440 C.3     1  83H1        0.0982
     15  C28       -4.0330   59.1220   42.6910 C.3     1  83H1        0.0237
     16  C17       -1.3430   61.0830   39.4450 C.3     1  83H1        0.0894
     17  C26       -0.0430   60.8050   38.7050 C.3     1  83H1        0.0136
     18  C25       -2.3640   61.8170   38.5830 C.3     1  83H1        0.0136
     19  C2        -1.1720   61.8110   40.7340 C.ar    1  83H1        0.0017
     20  C3        -0.6390   63.0940   40.9560 C.ar    1  83H1        0.0294
     21  C1        -1.6930   60.9710   41.8630 C.ar    1  83H1        0.0504
     22  N7        -0.1650   64.7350   42.7810 N.2     1  83H1       -0.4010
     23  C47       -1.8900   64.2270   46.8540 C.3     1  83H1        0.0055
     24  C48        0.0560   68.2780   47.9010 C.3     1  83H1        0.0495
     25  N14        0.4400   67.9670   45.4040 N.2     1  83H1       -0.1566
     26  N13        0.3790   67.0320   44.3690 N.2     1  83H1       -0.1501
@<TRIPOS>BOND
     1    18    16    1
     2    17    16    1
     3    11    12    2
     4    16    12    1
     5    16    19    1
     6    12    13   am
     7    19    20   ar
     8    19    21   ar
     9    20     1   ar
    10    13    21    1
    11    13    14    1
    12    21     3   ar
    13    14    15    1
    14     1    22    2
    15     1     2   ar
    16    22     5    2
    17     3     2   ar
    18     2     6    2
    19     5     6    1
    20     5     7    1
    21    26     7    2
    22    26    25    1
    23     6     4    1
    24     7     8    1
    25    25    10    2
    26     4    23    1
    27     8    10    1
    28     8     9    1
    29    10    24    1
    30    23     9    1
