@<TRIPOS>MOLECULE
3coj_III_N_1.pdb
 44 45 0 0 0
SMALL
GASTEIGER

@<TRIPOS>ATOM
      1  N         -1.1810   48.8430   -3.0290 N.3   1262  GLN1262    -0.1231
      2  CA        -0.4860   47.6860   -2.3820 C.3   1262  GLN1262     0.1698
      3  C         -0.9570   46.3360   -2.9390 C.2   1262  GLN1262     0.2593
      4  O         -1.5960   46.2860   -3.9960 O.2   1262  GLN1262    -0.2718
      5  CB        -0.6370   47.7510   -0.8600 C.3   1262  GLN1262     0.0381
      6  CG         0.3040   48.7630   -0.2080 C.3   1262  GLN1262     0.0905
      7  CD        -0.0200   49.0440    1.2500 C.2   1262  GLN1262     0.2608
      8  OE1       -0.9370   48.4510    1.8180 O.2   1262  GLN1262    -0.2717
      9  NE2        0.7330   49.9540    1.8560 N.am  1262  GLN1262    -0.0878
     10  N         -0.6310   45.2480   -2.2370 N.am  1263  SER1263    -0.1940
     11  CA        -0.9630   43.9000   -2.7120 C.3   1263  SER1263     0.2012
     12  CB         0.1940   42.9280   -2.4530 C.3   1263  SER1263     0.1846
     13  OG         1.1900   43.0420   -3.4570 O.3   1263  SER1263    -0.2679
     14  C         -2.2720   43.3480   -2.1320 C.2   1263  SER1263     0.2484
     15  O         -2.4180   43.2490   -0.9080 O.2   1263  SER1263    -0.2729
     16  P          2.3800   41.9770   -3.2270 P.3   1263  SER1263     0.5327
     17  O1P        1.7660   40.5090   -2.9790 O.3   1263  SER1263    -0.1145
     18  O2P        3.2800   42.4290   -1.9710 O.3   1263  SER1263    -0.1145
     19  O3P        3.3310   41.9570   -4.5230 O.2   1263  SER1263    -0.2224
     20  N         -3.2020   42.9780   -3.0220 N.am  1264  PRO1264    -0.2715
     21  CA        -4.5410   42.4840   -2.6470 C.3   1264  PRO1264     0.1536
     22  C         -4.5700   41.4230   -1.5380 C.2   1264  PRO1264     0.2599
     23  O         -4.1400   40.2800   -1.7400 O.2   1264  PRO1264    -0.2715
     24  CB        -5.0760   41.9030   -3.9610 C.3   1264  PRO1264     0.0310
     25  CG        -4.4030   42.6990   -5.0130 C.3   1264  PRO1264     0.0237
     26  CD        -3.0310   43.0210   -4.4860 C.3   1264  PRO1264     0.0939
     27  N         -5.1050   41.8190   -0.3850 N.am  1265  THR1265    -0.1937
     28  CA        -5.1000   40.9940    0.8230 C.3   1265  THR1265     0.2028
     29  C         -6.1870   39.9050    0.8760 C.2   1265  THR1265     0.2642
     30  O         -6.0980   38.9990    1.7030 O.2   1265  THR1265    -0.2714
     31  CB        -5.1520   41.8880    2.0990 C.3   1265  THR1265     0.1808
     32  OG1       -6.0740   42.9700    1.9070 O.3   1265  THR1265    -0.2208
     33  CG2       -3.8210   42.6000    2.3210 C.3   1265  THR1265     0.0379
     34  N         -7.1920   39.9840    0.0000 N.am  1266  PHE1266    -0.1973
     35  CA        -8.3010   39.0110   -0.0370 C.3   1266  PHE1266     0.1639
     36  C         -9.1160   38.9910    1.2570 C.2   1266  PHE1266     0.2290
     37  O         -9.4170   37.9260    1.8040 O.2   1266  PHE1266    -0.2864
     38  CB        -7.7950   37.5970   -0.3660 C.3   1266  PHE1266     0.0560
     39  CG        -7.4790   37.3890   -1.8150 C.ar  1266  PHE1266    -0.0200
     40  CD1       -6.2750   37.8420   -2.3500 C.ar  1266  PHE1266    -0.0042
     41  CD2       -8.3840   36.7330   -2.6470 C.ar  1266  PHE1266    -0.0042
     42  CE1       -5.9810   37.6510   -3.6950 C.ar  1266  PHE1266    -0.0003
     43  CE2       -8.0980   36.5350   -3.9920 C.ar  1266  PHE1266    -0.0003
     44  CZ        -6.8960   36.9950   -4.5180 C.ar  1266  PHE1266    -0.0000
@<TRIPOS>BOND
     1    25    26    1
     2    25    24    1
     3    19    16    2
     4    44    43   ar
     5    44    42   ar
     6    26    20    1
     7     4     3    2
     8    43    41   ar
     9    24    21    1
    10    42    40   ar
    11    13    16    1
    12    13    12    1
    13    16    17    1
    14    16    18    1
    15     1     2    1
    16    20    21    1
    17    20    14   am
    18     3     2    1
    19     3    10   am
    20    11    12    1
    21    11    10    1
    22    11    14    1
    23    21    22    1
    24    41    39   ar
    25     2     5    1
    26    40    39   ar
    27    14    15    2
    28    39    38    1
    29    23    22    2
    30    22    27   am
    31     5     6    1
    32    27    28    1
    33    38    35    1
    34     6     7    1
    35    35    34    1
    36    35    36    1
    37    34    29   am
    38    28    29    1
    39    28    31    1
    40    29    30    2
    41     7     8    2
    42     7     9   am
    43    36    37    2
    44    32    31    1
    45    31    33    1
