@<TRIPOS>MOLECULE
3con_GDP_A_1.pdb
 28 30 0 0 0
SMALL
GASTEIGER

@<TRIPOS>ATOM
      1  PB        10.5930   35.9740   -5.4990 P.3   201  GDP201      0.5373
      2  O1B        9.8120   36.7360   -6.5710 O.2   201  GDP201     -0.2221
      3  O2B       11.4240   34.8470   -6.0470 O.3   201  GDP201     -0.1143
      4  O3B        9.7330   35.6440   -4.2930 O.3   201  GDP201     -0.1143
      5  O3A       11.6530   36.9870   -4.8470 O.3   201  GDP201     -0.2261
      6  PA        13.2340   37.0940   -5.1440 P.3   201  GDP201      0.2231
      7  O1A       13.4490   37.2580   -6.6020 O.2   201  GDP201     -0.5169
      8  O2A       13.9790   35.9490   -4.4590 O.3   201  GDP201     -0.4370
      9  O5'       13.5980   38.4330   -4.2990 O.3   201  GDP201     -0.3111
     10  C5'       13.0980   39.6970   -4.7410 C.3   201  GDP201      0.1813
     11  C4'       14.0420   40.8250   -4.3400 C.3   201  GDP201      0.1799
     12  O4'       14.1600   40.8480   -2.9250 O.3   201  GDP201     -0.3326
     13  C3'       15.4460   40.6110   -4.8760 C.3   201  GDP201      0.2158
     14  O3'       16.0060   41.8810   -5.2310 O.3   201  GDP201     -0.2175
     15  C2'       16.1980   39.9770   -3.7210 C.3   201  GDP201      0.2310
     16  O2'       17.6260   40.1890   -3.7060 O.3   201  GDP201     -0.2158
     17  C1'       15.5040   40.6510   -2.5400 C.3   201  GDP201      0.2293
     18  N9        15.5630   39.8440   -1.3280 N.pl3 201  GDP201     -0.2354
     19  C8        15.1820   38.5360   -1.2220 C.3   201  GDP201      0.2246
     20  N7        15.3550   38.1190    0.0550 N.2   201  GDP201     -0.2322
     21  C5        15.8090   39.1880    0.7690 C.2   201  GDP201      0.2182
     22  C6        16.1800   39.4670    2.1710 C.1   201  GDP201      0.2372
     23  O6        16.1080   38.5890    3.0410 O.2   201  GDP201     -0.2069
     24  N1        16.5860   40.7340    2.4990 N.2   201  GDP201     -0.2485
     25  C2        16.7040   41.7440    1.5770 C.1   201  GDP201      0.2531
     26  N2        17.1110   42.9600    1.9740 N.pl3 201  GDP201     -0.0226
     27  N3        16.3570   41.5850    0.2790 N.2   201  GDP201     -0.3074
     28  C4        15.9340   40.3270   -0.1470 C.2   201  GDP201      0.2300
@<TRIPOS>BOND
     1     7     6    2
     2     2     1    2
     3     3     1    1
     4     1     5    1
     5     1     4    1
     6    14    13    1
     7     6     5    1
     8     6     8    1
     9     6     9    1
    10    13    11    1
    11    13    15    1
    12    10    11    1
    13    10     9    1
    14    11    12    1
    15    15    16    1
    16    15    17    1
    17    12    17    1
    18    17    18    1
    19    18    19    1
    20    18    28    1
    21    19    20    1
    22    28    27    2
    23    28    21    1
    24    20    21    2
    25    27    25    2
    26    21    22    1
    27    25    26    1
    28    25    24    2
    29    22    24    2
    30    22    23    2
