@<TRIPOS>MOLECULE
3cop_GLC_A_1.pdb
 12 12 0 0 0
SMALL
GASTEIGER

@<TRIPOS>ATOM
      1  C1        -0.2970  -44.3960   -7.7230 C.3   486  GLC486      0.3024
      2  C2        -0.9630  -45.6420   -7.1170 C.3   486  GLC486      0.2434
      3  C3        -2.3110  -45.3640   -6.4500 C.3   486  GLC486      0.2199
      4  C4        -2.1440  -44.1800   -5.5010 C.3   486  GLC486      0.2144
      5  C5        -1.7010  -42.9910   -6.3460 C.3   486  GLC486      0.1836
      6  C6        -1.6210  -41.7450   -5.4830 C.3   486  GLC486      0.2142
      7  O1        -0.7790  -44.0970   -9.0180 O.3   486  GLC486     -0.1869
      8  O2        -1.1280  -46.6370   -8.1080 O.3   486  GLC486     -0.2148
      9  O3        -2.7760  -46.5220   -5.7810 O.3   486  GLC486     -0.2174
     10  O4        -3.3210  -43.8960   -4.7720 O.3   486  GLC486     -0.2176
     11  O5        -0.4190  -43.2520   -6.8920 O.3   486  GLC486     -0.3236
     12  O6        -1.9250  -42.1580   -4.1730 O.3   486  GLC486     -0.2176
@<TRIPOS>BOND
     1     7     1    1
     2     8     2    1
     3     1     2    1
     4     1    11    1
     5     2     3    1
     6    11     5    1
     7     3     9    1
     8     3     4    1
     9     5     4    1
    10     5     6    1
    11     4    10    1
    12     6    12    1
