@<TRIPOS>MOLECULE
3cop_250_A_1.pdb
 17 17 0 0 0
SMALL
GASTEIGER

@<TRIPOS>ATOM
      1  O1         4.6650  -38.4930  -10.9840 O.3   488  250488     -0.3074
      2  S1         3.9640  -37.5070  -10.1310 S.3   488  250488     -0.1934
      3  O2         3.6530  -36.3050  -10.9450 O.3   488  250488     -0.3074
      4  O3         2.7150  -38.0980   -9.5970 O.3   488  250488     -0.3074
      5  C1         4.7920  -36.9510   -8.7690 C.3   488  250488      0.1394
      6  C2         5.9320  -37.7160   -8.0630 C.3   488  250488      0.1876
      7  O4         6.0860  -39.0590   -8.5090 O.3   488  250488     -0.2199
      8  C3         5.7650  -37.5340   -6.5370 C.3   488  250488      0.1071
      9  N1         6.4280  -38.5420   -5.6940 N.3   488  250488     -0.2681
     10  C7         5.8870  -39.9040   -5.6540 C.3   488  250488      0.0897
     11  C6         5.9860  -40.3860   -4.2130 C.3   488  250488      0.0897
     12  N2         7.4120  -40.4750   -3.9010 N.3   488  250488     -0.2681
     13  C5         8.3420  -39.4390   -4.3820 C.3   488  250488      0.0897
     14  C4         7.5690  -38.1840   -4.8490 C.3   488  250488      0.0897
     15  C8         7.8630  -41.6450   -3.1450 C.3   488  250488      0.1081
     16  C9         9.0780  -41.3090   -2.2880 C.3   488  250488      0.1993
     17  O5         8.6910  -40.4830   -1.1810 O.3   488  250488     -0.2189
@<TRIPOS>BOND
     1     1     2    1
     2     3     2    1
     3     2     4    1
     4     2     5    1
     5     5     6    1
     6     7     6    1
     7     6     8    1
     8     8     9    1
     9     9    10    1
    10     9    14    1
    11    10    11    1
    12    14    13    1
    13    13    12    1
    14    11    12    1
    15    12    15    1
    16    15    16    1
    17    16    17    1
