@<TRIPOS>MOLECULE
3cop_ADP_A_1.pdb
 27 29 0 0 0
SMALL
GASTEIGER

@<TRIPOS>ATOM
      1  PB         6.1530  -41.6740    0.9520 P.3   487  ADP487      0.5373
      2  O1B        7.6270  -41.8860    0.7130 O.3   487  ADP487     -0.1143
      3  O2B        5.1100  -42.3980    0.1360 O.2   487  ADP487     -0.2221
      4  O3B        5.9200  -40.0920    0.8370 O.3   487  ADP487     -0.1143
      5  PA         6.6830  -42.0280    3.7990 P.3   487  ADP487      0.2231
      6  O1A        7.9540  -42.8040    3.5770 O.2   487  ADP487     -0.5169
      7  O2A        5.7750  -42.3760    4.9520 O.3   487  ADP487     -0.4370
      8  O3A        5.7460  -42.0280    2.4830 O.3   487  ADP487     -0.2261
      9  O5'        7.0530  -40.4910    3.9630 O.3   487  ADP487     -0.3111
     10  C5'        6.0220  -39.5240    4.0900 C.3   487  ADP487      0.1813
     11  C4'        6.6440  -38.2670    4.6810 C.3   487  ADP487      0.1821
     12  O4'        5.7350  -37.2090    4.4310 O.3   487  ADP487     -0.3135
     13  C3'        6.7430  -38.3520    6.1880 C.3   487  ADP487      0.2184
     14  O3'        7.7260  -37.4070    6.6460 O.3   487  ADP487     -0.2174
     15  C2'        5.3730  -37.8810    6.6290 C.3   487  ADP487      0.2570
     16  O2'        5.4200  -37.4480    7.9850 O.3   487  ADP487     -0.2130
     17  C1'        5.1590  -36.7460    5.6470 C.3   487  ADP487      0.3186
     18  N9         3.7390  -36.3920    5.4290 N.pl3 487  ADP487     -0.1439
     19  C8         2.8360  -37.0490    4.6740 C.3   487  ADP487      0.3377
     20  N7         1.6540  -36.3960    4.7640 N.2   487  ADP487     -0.2095
     21  C5         1.8370  -35.3160    5.5620 C.2   487  ADP487      0.2526
     22  C6         1.0140  -34.2750    6.0070 C.2   487  ADP487      0.4393
     23  N6        -0.2790  -34.2110    5.6220 N.pl3 487  ADP487      0.2180
     24  N1         1.5150  -33.3300    6.8380 N.2   487  ADP487      0.0021
     25  C2         2.8020  -33.3720    7.2220 C.3   487  ADP487      0.5254
     26  N3         3.6200  -34.3590    6.8060 N.2   487  ADP487     -0.0055
     27  C4         3.1580  -35.3260    5.9760 C.2   487  ADP487      0.3518
@<TRIPOS>BOND
     1     3     1    2
     2     2     1    1
     3     4     1    1
     4     1     8    1
     5     8     5    1
     6     6     5    2
     7     5     9    1
     8     5     7    1
     9     9    10    1
    10    10    11    1
    11    12    11    1
    12    12    17    1
    13    19    20    1
    14    19    18    1
    15    11    13    1
    16    20    21    2
    17    18    17    1
    18    18    27    1
    19    21    27    1
    20    21    22    1
    21    23    22    1
    22    17    15    1
    23    27    26    2
    24    22    24    2
    25    13    15    1
    26    13    14    1
    27    15    16    1
    28    26    25    1
    29    24    25    1
