@<TRIPOS>MOLECULE
3cor_NGA_A_1.pdb
 15 15 0 0 0
SMALL
GASTEIGER

@<TRIPOS>ATOM
      1  C1         5.7310   11.4350   44.7600 C.3   172  NGA172      0.2917
      2  C2         5.5480   10.0940   44.0080 C.3   172  NGA172      0.1871
      3  C3         6.7930    9.7220   43.2020 C.3   172  NGA172      0.2095
      4  C4         7.0130   10.8620   42.2310 C.3   172  NGA172      0.2136
      5  C5         7.1650   12.1850   43.0610 C.3   172  NGA172      0.1835
      6  C6         7.3950   13.3180   42.1350 C.3   172  NGA172      0.2142
      7  C7         4.0940    8.9260   45.3740 C.2   172  NGA172      0.2421
      8  C8         4.1110    8.0460   46.3890 C.3   172  NGA172      0.0964
      9  N2         5.2810    9.1760   44.9930 N.am  172  NGA172     -0.1991
     10  O1         4.5640   11.7590   45.5420 O.3   172  NGA172     -0.1879
     11  O3         6.5870    8.4750   42.5040 O.3   172  NGA172     -0.2183
     12  O4         5.9270   11.0000   41.2620 O.3   172  NGA172     -0.2176
     13  O5         5.9770   12.4810   43.8260 O.3   172  NGA172     -0.3242
     14  O6         7.5200   14.5280   42.8370 O.3   172  NGA172     -0.2176
     15  O7         3.0630    9.4080   44.9510 O.2   172  NGA172     -0.2733
@<TRIPOS>BOND
     1    12     4    1
     2     6    14    1
     3     6     5    1
     4     4     5    1
     5     4     3    1
     6    11     3    1
     7     5    13    1
     8     3     2    1
     9    13     1    1
    10     2     1    1
    11     2     9    1
    12     1    10    1
    13    15     7    2
    14     9     7   am
    15     7     8    1
