@<TRIPOS>MOLECULE
3cos_NAD_A_1.pdb
 44 48 0 0 0
SMALL
GASTEIGER

@<TRIPOS>ATOM
      1  PA       -15.3930   78.4900   65.3020 P.3   400  NAD400      0.2189
      2  O1A      -16.3010   78.1980   64.1760 O.2   400  NAD400     -0.5170
      3  O2A      -15.2690   79.8460   65.8280 O.3   400  NAD400     -0.4371
      4  O5B      -15.7790   77.4870   66.4690 O.3   400  NAD400     -0.3112
      5  C5B      -15.0530   77.4080   67.7050 C.3   400  NAD400      0.1813
      6  C4B      -15.9320   76.8010   68.7620 C.3   400  NAD400      0.1821
      7  O4B      -15.1190   76.7770   69.9790 O.3   400  NAD400     -0.3135
      8  C3B      -17.1700   77.7130   69.0520 C.3   400  NAD400      0.2184
      9  O3B      -18.4190   76.9780   68.9300 O.3   400  NAD400     -0.2174
     10  C2B      -16.8800   78.2140   70.4880 C.3   400  NAD400      0.2570
     11  O2B      -18.0720   78.3860   71.2630 O.3   400  NAD400     -0.2130
     12  C1B      -16.0460   77.0410   71.0410 C.3   400  NAD400      0.3186
     13  N9A      -15.3080   77.3650   72.2720 N.pl3 400  NAD400     -0.1439
     14  C8A      -14.6560   78.5190   72.5340 C.3   400  NAD400      0.3377
     15  N7A      -14.1080   78.4330   73.7540 N.2   400  NAD400     -0.2095
     16  C5A      -14.4000   77.2320   74.2610 C.2   400  NAD400      0.2526
     17  C6A      -14.1090   76.5980   75.4590 C.2   400  NAD400      0.4393
     18  N6A      -13.3880   77.2310   76.3780 N.pl3 400  NAD400      0.2180
     19  N1A      -14.5550   75.3460   75.6680 N.2   400  NAD400      0.0021
     20  C2A      -15.2810   74.7160   74.7470 C.3   400  NAD400      0.5254
     21  N3A      -15.5810   75.3020   73.5980 N.2   400  NAD400     -0.0055
     22  C4A      -15.1600   76.5480   73.3190 C.2   400  NAD400      0.3518
     23  O3       -13.8500   78.0840   64.9210 O.3   400  NAD400     -0.2703
     24  PN       -13.4510   77.1410   63.6850 P.3   400  NAD400      0.2189
     25  O1N      -13.4460   77.9200   62.4320 O.2   400  NAD400     -0.5170
     26  O2N      -14.2550   75.8950   63.8230 O.3   400  NAD400     -0.4371
     27  O5D      -11.9370   76.8480   64.1080 O.3   400  NAD400     -0.3112
     28  C5D      -11.6100   76.1170   65.2890 C.3   400  NAD400      0.1813
     29  C4D      -10.1270   76.3120   65.6420 C.3   400  NAD400      0.1799
     30  O4D       -9.3210   75.5390   64.6880 O.3   400  NAD400     -0.3327
     31  C3D       -9.6740   77.7660   65.5460 C.3   400  NAD400      0.2158
     32  O3D       -8.7740   78.0640   66.6520 O.3   400  NAD400     -0.2175
     33  C2D       -8.9700   77.7970   64.1840 C.3   400  NAD400      0.2309
     34  O2D       -7.9930   78.8490   64.0330 O.3   400  NAD400     -0.2158
     35  C1D       -8.2770   76.4340   64.1920 C.3   400  NAD400      0.2263
     36  N1N       -7.9750   75.7520   62.9100 N.pl3 400  NAD400     -0.2787
     37  C2N       -6.8110   75.0160   62.8230 C.3   400  NAD400      0.1244
     38  C3N       -6.5290   74.3310   61.6570 C.2   400  NAD400      0.0544
     39  C7N       -5.2500   73.5350   61.6280 C.2   400  NAD400      0.2818
     40  O7N       -4.7560   73.0820   60.4770 O.2   400  NAD400     -0.2670
     41  N7N       -4.6990   73.2700   62.8210 N.am  400  NAD400     -0.0839
     42  C4N       -7.4020   74.3570   60.5720 C.2   400  NAD400      0.0033
     43  C5N       -8.5980   75.0700   60.6550 C.2   400  NAD400      0.0157
     44  C6N       -8.8880   75.7640   61.8230 C.2   400  NAD400      0.0633
@<TRIPOS>BOND
     1    40    39    2
     2    42    43    1
     3    42    38    2
     4    43    44    2
     5    39    38    1
     6    39    41   am
     7    38    37    1
     8    44    36    1
     9    25    24    2
    10    37    36    1
    11    36    35    1
    12    24    26    1
    13    24    27    1
    14    24    23    1
    15    34    33    1
    16    27    28    1
    17     2     1    2
    18    33    35    1
    19    33    31    1
    20    35    30    1
    21    30    29    1
    22    23     1    1
    23    28    29    1
    24     1     3    1
    25     1     4    1
    26    31    29    1
    27    31    32    1
    28     4     5    1
    29     5     6    1
    30     6     8    1
    31     6     7    1
    32     9     8    1
    33     8    10    1
    34     7    12    1
    35    10    12    1
    36    10    11    1
    37    12    13    1
    38    13    14    1
    39    13    22    1
    40    14    15    1
    41    22    21    2
    42    22    16    1
    43    21    20    1
    44    15    16    2
    45    16    17    1
    46    20    19    1
    47    17    19    2
    48    17    18    1
