@<TRIPOS>MOLECULE
3cot_NAP_A_1.pdb
 48 52 0 0 0
SMALL
GASTEIGER

@<TRIPOS>ATOM
      1  PA         6.2160  -16.0440    3.9290 P.3   3902  NAP3902     0.2189
      2  O1A        6.9820  -15.7360    5.0690 O.3   3902  NAP3902    -0.4371
      3  O2A        5.1220  -15.1370    3.4990 O.2   3902  NAP3902    -0.5170
      4  O5B        5.6680  -17.5820    4.0920 O.3   3902  NAP3902    -0.3112
      5  C5B        5.0570  -18.2710    3.2130 C.3   3902  NAP3902     0.1813
      6  C4B        4.8980  -19.6190    3.4710 C.3   3902  NAP3902     0.1820
      7  O4B        4.0380  -19.6600    4.5840 O.3   3902  NAP3902    -0.3136
      8  C3B        4.1510  -20.4440    2.3650 C.3   3902  NAP3902     0.2157
      9  O3B        4.7630  -21.7300    2.3350 O.3   3902  NAP3902    -0.2175
     10  C2B        2.6900  -20.4810    2.8390 C.3   3902  NAP3902     0.2314
     11  O2B        2.0140  -21.6840    2.3730 O.3   3902  NAP3902    -0.2630
     12  C1B        2.8220  -20.4330    4.3520 C.3   3902  NAP3902     0.3158
     13  N9A        1.7830  -19.7320    5.1170 N.pl3 3902  NAP3902    -0.1439
     14  C8A        1.0880  -18.5930    4.7860 C.3   3902  NAP3902     0.3377
     15  N7A        0.1900  -18.2390    5.7770 N.2   3902  NAP3902    -0.2095
     16  C5A        0.3810  -19.2070    6.6960 C.2   3902  NAP3902     0.2526
     17  C6A       -0.2880  -19.3540    7.9510 C.2   3902  NAP3902     0.4393
     18  N6A       -1.2210  -18.5900    8.4820 N.pl3 3902  NAP3902     0.2180
     19  N1A        0.1280  -20.5030    8.7390 N.2   3902  NAP3902     0.0021
     20  C2A        1.0970  -21.4100    8.3310 C.3   3902  NAP3902     0.5254
     21  N3A        1.7140  -21.2430    7.1340 N.2   3902  NAP3902    -0.0055
     22  C4A        1.3470  -20.1110    6.2900 C.2   3902  NAP3902     0.3518
     23  O3         7.2290  -15.9750    2.6970 O.3   3902  NAP3902    -0.2703
     24  PN         7.7240  -15.5070    1.3230 P.3   3902  NAP3902     0.2189
     25  O1N        9.0820  -15.8200    1.1810 O.3   3902  NAP3902    -0.4371
     26  O2N        6.7260  -16.0550    0.3310 O.2   3902  NAP3902    -0.5170
     27  O5D        7.4370  -14.0910    1.5280 O.3   3902  NAP3902    -0.3112
     28  C5D        6.3710  -13.1770    1.2240 C.3   3902  NAP3902     0.1813
     29  C4D        6.4050  -12.4250   -0.0750 C.3   3902  NAP3902     0.1799
     30  O4D        7.5680  -11.5390   -0.0040 O.3   3902  NAP3902    -0.3327
     31  C3D        6.7600  -13.2400   -1.3870 C.3   3902  NAP3902     0.2158
     32  O3D        5.7320  -14.1990   -1.7920 O.3   3902  NAP3902    -0.2175
     33  C2D        7.1940  -12.0680   -2.2840 C.3   3902  NAP3902     0.2309
     34  O2D        6.0110  -11.3740   -2.7970 O.3   3902  NAP3902    -0.2158
     35  C1D        8.0780  -11.2710   -1.3290 C.3   3902  NAP3902     0.2263
     36  N1N        9.5470  -11.6090   -1.2420 N.pl3 3902  NAP3902    -0.2787
     37  C2N       10.4340  -10.6110   -1.6650 C.3   3902  NAP3902     0.1244
     38  C3N       11.8430  -10.8770   -1.6530 C.2   3902  NAP3902     0.0544
     39  C7N       12.8060   -9.7710   -2.1190 C.2   3902  NAP3902     0.2818
     40  O7N       14.0060   -9.9900   -2.1170 O.2   3902  NAP3902    -0.2670
     41  N7N       12.1500   -8.6600   -2.4770 N.am  3902  NAP3902    -0.0839
     42  C4N       12.3470  -12.1620   -1.2070 C.2   3902  NAP3902     0.0033
     43  C5N       11.4550  -13.2300   -0.7520 C.2   3902  NAP3902     0.0157
     44  C6N       10.0820  -12.9340   -0.7750 C.2   3902  NAP3902     0.0633
     45  P2B        0.5620  -21.6040    1.6470 P.3   3902  NAP3902     0.5328
     46  O1X        0.6850  -20.7500    0.3960 O.2   3902  NAP3902    -0.2224
     47  O2X        0.2310  -23.0610    1.3460 O.3   3902  NAP3902    -0.1145
     48  O3X       -0.3950  -20.9340    2.6390 O.3   3902  NAP3902    -0.1145
@<TRIPOS>BOND
     1    34    33    1
     2    41    39   am
     3    33    31    1
     4    33    35    1
     5    39    40    2
     6    39    38    1
     7    32    31    1
     8    37    38    1
     9    37    36    1
    10    38    42    2
    11    31    29    1
    12    35    36    1
    13    35    30    1
    14    36    44    1
    15    42    43    1
    16    44    43    2
    17    29    30    1
    18    29    28    1
    19    26    24    2
    20    46    45    2
    21    25    24    1
    22    28    27    1
    23    24    27    1
    24    24    23    1
    25    47    45    1
    26    45    11    1
    27    45    48    1
    28     9     8    1
    29     8    10    1
    30     8     6    1
    31    11    10    1
    32    23     1    1
    33    10    12    1
    34     5     6    1
    35     5     4    1
    36     6     7    1
    37     3     1    2
    38     1     4    1
    39     1     2    1
    40    12     7    1
    41    12    13    1
    42    14    13    1
    43    14    15    1
    44    13    22    1
    45    15    16    2
    46    22    16    1
    47    22    21    2
    48    16    17    1
    49    21    20    1
    50    17    18    1
    51    17    19    2
    52    20    19    1
