@<TRIPOS>MOLECULE
3cot_STR_A_1.pdb
 23 26 0 0 0
SMALL
GASTEIGER

@<TRIPOS>ATOM
      1  C1        14.9860  -13.0410   -5.2410 C.3   1501  STR1501     0.0118
      2  C2        14.1380  -11.7650   -5.0740 C.3   1501  STR1501     0.0694
      3  C3        12.6500  -11.9800   -4.9600 C.2   1501  STR1501     0.1725
      4  O3        11.8680  -11.0360   -5.1330 O.2   1501  STR1501    -0.2914
      5  C4        12.1510  -13.3300   -4.6170 C.2   1501  STR1501     0.0289
      6  C5        12.9650  -14.4120   -4.4280 C.2   1501  STR1501    -0.0420
      7  C6        12.3560  -15.7720   -4.0610 C.3   1501  STR1501     0.0221
      8  C7        12.8200  -16.8870   -5.0070 C.3   1501  STR1501     0.0044
      9  C8        14.3610  -16.9580   -5.1030 C.3   1501  STR1501     0.0006
     10  C9        14.9380  -15.5660   -5.5390 C.3   1501  STR1501     0.0035
     11  C10       14.5160  -14.3850   -4.5820 C.3   1501  STR1501     0.0157
     12  C11       16.4670  -15.6370   -5.7100 C.3   1501  STR1501     0.0003
     13  C12       16.9320  -16.7890   -6.6610 C.3   1501  STR1501     0.0004
     14  C13       16.3640  -18.1650   -6.2370 C.3   1501  STR1501     0.0065
     15  C14       14.8330  -18.0500   -6.1070 C.3   1501  STR1501     0.0004
     16  C15       14.3930  -19.5140   -5.8900 C.3   1501  STR1501     0.0004
     17  C16       15.1760  -20.2230   -6.8550 C.3   1501  STR1501     0.0073
     18  C17       16.3830  -19.3200   -7.2820 C.3   1501  STR1501     0.0576
     19  C18       17.0880  -18.5920   -4.9000 C.3   1501  STR1501     0.0004
     20  C19       15.1500  -14.4670   -3.1710 C.3   1501  STR1501     0.0041
     21  C20       17.7240  -20.0870   -7.3560 C.2   1501  STR1501     0.1507
     22  O20       17.8580  -21.1720   -6.7980 O.2   1501  STR1501    -0.2961
     23  C21       18.8480  -19.4840   -8.1290 C.3   1501  STR1501     0.0722
@<TRIPOS>BOND
     1    23    21    1
     2    21    18    1
     3    21    22    2
     4    18    17    1
     5    18    14    1
     6    17    16    1
     7    13    14    1
     8    13    12    1
     9    14    15    1
    10    14    19    1
    11    15    16    1
    12    15     9    1
    13    12    10    1
    14    10     9    1
    15    10    11    1
    16     1     2    1
    17     1    11    1
    18     4     3    2
    19     9     8    1
    20     2     3    1
    21     8     7    1
    22     3     5    1
    23     5     6    2
    24    11     6    1
    25    11    20    1
    26     6     7    1
