@<TRIPOS>MOLECULE
3cow_52H_A_1.pdb
 31 33 0 0 0
SMALL
GASTEIGER

@<TRIPOS>ATOM
      1  C4        13.8990    9.7710   -2.5810 C.2   401  52H401      0.3518
      2  C5        14.9440   10.2780   -3.3700 C.2   401  52H401      0.2526
      3  C6        14.8260   10.1480   -4.7550 C.2   401  52H401      0.4393
      4  C8        15.4340   10.6060   -1.2940 C.3   401  52H401      0.3377
      5  N1        13.6950    9.5980   -5.2450 N.2   401  52H401      0.0021
      6  N3        12.8020    9.2040   -3.1430 N.2   401  52H401     -0.0055
      7  CAA       14.7240    8.7300    9.1040 C.3   401  52H401      0.0030
      8  CBB       14.5420    9.1160    7.6300 C.3   401  52H401      0.0369
      9  CAB       13.7970   10.4470    7.6040 C.3   401  52H401      0.0030
     10  CAC       13.7600    8.0120    6.9820 C.3   401  52H401      0.0030
     11  CAX       15.9190    9.1990    6.9080 C.3   401  52H401      0.2305
     12  OAH       16.6720    7.9460    7.0220 O.3   401  52H401     -0.2131
     13  CAT       15.9110    9.5690    5.3990 C.2   401  52H401      0.2927
     14  OAE       15.9820    8.6990    4.5240 O.2   401  52H401     -0.2689
     15  NAQ       15.9210   10.8670    5.1770 N.am  401  52H401     -0.0566
     16  SBE       16.0610   11.5310    3.6950 S.3   401  52H401      0.0852
     17  OAF       17.3990   11.2600    3.1300 O.3   401  52H401     -0.0508
     18  OAG       15.7200   12.9560    3.7950 O.3   401  52H401     -0.0508
     19  O5'       15.1560   10.9450    2.7170 O.3   401  52H401     -0.2230
     20  C5'       13.7240   11.1290    2.9860 C.3   401  52H401      0.2064
     21  C4'       12.8590   10.2310    2.0620 C.3   401  52H401      0.1842
     22  O4'       13.0500   10.7160    0.7080 O.3   401  52H401     -0.3135
     23  C3'       13.3570    8.7880    2.0830 C.3   401  52H401      0.2185
     24  O3'       12.2350    7.9230    2.0590 O.3   401  52H401     -0.2174
     25  C2'       14.1670    8.6820    0.7820 C.3   401  52H401      0.2570
     26  O2'       14.2240    7.3520    0.2010 O.3   401  52H401     -0.2130
     27  C1'       13.3770    9.6020   -0.1460 C.3   401  52H401      0.3186
     28  N9        14.2200    9.9950   -1.3100 N.pl3 401  52H401     -0.1439
     29  N7        15.8830   10.7930   -2.5550 N.2   401  52H401     -0.2095
     30  C2        12.7290    9.1120   -4.4720 C.3   401  52H401      0.5254
     31  N6        15.7960   10.6090   -5.5710 N.pl3 401  52H401      0.2180
@<TRIPOS>BOND
     1    31     3    1
     2     5     3    2
     3     5    30    1
     4     3     2    1
     5    30     6    1
     6     2     1    1
     7     2    29    2
     8     6     1    2
     9     1    28    1
    10    29     4    1
    11    28     4    1
    12    28    27    1
    13    27    22    1
    14    27    25    1
    15    26    25    1
    16    22    21    1
    17    25    23    1
    18    24    23    1
    19    21    23    1
    20    21    20    1
    21    19    20    1
    22    19    16    1
    23    17    16    1
    24    16    18    1
    25    16    15    1
    26    14    13    2
    27    15    13   am
    28    13    11    1
    29    11    12    1
    30    11     8    1
    31    10     8    1
    32     9     8    1
    33     8     7    1
