@<TRIPOS>MOLECULE
3coy_53H_A_1.pdb
 31 33 0 0 0
SMALL
GASTEIGER

@<TRIPOS>ATOM
      1  C1        15.9780    9.7850    5.1690 C.2   301  53H301      0.2798
      2  C2        12.9040    9.1740   -4.7500 C.3   301  53H301      0.5254
      3  C3        15.9780    9.3600    6.6230 C.3   301  53H301      0.1708
      4  C4        14.0430    9.9190   -2.8510 C.2   301  53H301      0.3518
      5  C5        15.0840   10.4280   -3.6300 C.2   301  53H301      0.2526
      6  C6        14.9950   10.2820   -5.0020 C.2   301  53H301      0.4393
      7  C7        14.6110    9.3010    7.3270 C.3   301  53H301      0.0248
      8  N1        13.8950    9.6540   -5.5200 N.2   301  53H301      0.0021
      9  N2        16.0410   11.1200    4.9100 N.am  301  53H301     -0.0577
     10  O1        15.9810    8.9220    4.2910 O.2   301  53H301     -0.2701
     11  C8        15.5520   10.8080   -1.5320 C.3   301  53H301      0.3377
     12  O2        14.3440    7.4730    0.0010 O.3   301  53H301     -0.2130
     13  N3        12.9630    9.2950   -3.4200 N.2   301  53H301     -0.0055
     14  C9        13.6750    8.3350    6.6490 C.3   301  53H301      0.0019
     15  C10       14.8150    8.7990    8.7460 C.3   301  53H301      0.0019
     16  C11       13.9180   10.6620    7.4310 C.3   301  53H301      0.0019
     17  N4        16.7390    8.0470    6.8430 N.3   301  53H301     -0.1230
     18  S1        16.1190   11.7770    3.5160 S.3   301  53H301      0.0852
     19  O1A       17.3970   11.5100    2.9350 O.3   301  53H301     -0.0508
     20  O2A       15.8100   13.1830    3.5890 O.3   301  53H301     -0.0508
     21  O5        15.0660   11.1550    2.4350 O.3   301  53H301     -0.2230
     22  C25       13.6620   11.3080    2.6870 C.3   301  53H301      0.2064
     23  C24       12.9450   10.3860    1.7260 C.3   301  53H301      0.1842
     24  C23       13.5110    8.9740    1.7970 C.3   301  53H301      0.2185
     25  O3        12.4460    8.0410    1.8130 O.3   301  53H301     -0.2174
     26  C22       14.2850    8.8210    0.4980 C.3   301  53H301      0.2570
     27  C21       13.5160    9.7630   -0.4270 C.3   301  53H301      0.3186
     28  O4        13.1860   10.8710    0.3920 O.3   301  53H301     -0.3135
     29  N9        14.3640   10.1590   -1.5780 N.pl3 301  53H301     -0.1439
     30  N7        16.0070   10.9830   -2.8040 N.2   301  53H301     -0.2095
     31  N6        15.9960   10.7380   -5.8040 N.pl3 301  53H301      0.2180
@<TRIPOS>BOND
     1    31     6    1
     2     8     6    2
     3     8     2    1
     4     6     5    1
     5     2    13    1
     6     5     4    1
     7     5    30    2
     8    13     4    2
     9     4    29    1
    10    30    11    1
    11    29    11    1
    12    29    27    1
    13    27    28    1
    14    27    26    1
    15    12    26    1
    16    28    23    1
    17    26    24    1
    18    23    24    1
    19    23    22    1
    20    24    25    1
    21    21    22    1
    22    21    18    1
    23    19    18    1
    24    18    20    1
    25    18     9    1
    26    10     1    2
    27     9     1   am
    28     1     3    1
    29     3    17    1
    30     3     7    1
    31    14     7    1
    32     7    16    1
    33     7    15    1
