@<TRIPOS>MOLECULE
3coz_54H_A_1.pdb
 30 32 0 0 0
SMALL
GASTEIGER

@<TRIPOS>ATOM
      1  C4        14.1440    9.9470   -2.7610 C.2   401  54H401      0.3518
      2  C5        15.1590   10.4640   -3.5720 C.2   401  54H401      0.2526
      3  C6        15.0160   10.3250   -4.9470 C.2   401  54H401      0.4393
      4  C8        15.6880   10.7930   -1.4940 C.3   401  54H401      0.3377
      5  N1        13.8950    9.7240   -5.4300 N.2   401  54H401      0.0021
      6  N3        13.0540    9.3650   -3.3040 N.2   401  54H401     -0.0055
      7  CG2       13.5480    8.3750    6.1450 C.3   401  54H401      0.0020
      8  CB        14.4500    8.9680    7.2170 C.3   401  54H401      0.0266
      9  CG1       13.8540   10.2730    7.7460 C.3   401  54H401      0.0020
     10  CA        15.8940    9.1840    6.7100 C.3   401  54H401      0.1709
     11  N         16.7320    7.9690    6.9390 N.3   401  54H401     -0.1230
     12  C         16.0040    9.6550    5.2250 C.2   401  54H401      0.2798
     13  O         16.1600    8.8360    4.3150 O.2   401  54H401     -0.2701
     14  NAP       15.9720   10.9840    5.0400 N.am  401  54H401     -0.0577
     15  SBD       16.1370   11.6920    3.5670 S.3   401  54H401      0.0852
     16  OAF       17.4950   11.3470    3.0610 O.3   401  54H401     -0.0508
     17  OAG       15.8890   13.1830    3.6730 O.3   401  54H401     -0.0508
     18  O5'       15.2160   11.1640    2.5810 O.3   401  54H401     -0.2230
     19  C5'       13.7860   11.2530    2.8060 C.3   401  54H401      0.2064
     20  C4'       13.0390   10.3930    1.8110 C.3   401  54H401      0.1842
     21  O4'       13.2960   10.8810    0.4530 O.3   401  54H401     -0.3135
     22  C3'       13.5980    8.9690    1.8860 C.3   401  54H401      0.2185
     23  O3'       12.5010    8.1070    1.8100 O.3   401  54H401     -0.2174
     24  C2'       14.4490    8.8640    0.6240 C.3   401  54H401      0.2570
     25  O2'       14.5610    7.5130    0.1160 O.3   401  54H401     -0.2130
     26  C1'       13.6490    9.7550   -0.3330 C.3   401  54H401      0.3186
     27  N9        14.4920   10.1660   -1.4980 N.pl3 401  54H401     -0.1439
     28  N7        16.1000   10.9700   -2.7650 N.2   401  54H401     -0.2095
     29  C2        12.9400    9.2630   -4.6280 C.3   401  54H401      0.5254
     30  N6        15.9570   10.7620   -5.7820 N.pl3 401  54H401      0.2180
@<TRIPOS>BOND
     1    30     3    1
     2     5     3    2
     3     5    29    1
     4     3     2    1
     5    29     6    1
     6     2    28    2
     7     2     1    1
     8     6     1    2
     9    28     4    1
    10     1    27    1
    11    27     4    1
    12    27    26    1
    13    26    21    1
    14    26    24    1
    15    25    24    1
    16    21    20    1
    17    24    22    1
    18    23    22    1
    19    20    22    1
    20    20    19    1
    21    18    19    1
    22    18    15    1
    23    16    15    1
    24    15    17    1
    25    15    14    1
    26    13    12    2
    27    14    12   am
    28    12    10    1
    29     7     8    1
    30    10    11    1
    31    10     8    1
    32     8     9    1
