@<TRIPOS>MOLECULE
3cp4_ADM_A_1.pdb
 10 12 0 0 0
SMALL
GASTEIGER

@<TRIPOS>ATOM
      1  C1        46.0740   44.7880   15.4160 C.3   416  ADM416      0.0000
      2  C2        44.6660   44.3810   14.8160 C.3   416  ADM416      0.0000
      3  C3        44.7750   43.2180   13.7720 C.3   416  ADM416      0.0000
      4  C4        45.7500   43.6460   12.6150 C.3   416  ADM416      0.0000
      5  C5        47.1800   44.0300   13.2170 C.3   416  ADM416      0.0000
      6  C6        47.7590   42.7900   13.9580 C.3   416  ADM416      0.0000
      7  C7        46.8130   42.3460   15.1360 C.3   416  ADM416      0.0000
      8  C8        46.6470   43.5200   16.1700 C.3   416  ADM416      0.0000
      9  C9        47.0080   45.2240   14.2320 C.3   416  ADM416      0.0000
     10  C10       45.3960   41.9790   14.5410 C.3   416  ADM416      0.0000
@<TRIPOS>BOND
     1     4     5    1
     2     4     3    1
     3     5     6    1
     4     5     9    1
     5     3    10    1
     6     3     2    1
     7     6     7    1
     8     9     1    1
     9    10     7    1
    10     2     1    1
    11     7     8    1
    12     1     8    1
