@<TRIPOS>MOLECULE
3cp4_HEM_A_1.pdb
 43 50 0 0 0
SMALL
GASTEIGER

@<TRIPOS>ATOM
      1 FE         48.4730   46.1800    9.3210 Fe    415  HEM415      0.0000
      2  CHA       45.4460   44.8060    8.9250 C.2   415  HEM415      0.0000
      3  CHB       49.8770   43.0640    9.8450 C.2   415  HEM415      0.0000
      4  CHC       51.5070   47.5980    9.4450 C.2   415  HEM415      0.0000
      5  CHD       46.9910   49.2120   10.0850 C.2   415  HEM415      0.0000
      6  NA        47.7840   44.3170    9.4470 N.ar  415  HEM415      0.0000
      7  C1A       46.4910   43.9360    9.1440 C.ar  415  HEM415      0.0000
      8  C2A       46.4170   42.5030    9.0450 C.ar  415  HEM415      0.0000
      9  C3A       47.6410   42.0040    9.2870 C.ar  415  HEM415      0.0000
     10  C4A       48.4970   43.1350    9.5940 C.ar  415  HEM415      0.0000
     11  CMA       48.1000   40.5460    9.3380 C.3   415  HEM415      0.0000
     12  CAA       45.0890   41.7940    8.7570 C.3   415  HEM415      0.0000
     13  CBA       44.0230   41.7310    9.8560 C.3   415  HEM415      0.0000
     14  CGA       43.1880   40.4750    9.7980 C.2   415  HEM415      0.0000
     15  O1A       43.0340   39.9300    8.6760 O.co2 415  HEM415      0.0000
     16  O2A       42.7520   40.0430   10.8940 O.co2 415  HEM415      0.0000
     17  NB        50.3460   45.4890    9.6820 N.2   415  HEM415      0.0000
     18  C1B       50.7650   44.1570    9.6960 C.2   415  HEM415      0.0000
     19  C2B       52.1810   44.0780    9.4650 C.2   415  HEM415      0.0000
     20  C3B       52.6380   45.3030    9.2930 C.2   415  HEM415      0.0000
     21  C4B       51.5070   46.2000    9.4550 C.2   415  HEM415      0.0000
     22  CMB       52.9450   42.7430    9.4320 C.3   415  HEM415      0.0000
     23  CAB       54.0840   45.7960    9.0490 C.2   415  HEM415      0.0000
     24  CBB       55.0350   45.6180    9.9940 C.2   415  HEM415      0.0000
     25  NC        49.1050   48.0310    9.7640 N.ar  415  HEM415      0.0000
     26  C1C       50.4240   48.4530    9.6490 C.ar  415  HEM415      0.0000
     27  C2C       50.4690   49.8950    9.6530 C.ar  415  HEM415      0.0000
     28  C3C       49.2090   50.3270    9.7840 C.ar  415  HEM415      0.0000
     29  C4C       48.3490   49.1690    9.9080 C.ar  415  HEM415      0.0000
     30  CMC       51.7580   50.6960    9.4500 C.3   415  HEM415      0.0000
     31  CAC       48.6960   51.8030    9.8540 C.2   415  HEM415      0.0000
     32  CBC       48.8780   52.4320   11.0580 C.2   415  HEM415      0.0000
     33  ND        46.5800   46.8600    9.5590 N.2   415  HEM415      0.0000
     34  C1D       46.1690   48.1680    9.7230 C.2   415  HEM415      0.0000
     35  C2D       44.7230   48.2490    9.5220 C.2   415  HEM415      0.0000
     36  C3D       44.2930   47.0310    9.2000 C.2   415  HEM415      0.0000
     37  C4D       45.4380   46.1550    9.2270 C.2   415  HEM415      0.0000
     38  CMD       43.9080   49.5540    9.6370 C.3   415  HEM415      0.0000
     39  CAD       42.8790   46.5560    8.8840 C.3   415  HEM415      0.0000
     40  CBD       42.2400   46.5770    7.5040 C.3   415  HEM415      0.0000
     41  CGD       40.8560   45.9270    7.4460 C.2   415  HEM415      0.0000
     42  O1D       40.2710   45.9770    6.2970 O.co2 415  HEM415      0.0000
     43  O2D       40.4310   45.3980    8.5260 O.co2 415  HEM415      0.0000
@<TRIPOS>BOND
     1    42    41   ar
     2    41    40    1
     3    41    43   ar
     4    40    39    1
     5    15    14   ar
     6    12     8    1
     7    12    13    1
     8    39    36    1
     9     2     7    2
    10     2    37    1
    11     8     7   ar
    12     8     9   ar
    13    23    20    1
    14    23    24    2
    15     7     6   ar
    16    36    37    1
    17    36    35    2
    18    37    33    2
    19     9    11    1
    20     9    10   ar
    21    20    21    1
    22    20    19    2
    23     1     6    1
    24     1    33    1
    25     1    17    1
    26     1    25    1
    27    22    19    1
    28     4    21    2
    29     4    26    1
    30     6    10   ar
    31    30    27    1
    32    21    17    1
    33    19    18    1
    34    35    38    1
    35    35    34    1
    36    33    34    1
    37    10     3    2
    38    26    27   ar
    39    26    25   ar
    40    27    28   ar
    41    17    18    2
    42    18     3    1
    43    34     5    2
    44    25    29   ar
    45    28    31    1
    46    28    29   ar
    47    14    13    1
    48    14    16   ar
    49    31    32    2
    50    29     5    1
