@<TRIPOS>MOLECULE
3cp5_HEC_A_1.pdb
 43 50 0 0 0
SMALL
GASTEIGER

@<TRIPOS>ATOM
      1 FE          6.2530   17.3220   34.9970 Fe    202  HEC202      0.0000
      2  CHA        8.9780   15.8760   33.5240 C.2   202  HEC202      0.0000
      3  CHB        4.2010   15.0600   33.4850 C.2   202  HEC202      0.0000
      4  CHC        3.6020   18.5890   36.7690 C.2   202  HEC202      0.0000
      5  CHD        8.1810   19.9060   36.0320 C.2   202  HEC202      0.0000
      6  NA         6.5390   15.8070   33.7450 N.ar  202  HEC202      0.0000
      7  C1A        7.7460   15.2920   33.2670 C.ar  202  HEC202      0.0000
      8  C2A        7.4880   14.0820   32.5250 C.ar  202  HEC202      0.0000
      9  C3A        6.1650   13.8720   32.4870 C.ar  202  HEC202      0.0000
     10  C4A        5.5750   14.9410   33.2810 C.ar  202  HEC202      0.0000
     11  CMA        5.3880   12.7370   31.7840 C.3   202  HEC202      0.0000
     12  CAA        8.5270   13.2600   31.7250 C.3   202  HEC202      0.0000
     13  CBA        8.6500   13.7010   30.2650 C.3   202  HEC202      0.0000
     14  CGA        9.4830   12.7630   29.4240 C.2   202  HEC202      0.0000
     15  O1A        9.8430   13.1760   28.2730 O.co2 202  HEC202      0.0000
     16  O2A        9.7360   11.6090   29.8610 O.co2 202  HEC202      0.0000
     17  NB         4.2880   16.9650   35.0800 N.2   202  HEC202      0.0000
     18  C1B        3.6200   16.0650   34.2720 C.2   202  HEC202      0.0000
     19  C2B        2.2130   16.1190   34.5710 C.2   202  HEC202      0.0000
     20  C3B        2.0140   17.0450   35.5530 C.2   202  HEC202      0.0000
     21  C4B        3.3280   17.5700   35.8650 C.2   202  HEC202      0.0000
     22  CMB        1.1690   15.2490   33.8270 C.3   202  HEC202      0.0000
     23  CAB        0.7160   17.3480   36.3280 C.3   202  HEC202      0.0000
     24  CBB        0.1520   16.2250   36.9760 C.3   202  HEC202      0.0000
     25  NC         5.9700   18.8770   36.2190 N.ar  202  HEC202      0.0000
     26  C1C        4.8130   19.2440   36.9050 C.ar  202  HEC202      0.0000
     27  C2C        5.0370   20.4470   37.6810 C.ar  202  HEC202      0.0000
     28  C3C        6.3080   20.8290   37.4820 C.ar  202  HEC202      0.0000
     29  C4C        6.8730   19.8970   36.5340 C.ar  202  HEC202      0.0000
     30  CMC        3.9020   21.2090   38.3530 C.3   202  HEC202      0.0000
     31  CAC        6.9940   22.1710   37.8790 C.3   202  HEC202      0.0000
     32  CBC        6.9930   22.4080   39.2810 C.3   202  HEC202      0.0000
     33  ND         8.1920   17.7700   34.8150 N.2   202  HEC202      0.0000
     34  C1D        8.8040   18.9170   35.3070 C.2   202  HEC202      0.0000
     35  C2D       10.2200   18.9020   34.9340 C.2   202  HEC202      0.0000
     36  C3D       10.4460   17.7260   34.3370 C.2   202  HEC202      0.0000
     37  C4D        9.1640   17.0660   34.1930 C.2   202  HEC202      0.0000
     38  CMD       11.1740   20.0540   35.3520 C.3   202  HEC202      0.0000
     39  CAD       11.7730   17.1080   33.8590 C.3   202  HEC202      0.0000
     40  CBD       12.3550   16.2020   34.9720 C.3   202  HEC202      0.0000
     41  CGD       12.6620   17.0400   36.1920 C.2   202  HEC202      0.0000
     42  O1D       12.0630   16.7910   37.2780 O.co2 202  HEC202      0.0000
     43  O2D       13.5230   17.9810   36.0070 O.co2 202  HEC202      0.0000
@<TRIPOS>BOND
     1    15    14   ar
     2    14    16   ar
     3    14    13    1
     4    13    12    1
     5    12     8    1
     6    11     9    1
     7     9     8   ar
     8     9    10   ar
     9     8     7   ar
    10     7     2    2
    11     7     6   ar
    12    10     3    2
    13    10     6   ar
    14     3    18    1
    15     2    37    1
    16     6     1    1
    17    22    19    1
    18    39    36    1
    19    39    40    1
    20    37    36    1
    21    37    33    2
    22    18    19    1
    23    18    17    2
    24    36    35    2
    25    19    20    2
    26    33     1    1
    27    33    34    1
    28    35    34    1
    29    35    38    1
    30    40    41    1
    31     1    17    1
    32     1    25    1
    33    17    21    1
    34    34     5    2
    35    20    21    1
    36    20    23    1
    37    21     4    2
    38    43    41   ar
    39     5    29    1
    40    41    42   ar
    41    25    29   ar
    42    25    26   ar
    43    23    24    1
    44    29    28   ar
    45     4    26    1
    46    26    27   ar
    47    28    27   ar
    48    28    31    1
    49    27    30    1
    50    31    32    1
