@<TRIPOS>MOLECULE
3cp6_RSX_A_1.pdb
 17 18 0 0 0
SMALL
GASTEIGER

@<TRIPOS>ATOM
      1  O1        15.8340   36.9440   -9.0030 O.2   401  RSX401     -0.4597
      2  P1        16.1370   35.9170   -7.9890 P.3   401  RSX401      0.1228
      3  O3        15.1900   35.8790   -6.8190 O.3   401  RSX401     -0.3568
      4  O2        17.5430   36.0460   -7.4740 O.3   401  RSX401     -0.3568
      5  C3        16.0050   34.2890   -8.8160 C.3   401  RSX401      0.0934
      6  P2        17.2710   34.1290  -10.0990 P.3   401  RSX401      0.1228
      7  O5        18.7000   34.1270   -9.5570 O.3   401  RSX401     -0.3568
      8  O4        17.1800   35.2910  -11.0890 O.2   401  RSX401     -0.4597
      9  O6        16.9340   32.9170  -10.9950 O.3   401  RSX401     -0.3568
     10  C4        14.6070   34.1400   -9.4570 C.3   401  RSX401      0.0311
     11  C5        14.1330   32.7340   -9.1490 C.3   401  RSX401      0.0736
     12  C2        16.1080   33.1800   -7.7570 C.3   401  RSX401      0.0151
     13  C1        14.7750   32.4160   -7.8100 C.3   401  RSX401      0.0170
     14  C9        14.9100   30.9090   -7.5250 C.3   401  RSX401      0.0029
     15  C8        15.3380   30.0510   -8.7200 C.3   401  RSX401      0.0189
     16  C7        14.5990   30.3870   -9.9830 C.3   401  RSX401      0.0886
     17  N1        14.5930   31.8280  -10.1920 N.3   401  RSX401     -0.2194
@<TRIPOS>BOND
     1     8     6    2
     2     9     6    1
     3    17    16    1
     4    17    11    1
     5     6     7    1
     6     6     5    1
     7    16    15    1
     8    10    11    1
     9    10     5    1
    10    11    13    1
    11     1     2    2
    12     5     2    1
    13     5    12    1
    14    15    14    1
    15     2     4    1
    16     2     3    1
    17    13    12    1
    18    13    14    1
