@<TRIPOS>MOLECULE
3cp9_C19_A_1.pdb
 30 34 0 0 0
SMALL
GASTEIGER

@<TRIPOS>ATOM
      1  N1        12.3550   27.5790   32.7550 N.2   501  C19501     -0.1673
      2  C2        13.2260   28.5910   33.0590 C.2   501  C19501      0.1143
      3  C3        13.6290   29.5030   32.0330 C.ar  501  C19501      0.0505
      4  C4        13.1290   29.3300   30.6840 C.ar  501  C19501      0.1457
      5  N5        12.2480   28.2840   30.4470 N.2   501  C19501     -0.3352
      6  C6        11.9150   27.4660   31.4700 C.1   501  C19501      0.1864
      7  C8        14.5370   30.5560   32.3280 C.ar  501  C19501      0.0043
      8  C9        14.9360   31.4590   31.2950 C.ar  501  C19501      0.0045
      9  C10       14.4310   31.2940   29.9710 C.ar  501  C19501      0.0028
     10  C11       13.5300   30.2420   29.6740 C.ar  501  C19501      0.0331
     11  N15       11.0730   26.4780   31.1930 N.pl3 501  C19501     -0.0345
     12  C16       15.8810   32.5530   31.6070 C.ar  501  C19501      0.0526
     13  C17       15.3390   33.9320   31.9330 C.ar  501  C19501      0.2641
     14  N18       16.2550   34.9470   32.2460 N.ar  501  C19501     -0.2765
     15  C19       17.7360   34.6680   32.2460 C.ar  501  C19501      0.0823
     16  C20       18.1970   33.4230   31.9420 C.ar  501  C19501      0.0150
     17  C21       17.2500   32.3210   31.6190 C.ar  501  C19501     -0.0158
     18  C22       17.9500   30.9990   31.3580 C.3   501  C19501      0.0312
     19  O26       14.1150   34.1020   31.9160 O.2   501  C19501     -0.2666
     20  C27       15.7960   36.2170   32.5800 C.2   501  C19501      0.0501
     21  C28       16.1750   37.3900   31.8430 C.3   501  C19501      0.0699
     22  C29       15.6850   38.6820   32.2290 C.2   501  C19501     -0.0226
     23  C30       14.8110   38.7730   33.3570 C.2   501  C19501     -0.0075
     24  C31       14.4510   37.6180   34.0630 C.2   501  C19501      0.0729
     25  C32       14.9210   36.3490   33.7090 C.2   501  C19501      0.0318
     26  C36       14.1530   39.9990   33.9670 C.3   501  C19501      0.0426
     27  C37       13.5170   39.3940   35.2440 C.3   501  C19501      0.1294
     28  N38       13.6280   37.9400   35.0730 N.2   501  C19501     -0.2704
     29  C41       13.0660   40.5320   33.0250 C.3   501  C19501      0.0064
     30  C45       15.1780   41.0810   34.3190 C.3   501  C19501      0.0064
@<TRIPOS>BOND
     1    10     9   ar
     2    10     4   ar
     3     9     8   ar
     4     5     4    2
     5     5     6    2
     6     4     3   ar
     7    11     6    1
     8     8    12    1
     9     8     7   ar
    10    18    17    1
    11     6     1    2
    12    12    17   ar
    13    12    13   ar
    14    17    16   ar
    15    21    22    1
    16    21    20    1
    17    19    13    2
    18    13    14   ar
    19    16    15   ar
    20     3     7   ar
    21     3     2    2
    22    22    23    2
    23    14    15   ar
    24    14    20    1
    25    20    25    2
    26     1     2    1
    27    29    26    1
    28    23    26    1
    29    23    24    1
    30    25    24    1
    31    26    30    1
    32    26    27    1
    33    24    28    2
    34    28    27    1
