@<TRIPOS>MOLECULE
3cpa_TYR_A_1.pdb
 13 13 0 0 0
SMALL
GASTEIGER

@<TRIPOS>ATOM
      1  N         -3.0210   29.9990   -8.0170 N.3   502  TYR502     -0.1205
      2  CA        -2.1330   29.7290   -9.1530 C.3   502  TYR502      0.1986
      3  C         -0.7550   30.0020   -8.5410 C.2   502  TYR502      0.3822
      4  O          0.0840   29.0950   -8.4270 O.co2 502  TYR502     -0.2440
      5  CB        -2.5360   30.6380  -10.3310 C.3   502  TYR502      0.0569
      6  CG        -2.0160   30.1310  -11.6820 C.ar  502  TYR502     -0.0200
      7  CD1       -0.7120   30.4940  -12.0600 C.ar  502  TYR502     -0.0009
      8  CD2       -2.8120   29.4120  -12.5380 C.ar  502  TYR502     -0.0009
      9  CE1       -0.2120   30.0280  -13.3450 C.ar  502  TYR502      0.0417
     10  CE2       -2.3330   28.9520  -13.8000 C.ar  502  TYR502      0.0417
     11  CZ        -1.0330   29.3270  -14.1610 C.ar  502  TYR502      0.1957
     12  OH        -0.5700   28.9060  -15.3880 O.3   502  TYR502     -0.2866
     13  OXT       -0.5410   31.2470   -8.1570 O.co2 502  TYR502     -0.2440
@<TRIPOS>BOND
     1    12    11    1
     2    11    10   ar
     3    11     9   ar
     4    10     8   ar
     5     9     7   ar
     6     8     6   ar
     7     7     6   ar
     8     6     5    1
     9     5     2    1
    10     2     3    1
    11     2     1    1
    12     3     4   ar
    13     3    13   ar
