@<TRIPOS>MOLECULE
3cpb_C92_A_1.pdb
 27 29 0 0 0
SMALL
GASTEIGER

@<TRIPOS>ATOM
      1  C23       15.3430   41.1850   33.3450 C.3     1  C921        0.0001
      2  C24       14.1250   41.7170   34.0900 C.3     1  C921        0.0000
      3  C25       13.4890   40.4450   34.6370 C.3     1  C921        0.0000
      4  C26       13.5520   39.5050   33.4370 C.3     1  C921        0.0001
      5  C12       14.8210   39.9180   32.6670 C.3     1  C921        0.0018
      6  C13       15.8800   38.8240   32.7780 C.3     1  C921        0.0234
      7  C11       16.2110   38.3040   31.3820 C.3     1  C921        0.1155
      8  N10       16.7000   36.9160   31.4470 N.am    1  C921       -0.2017
      9  C8        15.8810   35.8790   31.6190 C.2     1  C921        0.2648
     10  O9        14.6640   35.9970   31.7310 O.2     1  C921       -0.2684
     11  C4        16.5210   34.4790   31.6580 C.ar    1  C921        0.0552
     12  C3        15.7170   33.3890   31.3290 C.ar    1  C921        0.0088
     13  C5        17.8580   34.2630   31.9990 C.ar    1  C921        0.0042
     14  C6        18.3700   32.9630   32.0060 C.ar    1  C921       -0.0040
     15  C7        17.5560   31.8750   31.6800 C.ar    1  C921       -0.0174
     16  C14       18.1530   30.4630   31.7000 C.3     1  C921        0.0312
     17  C2        16.2160   32.0940   31.3490 C.ar    1  C921        0.0516
     18  C1        15.2590   30.9740   30.9490 C.2     1  C921        0.2687
     19  O15       14.9920   30.8290   29.7590 O.2     1  C921       -0.2680
     20  N16       14.7630   30.2180   31.9330 N.am    1  C921       -0.1739
     21  C17       13.9060   29.2000   31.7200 C.ar    1  C921        0.0929
     22  C22       13.4990   28.8210   30.4370 C.ar    1  C921        0.0212
     23  C21       12.6090   27.7660   30.2850 C.ar    1  C921        0.0390
     24  C20       12.1450   27.1090   31.4220 C.ar    1  C921        0.1698
     25  N27       11.2970   26.0930   31.2940 N.pl3   1  C921       -0.1072
     26  N19       12.5470   27.4910   32.6470 N.ar    1  C921       -0.2245
     27  C18       13.3940   28.4980   32.8140 C.ar    1  C921        0.1169
@<TRIPOS>BOND
     1    19    18    2
     2    23    22   ar
     3    23    24   ar
     4    22    21   ar
     5    18    17    1
     6    18    20   am
     7    25    24    1
     8    12    17   ar
     9    12    11   ar
    10    17    15   ar
    11     7     8    1
    12     7     6    1
    13    24    26   ar
    14     8     9   am
    15     9    11    1
    16     9    10    2
    17    11    13   ar
    18    15    16    1
    19    15    14   ar
    20    21    20    1
    21    21    27   ar
    22    13    14   ar
    23    26    27   ar
    24     5     6    1
    25     5     1    1
    26     5     4    1
    27     1     2    1
    28     4     3    1
    29     2     3    1
