@<TRIPOS>MOLECULE
3cpc_C52_A_1.pdb
 29 32 0 0 0
SMALL
GASTEIGER

@<TRIPOS>ATOM
      1  C8        14.3860   30.6050   32.3980 C.ar    1  C521        0.0043
      2  C3        13.4710   29.5970   32.0970 C.ar    1  C521        0.0505
      3  C4        13.1090   28.6440   33.0490 C.2     1  C521        0.1143
      4  N2        12.2350   27.6940   32.7370 N.2     1  C521       -0.1673
      5  C1        11.6840   27.6400   31.5090 C.1     1  C521        0.1864
      6  N3        10.8050   26.6800   31.2330 N.pl3   1  C521       -0.0345
      7  N1        12.0060   28.5490   30.5640 N.2     1  C521       -0.3352
      8  C2        12.8940   29.5300   30.8300 C.ar    1  C521        0.1457
      9  C5        13.2340   30.4780   29.8620 C.ar    1  C521        0.0331
     10  C6        14.1550   31.4860   30.1630 C.ar    1  C521        0.0028
     11  C7        14.7370   31.5550   31.4340 C.ar    1  C521        0.0045
     12  C9        15.6750   32.5600   31.7250 C.ar    1  C521        0.0526
     13  C10       15.2750   33.9020   31.8270 C.ar    1  C521        0.2644
     14  O1        14.0920   34.2010   31.6720 O.2     1  C521       -0.2666
     15  C13       17.0390   32.2370   31.9030 C.ar    1  C521       -0.0158
     16  C14       17.5620   30.7990   31.8040 C.3     1  C521        0.0312
     17  C12       17.9800   33.2280   32.1820 C.ar    1  C521        0.0150
     18  C11       17.5860   34.5580   32.2920 C.ar    1  C521        0.0826
     19  N4        16.2320   34.9150   32.1100 N.ar    1  C521       -0.2732
     20  C15       15.8620   36.2750   32.2320 C.ar    1  C521        0.0668
     21  C16       14.8410   36.6400   33.1110 C.ar    1  C521        0.0215
     22  C20       16.5240   37.2660   31.4990 C.ar    1  C521        0.0176
     23  C19       16.1600   38.6090   31.6330 C.ar    1  C521        0.0014
     24  C18       15.1310   38.9610   32.5100 C.ar    1  C521        0.0039
     25  C17       14.4720   37.9760   33.2530 C.ar    1  C521        0.0729
     26  C21       13.3300   38.3640   34.2010 C.3     1  C521        0.4186
     27  F2        13.7330   39.2520   35.0970 F       1  C521       -0.1659
     28  F3        12.3810   38.8860   33.4320 F       1  C521       -0.1659
     29  F1        12.8450   37.3140   34.8670 F       1  C521       -0.1659
@<TRIPOS>BOND
     1     9    10   ar
     2     9     8   ar
     3    10    11   ar
     4     7     8    2
     5     7     5    2
     6     8     2   ar
     7     6     5    1
     8    11    12    1
     9    11     1   ar
    10    22    23   ar
    11    22    20   ar
    12     5     4    2
    13    23    24   ar
    14    14    13    2
    15    12    13   ar
    16    12    15   ar
    17    16    15    1
    18    13    19   ar
    19    15    17   ar
    20     2     1   ar
    21     2     3    2
    22    19    20    1
    23    19    18   ar
    24    17    18   ar
    25    20    21   ar
    26    24    25   ar
    27     4     3    1
    28    21    25   ar
    29    25    26    1
    30    28    26    1
    31    26    29    1
    32    26    27    1
