@<TRIPOS>MOLECULE
3cph_GDP_A_1.pdb
 28 30 0 0 0
SMALL
GASTEIGER

@<TRIPOS>ATOM
      1  PB        55.8240   19.1500    8.2690 P.3   302  GDP302      0.5373
      2  O1B       55.2450   19.7770    9.5060 O.3   302  GDP302     -0.1143
      3  O2B       56.8460   18.0810    8.6000 O.3   302  GDP302     -0.1143
      4  O3B       54.6370   18.5920    7.5160 O.2   302  GDP302     -0.2221
      5  O3A       56.5280   20.3460    7.4560 O.3   302  GDP302     -0.2261
      6  PA        58.0270   20.2280    6.8870 P.3   302  GDP302      0.2231
      7  O1A       59.0590   20.2730    7.9890 O.3   302  GDP302     -0.4370
      8  O2A       58.1490   18.9400    6.1000 O.2   302  GDP302     -0.5169
      9  O5'       58.1970   21.5370    5.9560 O.3   302  GDP302     -0.3111
     10  C5'       57.0570   22.2240    5.4150 C.3   302  GDP302      0.1813
     11  C4'       57.4010   23.3570    4.4340 C.3   302  GDP302      0.1799
     12  O4'       57.4280   24.6300    5.1040 O.3   302  GDP302     -0.3326
     13  C3'       58.7550   23.1940    3.7620 C.3   302  GDP302      0.2158
     14  O3'       58.6830   23.6310    2.4100 O.3   302  GDP302     -0.2175
     15  C2'       59.6710   24.0950    4.5470 C.3   302  GDP302      0.2310
     16  O2'       60.7310   24.6230    3.7450 O.3   302  GDP302     -0.2158
     17  C1'       58.7450   25.1800    5.0800 C.3   302  GDP302      0.2293
     18  N9        59.1590   25.5750    6.4380 N.pl3 302  GDP302     -0.2354
     19  C8        59.3490   24.7780    7.5050 C.3   302  GDP302      0.2246
     20  N7        59.7410   25.5010    8.5910 N.2   302  GDP302     -0.2322
     21  C5        59.8070   26.7850    8.2150 C.2   302  GDP302      0.2182
     22  C6        60.1520   28.0800    8.8490 C.1   302  GDP302      0.2372
     23  O6        60.4900   28.1950   10.0490 O.2   302  GDP302     -0.2069
     24  N1        60.0810   29.1610    8.0720 N.2   302  GDP302     -0.2485
     25  C2        59.7180   29.1150    6.7680 C.1   302  GDP302      0.2531
     26  N2        59.6680   30.2670    6.0500 N.pl3 302  GDP302     -0.0226
     27  N3        59.3930   27.9660    6.1300 N.2   302  GDP302     -0.3074
     28  C4        59.4240   26.8080    6.7930 C.2   302  GDP302      0.2300
@<TRIPOS>BOND
     1    14    13    1
     2    16    15    1
     3    13    11    1
     4    13    15    1
     5    11    12    1
     6    11    10    1
     7    15    17    1
     8    17    12    1
     9    17    18    1
    10    10     9    1
    11     9     6    1
    12    26    25    1
    13     8     6    2
    14    27    25    2
    15    27    28    2
    16    18    28    1
    17    18    19    1
    18    25    24    2
    19    28    21    1
    20     6     5    1
    21     6     7    1
    22     5     1    1
    23    19    20    1
    24     4     1    2
    25    24    22    2
    26    21    20    2
    27    21    22    1
    28     1     3    1
    29     1     2    1
    30    22    23    2
