@<TRIPOS>MOLECULE
3cpj_GDP_B_1.pdb
 28 30 0 0 0
SMALL
GASTEIGER

@<TRIPOS>ATOM
      1  PB       -17.8080   39.4730   17.1230 P.3   1207  GDP1207     0.5373
      2  O1B      -16.4780   40.0850   16.7450 O.3   1207  GDP1207    -0.1143
      3  O2B      -18.2270   38.5030   16.0320 O.2   1207  GDP1207    -0.2221
      4  O3B      -17.6570   38.7640   18.4510 O.3   1207  GDP1207    -0.1143
      5  O3A      -18.9250   40.6380   17.2650 O.3   1207  GDP1207    -0.2261
      6  PA       -19.0210   41.6630   18.5090 P.3   1207  GDP1207     0.2231
      7  O1A      -20.0610   41.1990   19.5010 O.3   1207  GDP1207    -0.4370
      8  O2A      -17.6860   41.8550   19.1910 O.2   1207  GDP1207    -0.5169
      9  O5'      -19.5190   43.0260   17.8100 O.3   1207  GDP1207    -0.3111
     10  C5'      -18.6600   44.1550   17.6290 C.3   1207  GDP1207     0.1813
     11  C4'      -19.4860   45.4390   17.5500 C.3   1207  GDP1207     0.1799
     12  O4'      -20.6670   45.2320   16.7610 O.3   1207  GDP1207    -0.3326
     13  C3'      -19.9320   45.9020   18.9330 C.3   1207  GDP1207     0.2158
     14  O3'      -19.5450   47.2650   19.1500 O.3   1207  GDP1207    -0.2175
     15  C2'      -21.4430   45.7560   18.9300 C.3   1207  GDP1207     0.2310
     16  O2'      -22.1020   46.8340   19.6110 O.3   1207  GDP1207    -0.2158
     17  C1'      -21.8170   45.7210   17.4550 C.3   1207  GDP1207     0.2293
     18  N9       -23.0060   44.8530   17.2520 N.pl3 1207  GDP1207    -0.2354
     19  C8       -23.0650   43.5210   17.4480 C.3   1207  GDP1207     0.2246
     20  N7       -24.3050   43.0400   17.1780 N.2   1207  GDP1207    -0.2322
     21  C5       -25.0730   44.0790   16.8010 C.2   1207  GDP1207     0.2182
     22  C6       -26.4870   44.2730   16.3750 C.1   1207  GDP1207     0.2372
     23  O6       -27.2860   43.3120   16.3020 O.2   1207  GDP1207    -0.2069
     24  N1       -26.8810   45.5180   16.0610 N.2   1207  GDP1207    -0.2485
     25  C2       -26.0490   46.5840   16.1240 C.1   1207  GDP1207     0.2531
     26  N2       -26.5370   47.8070   15.7920 N.pl3 1207  GDP1207    -0.0226
     27  N3       -24.7420   46.4790   16.5070 N.2   1207  GDP1207    -0.3074
     28  C4       -24.2100   45.2760   16.8510 C.2   1207  GDP1207     0.2300
@<TRIPOS>BOND
     1    26    25    1
     2     3     1    2
     3    24    25    2
     4    24    22    2
     5    25    27    2
     6    23    22    2
     7    22    21    1
     8    27    28    2
     9     2     1    1
    10    12    17    1
    11    12    11    1
    12    21    28    1
    13    21    20    2
    14    28    18    1
    15     1     5    1
    16     1     4    1
    17    20    19    1
    18    18    19    1
    19    18    17    1
    20     5     6    1
    21    17    15    1
    22    11    10    1
    23    11    13    1
    24    10     9    1
    25     9     6    1
    26     6     8    2
    27     6     7    1
    28    15    13    1
    29    15    16    1
    30    13    14    1
