@<TRIPOS>MOLECULE
3cpp_HEM_A_1.pdb
 43 50 0 0 0
SMALL
GASTEIGER

@<TRIPOS>ATOM
      1 FE         48.2650   46.4350    9.0990 Fe    417  HEM417      0.0000
      2  CHA       45.1760   45.0690    8.6880 C.2   417  HEM417      0.0000
      3  CHB       49.5880   43.2800    9.4020 C.2   417  HEM417      0.0000
      4  CHC       51.4040   47.7720    9.1750 C.2   417  HEM417      0.0000
      5  CHD       46.9170   49.5630    9.2030 C.2   417  HEM417      0.0000
      6  NA        47.5180   44.5520    9.0570 N.2   417  HEM417      0.0000
      7  C1A       46.1850   44.1700    8.8750 C.2   417  HEM417      0.0000
      8  C2A       46.0930   42.7210    8.9700 C.2   417  HEM417      0.0000
      9  C3A       47.3060   42.2280    9.1690 C.2   417  HEM417      0.0000
     10  C4A       48.2120   43.3700    9.3100 C.2   417  HEM417      0.0000
     11  CMA       47.7240   40.7620    9.4170 C.3   417  HEM417      0.0000
     12  CAA       44.7800   41.9080    8.7860 C.3   417  HEM417      0.0000
     13  CBA       44.2150   41.3210   10.0880 C.3   417  HEM417      0.0000
     14  CGA       42.9410   40.5290    9.8950 C.2   417  HEM417      0.0000
     15  O1A       42.7080   40.0810    8.7340 O.co2 417  HEM417      0.0000
     16  O2A       42.5020   40.1450   11.0610 O.co2 417  HEM417      0.0000
     17  NB        50.1130   45.6880    9.2450 N.ar  417  HEM417      0.0000
     18  C1B       50.4620   44.3470    9.3410 C.ar  417  HEM417      0.0000
     19  C2B       51.9100   44.2410    9.3370 C.ar  417  HEM417      0.0000
     20  C3B       52.4080   45.4650    9.2620 C.ar  417  HEM417      0.0000
     21  C4B       51.3000   46.3950    9.1550 C.ar  417  HEM417      0.0000
     22  CMB       52.6370   42.8970    9.5580 C.3   417  HEM417      0.0000
     23  CAB       53.8880   45.9710    9.2890 C.2   417  HEM417      0.0000
     24  CBB       54.9380   45.2190    9.1640 C.2   417  HEM417      0.0000
     25  NC        49.0280   48.3300    9.0920 N.2   417  HEM417      0.0000
     26  C1C       50.3420   48.6520    9.3130 C.2   417  HEM417      0.0000
     27  C2C       50.4610   50.0840    9.4970 C.2   417  HEM417      0.0000
     28  C3C       49.2110   50.5700    9.5630 C.2   417  HEM417      0.0000
     29  C4C       48.3010   49.4540    9.3840 C.2   417  HEM417      0.0000
     30  CMC       51.7630   50.8560    9.7120 C.3   417  HEM417      0.0000
     31  CAC       48.7280   52.0210    9.7960 C.2   417  HEM417      0.0000
     32  CBC       49.2700   52.9790    9.0060 C.2   417  HEM417      0.0000
     33  ND        46.4240   47.1880    8.9410 N.ar  417  HEM417      0.0000
     34  C1D       46.0490   48.5060    9.0520 C.ar  417  HEM417      0.0000
     35  C2D       44.6050   48.6040    8.9090 C.ar  417  HEM417      0.0000
     36  C3D       44.1320   47.3760    8.7320 C.ar  417  HEM417      0.0000
     37  C4D       45.2530   46.4430    8.7930 C.ar  417  HEM417      0.0000
     38  CMD       43.8530   49.9550    8.8810 C.3   417  HEM417      0.0000
     39  CAD       42.6660   46.8990    8.6210 C.3   417  HEM417      0.0000
     40  CBD       42.1190   46.7050    7.1900 C.3   417  HEM417      0.0000
     41  CGD       40.6730   46.1540    7.2040 C.2   417  HEM417      0.0000
     42  O1D       40.1590   46.2150    6.0860 O.co2 417  HEM417      0.0000
     43  O2D       40.2690   45.5580    8.2470 O.co2 417  HEM417      0.0000
@<TRIPOS>BOND
     1    42    41   ar
     2    40    41    1
     3    40    39    1
     4    41    43   ar
     5    39    36    1
     6     2    37    2
     7     2     7    1
     8    36    37   ar
     9    36    35   ar
    10    15    14   ar
    11    12     8    1
    12    12    13    1
    13    37    33   ar
    14     7     8    1
    15     7     6    2
    16    38    35    1
    17    35    34   ar
    18    33    34   ar
    19    33     1    1
    20     8     9    2
    21    32    31    2
    22    34     5    2
    23     6     1    1
    24     6    10    1
    25    25     1    1
    26    25    26    1
    27    25    29    2
    28     1    17    1
    29    21     4    1
    30    21    17   ar
    31    21    20   ar
    32    24    23    2
    33     9    10    1
    34     9    11    1
    35     4    26    2
    36     5    29    1
    37    17    18   ar
    38    20    23    1
    39    20    19   ar
    40    10     3    2
    41    26    27    1
    42    19    18   ar
    43    19    22    1
    44    18     3    1
    45    29    28    1
    46    27    28    2
    47    27    30    1
    48    28    31    1
    49    14    13    1
    50    14    16   ar
