@<TRIPOS>MOLECULE
3cpp_CAM_A_1.pdb
 11 12 0 0 0
SMALL
GASTEIGER

@<TRIPOS>ATOM
      1  C1        46.2580   44.1700   14.8390 C.3   422  CAM422      0.0515
      2  C2        44.7050   43.9420   15.0180 C.2   422  CAM422      0.1498
      3  O         44.0780   44.1210   16.0370 O.2   422  CAM422     -0.2961
      4  C3        44.1280   43.8420   13.5650 C.3   422  CAM422      0.0645
      5  C4        45.4200   44.0350   12.7130 C.3   422  CAM422      0.0077
      6  C5        45.8390   45.5160   12.8280 C.3   422  CAM422      0.0009
      7  C6        46.4420   45.6280   14.2720 C.3   422  CAM422      0.0069
      8  C7        46.5290   43.2590   13.5510 C.3   422  CAM422      0.0066
      9  C8        46.3240   41.7460   13.6440 C.3   422  CAM422      0.0004
     10  C9        47.9730   43.3050   12.9560 C.3   422  CAM422      0.0004
     11  C10       47.0750   43.8920   16.1010 C.3   422  CAM422      0.0073
@<TRIPOS>BOND
     1     5     6    1
     2     5     8    1
     3     5     4    1
     4     6     7    1
     5    10     8    1
     6     8     9    1
     7     8     1    1
     8     4     2    1
     9     7     1    1
    10     1     2    1
    11     1    11    1
    12     2     3    2
