@<TRIPOS>MOLECULE
3cps_NAD_A_1.pdb
 44 48 0 0 0
SMALL
GASTEIGER

@<TRIPOS>ATOM
      1  PA        22.6870   93.3070    9.0320 P.3   401  NAD401      0.2189
      2  O1A       22.0830   92.9530    7.6890 O.2   401  NAD401     -0.5170
      3  O2A       23.8030   92.5010    9.5620 O.3   401  NAD401     -0.4371
      4  O5B       21.5670   93.2680   10.1670 O.3   401  NAD401     -0.3112
      5  C5B       20.1970   93.5550    9.9070 C.3   401  NAD401      0.1813
      6  C4B       19.3320   92.5930   10.7230 C.3   401  NAD401      0.1821
      7  O4B       17.9390   93.0220   10.7710 O.3   401  NAD401     -0.3135
      8  C3B       19.3670   91.2230   10.0460 C.3   401  NAD401      0.2184
      9  O3B       19.6720   90.2740   11.0580 O.3   401  NAD401     -0.2174
     10  C2B       17.9370   91.0160    9.5360 C.3   401  NAD401      0.2570
     11  O2B       17.5840   89.6140    9.6030 O.3   401  NAD401     -0.2130
     12  C1B       17.1130   91.8460   10.5300 C.3   401  NAD401      0.3186
     13  N9A       15.7380   92.2570   10.0690 N.pl3 401  NAD401     -0.1439
     14  C8A       15.3470   92.4910    8.8130 C.3   401  NAD401      0.3377
     15  N7A       14.0520   92.8350    8.7810 N.2   401  NAD401     -0.2095
     16  C5A       13.6060   92.8100   10.0310 C.2   401  NAD401      0.2526
     17  C6A       12.3660   93.0780   10.6110 C.2   401  NAD401      0.4393
     18  N6A       11.3140   93.4250    9.8530 N.pl3 401  NAD401      0.2180
     19  N1A       12.2420   92.9610   11.9450 N.2   401  NAD401      0.0021
     20  C2A       13.2820   92.6160   12.7070 C.3   401  NAD401      0.5254
     21  N3A       14.4770   92.3500   12.1840 N.2   401  NAD401     -0.0055
     22  C4A       14.6750   92.4400   10.8490 C.2   401  NAD401      0.3518
     23  O3        23.0190   94.9190    9.0110 O.3   401  NAD401     -0.2703
     24  PN        23.9850   95.6520   10.0550 P.3   401  NAD401      0.2189
     25  O1N       25.3270   95.8500    9.4660 O.2   401  NAD401     -0.5170
     26  O2N       23.8280   95.0050   11.3810 O.3   401  NAD401     -0.4371
     27  O5D       23.3050   97.1270   10.1130 O.3   401  NAD401     -0.3112
     28  C5D       21.9900   97.3570   10.6590 C.3   401  NAD401      0.1813
     29  C4D       21.7270   98.8590   10.7960 C.3   401  NAD401      0.1799
     30  O4D       22.8770   99.5360   11.4300 O.3   401  NAD401     -0.3327
     31  C3D       21.5780   99.5160    9.4240 C.3   401  NAD401      0.2158
     32  O3D       20.7780  100.6860    9.6090 O.3   401  NAD401     -0.2175
     33  C2D       23.0190   99.8890    9.0920 C.3   401  NAD401      0.2309
     34  O2D       23.0640  100.9500    8.1490 O.3   401  NAD401     -0.2158
     35  C1D       23.4730  100.4070   10.4600 C.3   401  NAD401      0.2263
     36  N1N       24.9240  100.4080   10.7340 N.pl3 401  NAD401     -0.2787
     37  C2N       25.7700   99.3700   10.3000 C.3   401  NAD401      0.1244
     38  C3N       27.1330   99.4590   10.6020 C.2   401  NAD401      0.0544
     39  C7N       28.1200   98.3830   10.1670 C.2   401  NAD401      0.2818
     40  O7N       29.3890   98.7240    9.7970 O.2   401  NAD401     -0.2670
     41  N7N       27.6900   97.1180   10.1580 N.am  401  NAD401     -0.0839
     42  C4N       27.6260  100.5610   11.3020 C.2   401  NAD401      0.0033
     43  C5N       26.7850  101.5850   11.7210 C.2   401  NAD401      0.0157
     44  C6N       25.4330  101.5100   11.4390 C.2   401  NAD401      0.0633
@<TRIPOS>BOND
     1     2     1    2
     2    34    33    1
     3    15    14    1
     4    15    16    2
     5    14    13    1
     6    23     1    1
     7    23    24    1
     8     1     3    1
     9     1     4    1
    10    33    31    1
    11    33    35    1
    12    31    32    1
    13    31    29    1
    14    25    24    2
    15    10    11    1
    16    10     8    1
    17    10    12    1
    18    40    39    2
    19    18    17    1
    20     5     4    1
    21     5     6    1
    22    16    17    1
    23    16    22    1
    24     8     6    1
    25     8     9    1
    26    24    27    1
    27    24    26    1
    28    13    12    1
    29    13    22    1
    30    27    28    1
    31    41    39   am
    32    39    38    1
    33    37    38    1
    34    37    36    1
    35    35    36    1
    36    35    30    1
    37    12     7    1
    38    38    42    2
    39    17    19    2
    40    28    29    1
    41     6     7    1
    42    36    44    1
    43    29    30    1
    44    22    21    2
    45    42    43    1
    46    44    43    2
    47    19    20    1
    48    21    20    1
