@<TRIPOS>MOLECULE
3cpu_GLC_A_1.pdb
 12 12 0 0 0
SMALL
GASTEIGER

@<TRIPOS>ATOM
      1  C1        24.5150   34.4440   24.0150 C.3   499  GLC499      0.3024
      2  C2        24.2290   35.1760   25.3940 C.3   499  GLC499      0.2434
      3  C3        23.3960   36.4450   25.1750 C.3   499  GLC499      0.2199
      4  C4        24.1230   37.4190   24.2510 C.3   499  GLC499      0.2144
      5  C5        24.3780   36.5940   22.8590 C.3   499  GLC499      0.1836
      6  C6        25.3190   37.3220   21.8910 C.3   499  GLC499      0.2142
      7  O1        23.2960   34.0570   23.4130 O.3   499  GLC499     -0.1869
      8  O2        23.6030   34.2510   26.2230 O.3   499  GLC499     -0.2148
      9  O3        23.1400   37.0760   26.3980 O.3   499  GLC499     -0.2174
     10  O4        23.3750   38.5900   24.0540 O.3   499  GLC499     -0.2176
     11  O5        25.1240   35.3690   23.1390 O.3   499  GLC499     -0.3236
     12  O6        24.6470   38.5120   21.5640 O.3   499  GLC499     -0.2176
@<TRIPOS>BOND
     1    12     6    1
     2     6     5    1
     3     5    11    1
     4     5     4    1
     5    11     1    1
     6     7     1    1
     7     1     2    1
     8    10     4    1
     9     4     3    1
    10     3     2    1
    11     3     9    1
    12     2     8    1
