@<TRIPOS>MOLECULE
3cq5_PMP_A_1.pdb
 16 16 0 0 0
SMALL
GASTEIGER

@<TRIPOS>ATOM
      1  N1        30.2280    0.0640    4.3300 N.ar  401  PMP401     -0.2452
      2  C2        29.4070   -0.9840    4.1710 C.ar  401  PMP401      0.0981
      3  C2A       28.3800   -0.9320    3.0640 C.3   401  PMP401      0.0555
      4  C3        29.5130   -2.0930    4.9950 C.ar  401  PMP401      0.2104
      5  O3        28.7130   -3.1790    4.8720 O.3   401  PMP401     -0.2853
      6  C4        30.4730   -2.0990    6.0010 C.ar  401  PMP401      0.0610
      7  C4A       30.5510   -3.3260    6.9260 C.2   401  PMP401      0.1251
      8  N4A       31.3790   -3.4200    7.8320 N.2   401  PMP401     -0.1463
      9  C5        31.3130   -0.9920    6.1470 C.ar  401  PMP401      0.0317
     10  C6        31.1480    0.0910    5.2860 C.ar  401  PMP401      0.0968
     11  C5A       32.3500   -0.8610    7.2600 C.3   401  PMP401      0.1819
     12  O4P       33.5520   -1.3490    6.9530 O.3   401  PMP401     -0.2653
     13  P         34.8190   -1.0040    7.8850 P.3   401  PMP401      0.5329
     14  O1P       35.3150   -2.3040    8.4340 O.3   401  PMP401     -0.1145
     15  O2P       35.8240   -0.4310    6.8130 O.2   401  PMP401     -0.2224
     16  O3P       34.5440    0.1180    9.0330 O.3   401  PMP401     -0.1145
@<TRIPOS>BOND
     1     3     2    1
     2     2     1   ar
     3     2     4   ar
     4     1    10   ar
     5     5     4    1
     6     4     6   ar
     7    10     9   ar
     8     6     9   ar
     9     6     7    1
    10     9    11    1
    11    15    13    2
    12     7     8    2
    13    12    11    1
    14    12    13    1
    15    13    14    1
    16    13    16    1
