@<TRIPOS>MOLECULE
3cq8_TTP_A_1.pdb
 29 30 0 0 0
SMALL
GASTEIGER

@<TRIPOS>ATOM
      1  PA         0.2410   46.0510   15.8120 P.3   1010  TTP1010     0.2189
      2  O1A       -0.3090   45.4510   17.0500 O.3   1010  TTP1010    -0.4371
      3  O2A       -0.2030   45.6130   14.5330 O.2   1010  TTP1010    -0.5170
      4  O3A        1.7640   45.9090   15.8650 O.3   1010  TTP1010    -0.2700
      5  PB         3.0010   46.2960   14.9290 P.3   1010  TTP1010     0.2277
      6  O1B        3.8350   47.1800   15.6530 O.3   1010  TTP1010    -0.4368
      7  O2B        2.5650   46.8950   13.6960 O.2   1010  TTP1010    -0.5168
      8  O3B        3.7980   44.9500   14.6900 O.3   1010  TTP1010    -0.2258
      9  PG         3.4770   43.5610   14.0040 P.3   1010  TTP1010     0.5373
     10  O1G        2.1890   43.5440   13.4870 O.3   1010  TTP1010    -0.1143
     11  O2G        4.6120   43.3670   13.0670 O.2   1010  TTP1010    -0.2221
     12  O3G        3.4970   42.5440   15.1090 O.3   1010  TTP1010    -0.1143
     13  O5'        0.0000   47.5520   15.8760 O.3   1010  TTP1010    -0.3112
     14  C5'        0.1190   48.5970   14.8420 C.3   1010  TTP1010     0.1812
     15  C4'        0.5940   49.8800   15.4200 C.3   1010  TTP1010     0.1773
     16  O4'       -0.2300   50.1960   16.5820 O.3   1010  TTP1010    -0.3339
     17  C3'        1.9850   49.8480   15.9860 C.3   1010  TTP1010     0.1857
     18  O3'        3.0250   49.8260   15.0680 O.3   1010  TTP1010    -0.2203
     19  C2'        1.9740   51.0370   16.9090 C.3   1010  TTP1010     0.0874
     20  C1'        0.5770   50.9070   17.5340 C.3   1010  TTP1010     0.2090
     21  N1         0.6940   50.1780   18.8950 N.am  1010  TTP1010    -0.1794
     22  C2         1.1690   50.9460   19.9780 C.1   1010  TTP1010     0.2844
     23  O2         1.4840   52.1230   19.9240 O.2   1010  TTP1010    -0.1918
     24  N3         1.2570   50.2590   21.1330 N.2   1010  TTP1010    -0.2455
     25  C4         0.9440   48.9160   21.3710 C.1   1010  TTP1010     0.2134
     26  O4         1.0970   48.4990   22.4790 O.2   1010  TTP1010    -0.2088
     27  C5         0.4480   48.1320   20.2310 C.2   1010  TTP1010     0.0891
     28  C5M        0.0830   46.6880   20.3800 C.3   1010  TTP1010     0.0462
     29  C6         0.3520   48.7980   19.0700 C.2   1010  TTP1010     0.0877
@<TRIPOS>BOND
     1    11     9    2
     2    10     9    1
     3     7     5    2
     4     9     8    1
     5     9    12    1
     6     3     1    2
     7     8     5    1
     8    14    15    1
     9    14    13    1
    10     5     6    1
    11     5     4    1
    12    18    17    1
    13    15    17    1
    14    15    16    1
    15     1     4    1
    16     1    13    1
    17     1     2    1
    18    17    19    1
    19    16    20    1
    20    19    20    1
    21    20    21    1
    22    21    29    1
    23    21    22   am
    24    29    27    2
    25    23    22    2
    26    22    24    2
    27    27    28    1
    28    27    25    1
    29    24    25    2
    30    25    26    2
