@<TRIPOS>MOLECULE
3cqd_ATP_A_1.pdb
 31 33 0 0 0
SMALL
GASTEIGER

@<TRIPOS>ATOM
      1  PG        13.7650   58.8880   15.9110 P.3   313  ATP313      0.5373
      2  O1G       12.7390   58.7450   16.9960 O.3   313  ATP313     -0.1143
      3  O2G       15.1600   58.7320   16.4600 O.3   313  ATP313     -0.1143
      4  O3G       13.3990   58.1220   14.6770 O.2   313  ATP313     -0.2221
      5  PB        12.4130   61.3060   15.0740 P.3   313  ATP313      0.2277
      6  O1B       11.7350   60.6950   13.8740 O.2   313  ATP313     -0.5168
      7  O2B       11.5950   61.4360   16.3340 O.3   313  ATP313     -0.4368
      8  O3B       13.7270   60.4450   15.4550 O.3   313  ATP313     -0.2258
      9  PA        13.7970   63.2600   13.4010 P.3   313  ATP313      0.2189
     10  O1A       13.9930   62.1570   12.4080 O.2   313  ATP313     -0.5170
     11  O2A       13.0660   64.5200   13.0260 O.3   313  ATP313     -0.4371
     12  O3A       13.0040   62.7570   14.7260 O.3   313  ATP313     -0.2700
     13  O5'       15.1900   63.5540   14.1210 O.3   313  ATP313     -0.3112
     14  C5'       15.3380   64.5560   15.1360 C.3   313  ATP313      0.1813
     15  C4'       16.3880   65.5460   14.6980 C.3   313  ATP313      0.1821
     16  O4'       17.5200   64.7940   14.2830 O.3   313  ATP313     -0.3135
     17  C3'       16.0600   66.3830   13.4620 C.3   313  ATP313      0.2184
     18  O3'       15.2230   67.5070   13.7300 O.3   313  ATP313     -0.2174
     19  C2'       17.4450   66.7380   12.9410 C.3   313  ATP313      0.2570
     20  O2'       18.0890   67.7650   13.7100 O.3   313  ATP313     -0.2130
     21  C1'       18.2050   65.4590   13.2250 C.3   313  ATP313      0.3186
     22  N9        18.1430   64.5830   12.0380 N.pl3 313  ATP313     -0.1439
     23  C8        17.3190   63.5470   11.8680 C.3   313  ATP313      0.3377
     24  N7        17.5010   62.9570   10.6670 N.2   313  ATP313     -0.2095
     25  C5        18.4630   63.6460   10.0460 C.2   313  ATP313      0.2526
     26  C6        19.1540   63.5370    8.7500 C.2   313  ATP313      0.4393
     27  N6        18.7960   62.5520    7.9070 N.pl3 313  ATP313      0.2180
     28  N1        20.1210   64.4490    8.4720 N.2   313  ATP313      0.0021
     29  C2        20.4620   65.4180    9.3370 C.3   313  ATP313      0.5254
     30  N3        19.8750   65.5550   10.5400 N.2   313  ATP313     -0.0055
     31  C4        18.8950   64.7150   10.9410 C.2   313  ATP313      0.3518
@<TRIPOS>BOND
     1    27    26    1
     2    28    26    2
     3    28    29    1
     4    26    25    1
     5    29    30    1
     6    25    24    2
     7    25    31    1
     8    30    31    2
     9    24    23    1
    10    31    22    1
    11    23    22    1
    12    22    21    1
    13    10     9    2
    14    19    21    1
    15    19    17    1
    16    19    20    1
    17    11     9    1
    18    21    16    1
    19     9    13    1
    20     9    12    1
    21    17    18    1
    22    17    15    1
    23     6     5    2
    24    13    14    1
    25    16    15    1
    26     4     1    2
    27    15    14    1
    28    12     5    1
    29     5     8    1
    30     5     7    1
    31     8     1    1
    32     1     3    1
    33     1     2    1
