@<TRIPOS>MOLECULE
3cqe_P91_A_1.pdb
 29 32 0 0 0
SMALL
GASTEIGER

@<TRIPOS>ATOM
      1  C1         2.5970   52.7020   26.6480 C.ar  901  P91901      0.0180
      2  C2         3.0350   52.9900   27.9540 C.ar  901  P91901      0.0149
      3  C3         4.3560   53.3930   28.1950 C.ar  901  P91901      0.1074
      4  C4         5.2160   53.5530   27.1230 C.ar  901  P91901      0.1092
      5  C5         6.4540   53.9590   27.6900 C.1   901  P91901      0.2158
      6  C6         5.1500   53.6970   29.3330 C.1   901  P91901      0.2158
      7  C7         2.0950   52.8120   29.1020 C.ar  901  P91901      0.0114
      8  O1         7.5480   54.2610   27.0800 O.2   901  P91901     -0.2086
      9  O2         4.6950   53.6630   30.5430 O.2   901  P91901     -0.2086
     10  O3         6.6130   51.1890   19.7060 O.3   901  P91901     -0.2184
     11  O4         4.1210   51.9090   21.5830 O.2   901  P91901     -0.2668
     12  C8         1.8090   53.8360   30.0000 C.ar  901  P91901      0.0577
     13  N1         6.4220   54.0460   29.0600 N.2   901  P91901     -0.2576
     14  C9         0.9040   53.5930   31.0500 C.ar  901  P91901      0.0114
     15  C10        0.3040   52.3220   31.2050 C.ar  901  P91901      0.0009
     16  C11        0.5670   51.2880   30.2850 C.ar  901  P91901      0.0001
     17  C22        4.6910   52.8660   22.0380 C.2   901  P91901      0.2812
     18  N3         5.4650   53.6580   21.2320 N.am  901  P91901     -0.1976
     19  C17        5.6490   53.4990   19.7640 C.3   901  P91901      0.1510
     20  C18        6.8590   52.5990   19.4350 C.3   901  P91901      0.2054
     21  C16        4.4260   52.9730   23.5180 C.ar  901  P91901      0.1220
     22  C15        5.3970   53.3640   24.5550 C.ar  901  P91901      0.0570
     23 BR          7.2940   53.7920   24.1550 Br    901  P91901     -0.0473
     24  N2         3.2630   52.7030   24.1890 N.ar  901  P91901     -0.3212
     25  C21        1.9800   52.2610   23.5810 C.3   901  P91901      0.1306
     26  C14        3.4440   52.8770   25.5410 C.ar  901  P91901      0.0613
     27  C13        4.7640   53.2920   25.8010 C.ar  901  P91901      0.0362
     28  C12        1.4730   51.5360   29.2460 C.ar  901  P91901      0.0009
     29 CL          2.5330   55.4650   29.8640 Cl    901  P91901     -0.0822
@<TRIPOS>BOND
     1    20    10    1
     2    20    19    1
     3    19    18    1
     4    18    17   am
     5    11    17    2
     6    17    21    1
     7    21    24   ar
     8    21    22   ar
     9    25    24    1
    10    23    22    1
    11    24    26   ar
    12    22    27   ar
    13    26    27   ar
    14    26     1   ar
    15    27     4   ar
    16     1     2   ar
    17     8     5    2
    18     4     5    1
    19     4     3   ar
    20     5    13    2
    21     2     3   ar
    22     2     7    1
    23     3     6    1
    24    13     6    2
    25     7    28   ar
    26     7    12   ar
    27    28    16   ar
    28     6     9    2
    29    29    12    1
    30    12    14   ar
    31    16    15   ar
    32    14    15   ar
