@<TRIPOS>MOLECULE
3cql_NAG_A_1.pdb
 15 15 0 0 0
SMALL
GASTEIGER

@<TRIPOS>ATOM
      1  C1       -30.9740   10.8740   21.9280 C.3   245  NAG245      0.2917
      2  C2       -32.4440   10.4880   22.1200 C.3   245  NAG245      0.1871
      3  C3       -33.3630   11.4010   21.3020 C.3   245  NAG245      0.2095
      4  C4       -33.0000   12.8720   21.4940 C.3   245  NAG245      0.2136
      5  C5       -31.4910   13.0860   21.3140 C.3   245  NAG245      0.1835
      6  C6       -31.0600   14.5330   21.5650 C.3   245  NAG245      0.2142
      7  C7       -33.0120    8.1620   22.6340 C.2   245  NAG245      0.2421
      8  C8       -33.1450    6.7710   22.0890 C.3   245  NAG245      0.0964
      9  N2       -32.6640    9.1010   21.7440 N.am  245  NAG245     -0.1991
     10  O1       -30.1940   10.1470   22.8480 O.3   245  NAG245     -0.1879
     11  O3       -34.7350   11.1860   21.6290 O.3   245  NAG245     -0.2183
     12  O4       -33.7370   13.6430   20.5640 O.3   245  NAG245     -0.2176
     13  O5       -30.8060   12.2510   22.2130 O.3   245  NAG245     -0.3242
     14  O6       -29.7260   14.7010   21.1380 O.3   245  NAG245     -0.2176
     15  O7       -33.2140    8.3760   23.8320 O.2   245  NAG245     -0.2733
@<TRIPOS>BOND
     1    12     4    1
     2    14     6    1
     3     3     4    1
     4     3    11    1
     5     3     2    1
     6     5     4    1
     7     5     6    1
     8     5    13    1
     9     9     2    1
    10     9     7   am
    11     1     2    1
    12     1    13    1
    13     1    10    1
    14     8     7    1
    15     7    15    2
