@<TRIPOS>MOLECULE
3cql_NDG_A_1.pdb
 15 15 0 0 0
SMALL
GASTEIGER

@<TRIPOS>ATOM
      1  C1       -22.8950    3.8240   21.0880 C.3   244  NDG244      0.2917
      2  C2       -23.6890    3.8270   22.4200 C.3   244  NDG244      0.1871
      3  C3       -25.0680    4.4880   22.4070 C.3   244  NDG244      0.2095
      4  C4       -25.0670    5.6920   21.4720 C.3   244  NDG244      0.2136
      5  C5       -24.6770    5.2450   20.0500 C.3   244  NDG244      0.1835
      6  C6       -24.5520    6.4340   19.0960 C.3   244  NDG244      0.2142
      7  C7       -23.0780    2.2070   24.1060 C.2   244  NDG244      0.2421
      8  C8       -23.3460    0.8710   24.7260 C.3   244  NDG244      0.0964
      9  O        -23.4520    4.5030   19.9580 O.3   244  NDG244     -0.3242
     10  O3       -25.4240    4.8120   23.7470 O.3   244  NDG244     -0.2183
     11  O4       -26.3750    6.2290   21.4800 O.3   244  NDG244     -0.2176
     12  O6       -24.1970    6.0620   17.7740 O.3   244  NDG244     -0.2176
     13  O7       -22.1820    2.9300   24.5640 O.2   244  NDG244     -0.2733
     14  N2       -23.8210    2.5250   23.0460 N.am  244  NDG244     -0.1991
     15  O1L      -22.4960    2.5290   20.6840 O.3   244  NDG244     -0.1879
@<TRIPOS>BOND
     1    12     6    1
     2     6     5    1
     3     9     5    1
     4     9     1    1
     5     5     4    1
     6    15     1    1
     7     1     2    1
     8     4    11    1
     9     4     3    1
    10     3     2    1
    11     3    10    1
    12     2    14    1
    13    14     7   am
    14     7    13    2
    15     7     8    1
