@<TRIPOS>MOLECULE
3cqu_CQU_A_1.pdb
 22 25 0 0 0
SMALL
GASTEIGER

@<TRIPOS>ATOM
      1  N3         4.9390    3.9800   17.4130 N.pl3 999  CQU999     -0.0081
      2  C7         6.0130    4.5650   18.1050 C.ar  999  CQU999      0.1933
      3  C6         2.3590    2.4730   16.3870 C.2   999  CQU999      0.0221
      4  C13        6.3450    5.9000   18.0010 C.ar  999  CQU999      0.0451
      5  C21        6.5670    0.2390   19.8470 C.1   999  CQU999      0.0964
      6  C8         2.6400    6.5180   16.2000 C.3   999  CQU999      0.3999
      7  C16        7.3870    6.4430   18.7080 C.ar  999  CQU999      0.0037
      8  C19        8.1690    5.6720   19.5160 C.ar  999  CQU999      0.0010
      9  C22        6.8740   -0.8950   20.7590 C.3   999  CQU999      0.1317
     10  N18        7.0080    1.4850   20.1000 N.2   999  CQU999     -0.2991
     11  N20        5.8760    0.2380   18.7270 N.2   999  CQU999     -0.0756
     12  N17        5.8840    1.4720   18.2900 N.2   999  CQU999     -0.0714
     13  C14        6.5580    2.2810   19.0950 C.1   999  CQU999      0.1216
     14  C12        6.7990    3.7510   18.9540 C.ar  999  CQU999      0.1172
     15  C15        7.8620    4.3360   19.6360 C.ar  999  CQU999      0.0147
     16  C1         3.8220    4.6370   16.8820 C.2   999  CQU999      0.3568
     17  C2         2.6960    3.8720   16.4190 C.3   999  CQU999      0.2174
     18  C5         1.5760    4.5290   15.8360 C.1   999  CQU999      0.0267
     19  N9         0.6620    3.5870   15.5230 N.2   999  CQU999     -0.1961
     20  C11        1.1290    2.3520   15.8560 C.2   999  CQU999      0.1063
     21  N10        1.5900    5.8560   15.7640 N.2   999  CQU999     -0.1687
     22  N4         3.7020    5.9600   16.7740 N.2   999  CQU999     -0.0349
@<TRIPOS>BOND
     1    19    18    2
     2    19    20    1
     3    21    18    2
     4    21     6    1
     5    18    17    1
     6    20     3    2
     7     6    22    1
     8     3    17    1
     9    17    16    1
    10    22    16    2
    11    16     1    1
    12     1     2    1
    13     4     2   ar
    14     4     7   ar
    15     2    14   ar
    16    12    11    1
    17    12    13    2
    18     7     8   ar
    19    11     5    2
    20    14    13    1
    21    14    15   ar
    22    13    10    2
    23     8    15   ar
    24     5    10    2
    25     5     9    1
