@<TRIPOS>MOLECULE
3cqv_HEM_A_1.pdb
 43 50 0 0 0
SMALL
GASTEIGER

@<TRIPOS>ATOM
      1 FE         60.8040    7.0500   58.3310 Fe    601  HEM601      0.0000
      2  CHA       62.8380    8.7850   60.5170 C.2   601  HEM601      0.0000
      3  CHB       59.7100    5.0890   60.8930 C.2   601  HEM601      0.0000
      4  CHC       59.2890    4.9110   56.0720 C.2   601  HEM601      0.0000
      5  CHD       61.3430    9.3070   55.9390 C.2   601  HEM601      0.0000
      6  NA        61.2610    6.9270   60.3300 N.2   601  HEM601      0.0000
      7  C1A       62.0430    7.7960   61.0460 C.2   601  HEM601      0.0000
      8  C2A       61.9150    7.4660   62.4500 C.2   601  HEM601      0.0000
      9  C3A       61.0360    6.4430   62.5770 C.2   601  HEM601      0.0000
     10  C4A       60.6030    6.0820   61.2320 C.2   601  HEM601      0.0000
     11  CMA       60.5650    5.7670   63.9010 C.3   601  HEM601      0.0000
     12  CAA       62.6620    8.2620   63.5280 C.3   601  HEM601      0.0000
     13  CBA       61.7670    9.4620   63.8690 C.3   601  HEM601      0.0000
     14  CGA       62.3700   10.4020   64.8950 C.2   601  HEM601      0.0000
     15  O1A       61.8320   11.5440   65.0230 O.co2 601  HEM601      0.0000
     16  O2A       63.3810   10.0310   65.5450 O.co2 601  HEM601      0.0000
     17  NB        59.7160    5.3320   58.4450 N.ar  601  HEM601      0.0000
     18  C1B       59.3270    4.6980   59.6200 C.ar  601  HEM601      0.0000
     19  C2B       58.4990    3.5550   59.2620 C.ar  601  HEM601      0.0000
     20  C3B       58.3970    3.5190   57.9250 C.ar  601  HEM601      0.0000
     21  C4B       59.1590    4.6260   57.3960 C.ar  601  HEM601      0.0000
     22  CMB       57.8580    2.5620   60.2620 C.3   601  HEM601      0.0000
     23  CAB       57.6560    2.5590   56.9620 C.2   601  HEM601      0.0000
     24  CBB       56.5850    1.8460   57.3320 C.2   601  HEM601      0.0000
     25  NC        60.3550    7.1030   56.3990 N.2   601  HEM601      0.0000
     26  C1C       59.8130    6.1030   55.6090 C.2   601  HEM601      0.0000
     27  C2C       59.8180    6.5420   54.2480 C.2   601  HEM601      0.0000
     28  C3C       60.3820    7.7530   54.2230 C.2   601  HEM601      0.0000
     29  C4C       60.7530    8.1130   55.5740 C.2   601  HEM601      0.0000
     30  CMC       59.2780    5.7330   53.0530 C.3   601  HEM601      0.0000
     31  CAC       60.6310    8.6700   53.0140 C.2   601  HEM601      0.0000
     32  CBC       59.7240    8.8020   52.0290 C.2   601  HEM601      0.0000
     33  ND        61.9570    8.7780   58.2390 N.ar  601  HEM601      0.0000
     34  C1D       61.9330    9.6030   57.1430 C.ar  601  HEM601      0.0000
     35  C2D       62.6640   10.8170   57.4410 C.ar  601  HEM601      0.0000
     36  C3D       63.1480   10.6670   58.8600 C.ar  601  HEM601      0.0000
     37  C4D       62.6450    9.3660   59.2840 C.ar  601  HEM601      0.0000
     38  CMD       62.8810   12.0330   56.5050 C.3   601  HEM601      0.0000
     39  CAD       63.9830   11.6790   59.6750 C.3   601  HEM601      0.0000
     40  CBD       65.4070   11.5840   59.1240 C.3   601  HEM601      0.0000
     41  CGD       66.3660   12.4290   59.9190 C.2   601  HEM601      0.0000
     42  O1D       66.4060   12.2510   61.1590 O.co2 601  HEM601      0.0000
     43  O2D       67.1060   13.2460   59.3250 O.co2 601  HEM601      0.0000
@<TRIPOS>BOND
     1    32    31    2
     2    31    28    1
     3    30    27    1
     4    28    27    2
     5    28    29    1
     6    27    26    1
     7    29     5    1
     8    29    25    2
     9    26     4    2
    10    26    25    1
    11     5    34    2
    12     4    21    1
    13    25     1    1
    14    38    35    1
    15    23    24    2
    16    23    20    1
    17    34    35   ar
    18    34    33   ar
    19    21    20   ar
    20    21    17   ar
    21    35    36   ar
    22    20    19   ar
    23    33     1    1
    24    33    37   ar
    25     1    17    1
    26     1     6    1
    27    17    18   ar
    28    36    37   ar
    29    36    39    1
    30    40    39    1
    31    40    41    1
    32    19    18   ar
    33    19    22    1
    34    37     2    2
    35    43    41   ar
    36    18     3    1
    37    41    42   ar
    38     6     7    2
    39     6    10    1
    40     2     7    1
    41     3    10    2
    42     7     8    1
    43    10     9    1
    44     8     9    2
    45     8    12    1
    46     9    11    1
    47    12    13    1
    48    13    14    1
    49    14    15   ar
    50    14    16   ar
