@<TRIPOS>MOLECULE
3cqw_CQW_A_1.pdb
 19 22 0 0 0
SMALL
GASTEIGER

@<TRIPOS>ATOM
      1  C7         3.5050    3.6640   15.7790 C.1   999  CQW999      0.0275
      2  C9         4.6600    5.6530   16.1330 C.3   999  CQW999      0.3998
      3  C13        4.6550    2.8970   16.0700 C.3   999  CQW999      0.2239
      4  C21        8.1540    3.3920   19.3700 C.2   999  CQW999      0.0772
      5  N5         2.4620    2.7910   15.5040 N.2   999  CQW999     -0.1952
      6  C18        8.4480    4.4160   18.3160 C.3   999  CQW999      0.0975
      7 CL1         5.1890    0.0340   16.0180 Cl    999  CQW999     -0.0836
      8  C2         4.2380    1.4870   15.8800 C.2   999  CQW999      0.0805
      9  C3         2.9290    1.5050   15.5760 C.2   999  CQW999      0.1178
     10  N8         3.5360    4.9980   15.8130 N.2   999  CQW999     -0.1687
     11  C12        5.8100    3.6280   16.4240 C.2   999  CQW999      0.3160
     12  N11        5.7690    4.9660   16.3990 N.2   999  CQW999     -0.0389
     13  N14        7.0580    3.0390   16.7200 N.pl3 999  CQW999     -0.1875
     14  C28        7.1640    1.8790   17.6360 C.3   999  CQW999      0.2493
     15  C27        7.5980    2.2150   19.0420 C.2   999  CQW999      0.1159
     16  N26        7.6210    1.4130   20.1620 N.2   999  CQW999     -0.2434
     17  C24        8.1940    2.0980   21.1470 C.3   999  CQW999      0.2503
     18  N22        8.5560    3.3120   20.6860 N.2   999  CQW999     -0.2472
     19  C15        8.2690    3.8790   16.8780 C.3   999  CQW999      0.2087
@<TRIPOS>BOND
     1     5     9    1
     2     5     1    2
     3     9     8    2
     4     1    10    2
     5     1     3    1
     6    10     2    1
     7     8     7    1
     8     8     3    1
     9     3    11    1
    10     2    12    1
    11    12    11    2
    12    11    13    1
    13    13    19    1
    14    13    14    1
    15    19     6    1
    16    14    15    1
    17     6     4    1
    18    15     4    1
    19    15    16    2
    20     4    18    2
    21    16    17    1
    22    18    17    1
