@<TRIPOS>MOLECULE
3cr0_809_A_1.pdb
 25 28 0 0 0
SMALL
GASTEIGER

@<TRIPOS>ATOM
      1  O1         7.1540   55.2960   26.6580 O.2   901  809901     -0.2086
      2  C5         6.1300   54.9900   27.3560 C.1   901  809901      0.2158
      3  N1         6.2190   55.0460   28.7070 N.2   901  809901     -0.2576
      4  C6         4.9760   54.6630   29.0970 C.1   901  809901      0.2158
      5  O2         4.6580   54.5820   30.3310 O.2   901  809901     -0.2086
      6  C3         4.0370   54.4420   28.0390 C.ar  901  809901      0.1074
      7  C4         4.8210   54.6530   26.9070 C.ar  901  809901      0.1084
      8  C13        4.2120   54.4950   25.6290 C.ar  901  809901      0.0260
      9  C15        4.7740   54.6270   24.4120 C.ar  901  809901     -0.0002
     10  C17        6.1790   55.0230   24.1070 C.3   901  809901      0.0635
     11  C19        6.9190   53.9470   23.3860 C.3   901  809901      0.1868
     12  O3         7.8820   54.8530   22.8020 O.3   901  809901     -0.2200
     13  C16        3.7690   54.3140   23.4990 C.ar  901  809901      0.0717
     14  N2         2.6320   54.0330   24.1330 N.ar  901  809901     -0.3243
     15  C18        1.3110   53.6860   23.4960 C.3   901  809901      0.1305
     16  C14        2.8970   54.1170   25.4550 C.ar  901  809901      0.0604
     17  C1         2.1360   53.9060   26.6010 C.ar  901  809901      0.0180
     18  C2         2.6790   54.0950   27.8490 C.ar  901  809901      0.0149
     19  C7         1.7660   53.8610   28.9810 C.ar  901  809901      0.0114
     20  C12        1.1460   52.6170   29.0930 C.ar  901  809901      0.0009
     21  C8         1.4670   54.8970   29.8860 C.ar  901  809901      0.0577
     22 CL1         2.1130   56.5390   29.7970 Cl    901  809901     -0.0822
     23  C9         0.6140   54.6780   30.9740 C.ar  901  809901      0.0114
     24  C10        0.0290   53.4320   31.1150 C.ar  901  809901      0.0009
     25  C11        0.2940   52.4520   30.1930 C.ar  901  809901      0.0001
@<TRIPOS>BOND
     1    12    11    1
     2    11    10    1
     3    15    14    1
     4    13    14   ar
     5    13     9   ar
     6    10     9    1
     7    14    16   ar
     8     9     8   ar
     9    16     8   ar
    10    16    17   ar
    11     8     7   ar
    12    17    18   ar
    13     1     2    2
    14     7     2    1
    15     7     6   ar
    16     2     3    2
    17    18     6   ar
    18    18    19    1
    19     6     4    1
    20     3     4    2
    21    19    20   ar
    22    19    21   ar
    23    20    25   ar
    24     4     5    2
    25    22    21    1
    26    21    23   ar
    27    25    24   ar
    28    23    24   ar
