@<TRIPOS>MOLECULE
3cr3_ADP_A_1.pdb
 27 29 0 0 0
SMALL
GASTEIGER

@<TRIPOS>ATOM
      1  PB        93.1820   -1.1610   29.6730 P.3   1211  ADP1211     0.5373
      2  O1B       94.1500   -0.2850   28.9440 O.2   1211  ADP1211    -0.2221
      3  O2B       93.5720   -1.4130   31.0890 O.3   1211  ADP1211    -0.1143
      4  O3B       91.7240   -0.7280   29.5130 O.3   1211  ADP1211    -0.1143
      5  PA        93.3400   -2.9210   27.3680 P.3   1211  ADP1211     0.2231
      6  O1A       93.2920   -1.6680   26.5630 O.2   1211  ADP1211    -0.5169
      7  O2A       94.4890   -3.8600   27.0830 O.3   1211  ADP1211    -0.4370
      8  O3A       93.2910   -2.6140   28.9610 O.3   1211  ADP1211    -0.2261
      9  O5'       91.9600   -3.7390   27.1820 O.3   1211  ADP1211    -0.3111
     10  C5'       90.7130   -3.0460   27.0670 C.3   1211  ADP1211     0.1813
     11  C4'       89.6270   -4.0910   26.9250 C.3   1211  ADP1211     0.1821
     12  O4'       89.4680   -4.8570   28.1260 O.3   1211  ADP1211    -0.3135
     13  C3'       88.2590   -3.4910   26.6520 C.3   1211  ADP1211     0.2184
     14  O3'       88.1150   -3.2810   25.2470 O.3   1211  ADP1211    -0.2174
     15  C2'       87.2910   -4.5370   27.2010 C.3   1211  ADP1211     0.2570
     16  O2'       86.8760   -5.4850   26.2150 O.3   1211  ADP1211    -0.2130
     17  C1'       88.1210   -5.3090   28.2180 C.3   1211  ADP1211     0.3186
     18  N9        87.6430   -5.0090   29.5800 N.pl3 1211  ADP1211    -0.1439
     19  C8        87.9960   -3.9160   30.2910 C.3   1211  ADP1211     0.3377
     20  N7        87.3990   -3.9290   31.4920 N.2   1211  ADP1211    -0.2095
     21  C5        86.6430   -5.0420   31.5480 C.2   1211  ADP1211     0.2526
     22  C6        85.7440   -5.6550   32.5420 C.2   1211  ADP1211     0.4393
     23  N6        85.5730   -5.0490   33.7330 N.pl3 1211  ADP1211     0.2180
     24  N1        85.1430   -6.8230   32.2230 N.2   1211  ADP1211     0.0021
     25  C2        85.3370   -7.4370   31.0390 C.3   1211  ADP1211     0.5254
     26  N3        86.1310   -6.9320   30.0940 N.2   1211  ADP1211    -0.0055
     27  C4        86.7940   -5.7560   30.2860 C.2   1211  ADP1211     0.3518
@<TRIPOS>BOND
     1    14    13    1
     2    16    15    1
     3     6     5    2
     4    13    11    1
     5    13    15    1
     6    11    10    1
     7    11    12    1
     8    10     9    1
     9     7     5    1
    10     9     5    1
    11    15    17    1
    12     5     8    1
    13    12    17    1
    14    17    18    1
    15     2     1    2
    16     8     1    1
    17     4     1    1
    18    18    27    1
    19    18    19    1
    20     1     3    1
    21    26    27    2
    22    26    25    1
    23    27    21    1
    24    19    20    1
    25    25    24    1
    26    20    21    2
    27    21    22    1
    28    24    22    2
    29    22    23    1
