@<TRIPOS>MOLECULE
3cr4_PNT_X_1.pdb
 25 26 0 0 0
SMALL
GASTEIGER

@<TRIPOS>ATOM
      1  C1        -0.6780    2.6850   23.7370 C.ar  101  PNT101      0.1386
      2  C2        -1.6280    2.8480   22.7270 C.ar  101  PNT101      0.0372
      3  C3        -2.6650    1.9220   22.5850 C.ar  101  PNT101      0.0111
      4  C4        -2.7640    0.8270   23.4510 C.ar  101  PNT101      0.0977
      5  C5        -1.8120    0.6740   24.4580 C.ar  101  PNT101      0.0111
      6  C6        -0.7760    1.5950   24.6030 C.ar  101  PNT101      0.0372
      7  C7         1.6440    3.1500   24.2990 C.3   101  PNT101      0.2054
      8  C8         2.7330    4.1850   24.0160 C.3   101  PNT101      0.0475
      9  C9        -3.8870   -0.1740   23.3110 C.2   101  PNT101      0.4766
     10  C10        4.0840    3.5120   23.7730 C.3   101  PNT101      0.0077
     11  C1'        3.6500   -0.4240   25.0580 C.ar  101  PNT101      0.1386
     12  C2'        4.6000   -1.2790   25.6070 C.ar  101  PNT101      0.0372
     13  C3'        4.2400   -2.5490   26.0450 C.ar  101  PNT101      0.0111
     14  C4'        2.9190   -2.9780   25.9480 C.ar  101  PNT101      0.0977
     15  C5'        1.9600   -2.1250   25.3960 C.ar  101  PNT101      0.0111
     16  C6'        2.3250   -0.8530   24.9510 C.ar  101  PNT101      0.0372
     17  C7'        5.0640    1.6080   25.1700 C.3   101  PNT101      0.2054
     18  C8'        4.7660    3.1060   25.0790 C.3   101  PNT101      0.0475
     19  C9'        2.5490   -4.3540   26.4330 C.2   101  PNT101      0.4766
     20  O1         0.3480    3.5930   23.8780 O.3   101  PNT101     -0.4755
     21  O1'        3.9990    0.8300   24.6110 O.3   101  PNT101     -0.4755
     22  N1        -3.8740   -1.2600   23.9530 N.pl3 101  PNT101      0.2047
     23  N2        -4.9100    0.0700   22.4910 N.pl3 101  PNT101      0.2047
     24  N1'        3.4020   -5.2810   26.4160 N.pl3 101  PNT101      0.2047
     25  N2'        1.3230   -4.6090   26.8900 N.pl3 101  PNT101      0.2047
@<TRIPOS>BOND
     1    23     9    2
     2     3     2   ar
     3     3     4   ar
     4     2     1   ar
     5     9     4    1
     6     9    22    1
     7     4     5   ar
     8     1    20    1
     9     1     6   ar
    10    10     8    1
    11    10    18    1
    12    20     7    1
    13     8     7    1
    14     5     6   ar
    15    21    11    1
    16    21    17    1
    17    16    11   ar
    18    16    15   ar
    19    11    12   ar
    20    18    17    1
    21    15    14   ar
    22    12    13   ar
    23    14    13   ar
    24    14    19    1
    25    24    19    2
    26    19    25    1
