@<TRIPOS>MOLECULE
3cr5_PNT_X_1.pdb
 25 26 0 0 0
SMALL
GASTEIGER

@<TRIPOS>ATOM
      1  C1        -0.9960    2.6430   24.6340 C.ar   94  PNT94       0.1386
      2  C2         0.1760    2.0610   25.0990 C.ar   94  PNT94       0.0372
      3  C3         1.1700    2.7980   25.7200 C.ar   94  PNT94       0.0111
      4  C4         0.9830    4.1570   25.8680 C.ar   94  PNT94       0.0977
      5  C5        -0.1850    4.7470   25.4200 C.ar   94  PNT94       0.0111
      6  C6        -1.1710    4.0020   24.8010 C.ar   94  PNT94       0.0372
      7  C7        -1.9160    0.5670   23.7800 C.3    94  PNT94       0.2054
      8  C8        -0.4840    0.1840   23.4410 C.3    94  PNT94       0.0475
      9  C9         2.0030    5.0230   26.5260 C.2    94  PNT94       0.4766
     10  C10       -0.0820   -0.9680   24.3350 C.3    94  PNT94       0.0077
     11  C1'        2.5740   -0.7960   25.4770 C.ar   94  PNT94       0.1386
     12  C2'        2.1530    0.4910   25.1540 C.ar   94  PNT94       0.0372
     13  C3'        2.9650    1.4050   24.5010 C.ar   94  PNT94       0.0111
     14  C4'        4.2500    1.0190   24.1880 C.ar   94  PNT94       0.0977
     15  C5'        4.6860   -0.2590   24.5000 C.ar   94  PNT94       0.0111
     16  C6'        3.8600   -1.1680   25.1410 C.ar   94  PNT94       0.0372
     17  C7'        0.5610   -1.3430   26.7270 C.3    94  PNT94       0.2054
     18  C8'       -0.3460   -0.5820   25.7790 C.3    94  PNT94       0.0475
     19  C9'        5.2020    1.9300   23.4860 C.2    94  PNT94       0.4766
     20  O1        -1.9970    1.9450   24.0130 O.3    94  PNT94      -0.4755
     21  O1'        1.7710   -1.7140   26.1100 O.3    94  PNT94      -0.4755
     22  N1         3.2320    4.8420   26.3310 N.pl3  94  PNT94       0.2047
     23  N2         1.6040    6.0190   27.3130 N.pl3  94  PNT94       0.2047
     24  N1'        5.1430    3.1870   23.5860 N.pl3  94  PNT94       0.2047
     25  N2'        6.1400    1.3680   22.7250 N.pl3  94  PNT94       0.2047
@<TRIPOS>BOND
     1    25    19    2
     2     8     7    1
     3     8    10    1
     4    19    24    1
     5    19    14    1
     6     7    20    1
     7    20     1    1
     8    14    15   ar
     9    14    13   ar
    10    10    18    1
    11    15    16   ar
    12    13    12   ar
    13     1     6   ar
    14     1     2   ar
    15     6     5   ar
    16     2     3   ar
    17    16    11   ar
    18    12    11   ar
    19     5     4   ar
    20    11    21    1
    21     3     4   ar
    22    18    17    1
    23     4     9    1
    24    21    17    1
    25    22     9    2
    26     9    23    1
