@<TRIPOS>MOLECULE
3cr6_LSR_A_1.pdb
 15 15 0 0 0
SMALL
GASTEIGER

@<TRIPOS>ATOM
      1  CAF        3.6800   -3.6220    4.6070 C.2   138  LSR138     -0.0046
      2  CAE        4.8150   -3.1680    5.2360 C.2   138  LSR138     -0.0221
      3  CAD        5.9880   -3.9710    5.3360 C.3   138  LSR138      0.0440
      4  CAA        6.0100   -5.3460    4.7540 C.3   138  LSR138      0.0094
      5  CAC        7.0910   -3.3280    5.9610 C.2   138  LSR138     -0.0224
      6  CAB        8.2410   -4.0310    6.3110 C.2   138  LSR138     -0.0092
      7  CAK        9.3200   -3.6900    7.1340 C.2   138  LSR138     -0.0310
      8  CAJ       10.2700   -4.6300    7.3310 C.2   138  LSR138     -0.0479
      9  CAI       10.2780   -5.9850    6.6920 C.3   138  LSR138      0.0260
     10  CAN       11.5050   -4.3470    8.1310 C.3   138  LSR138      0.0217
     11  CAO       10.9890   -3.5080    9.3460 C.3   138  LSR138      0.0047
     12  CAP       10.7960   -2.1690    8.6170 C.3   138  LSR138      0.0044
     13  CAL        9.5000   -2.3270    7.8140 C.3   138  LSR138      0.0183
     14  CAH        9.4370   -1.1600    6.8040 C.3   138  LSR138      0.0043
     15  CAM        8.3940   -2.1010    8.8530 C.3   138  LSR138      0.0043
@<TRIPOS>BOND
     1     1     2    2
     2     4     3    1
     3     2     3    1
     4     3     5    1
     5     5     6    2
     6     6     7    1
     7     9     8    1
     8    14    13    1
     9     7     8    2
    10     7    13    1
    11     8    10    1
    12    13    12    1
    13    13    15    1
    14    10    11    1
    15    12    11    1
