@<TRIPOS>MOLECULE
3cr7_PPS_A_1.pdb
 31 33 0 0 0
SMALL
GASTEIGER

@<TRIPOS>ATOM
      1  S2        27.4300   61.7670   61.7900 S.3   2002  PPS2002     0.0049
      2  OS1       26.6150   62.0170   60.3550 O.2   2002  PPS2002    -0.3449
      3  OS2       28.3630   60.3740   61.6930 O.2   2002  PPS2002    -0.3449
      4  OS3       28.4090   63.0970   62.1370 O.3   2002  PPS2002    -0.2679
      5  O6P       26.3110   61.5940   63.0210 O.3   2002  PPS2002    -0.1945
      6  P2        24.6910   61.3630   62.7010 P.3   2002  PPS2002     0.2383
      7  O4P       24.4290   59.8540   62.0500 O.3   2002  PPS2002    -0.4361
      8  O5P       24.1930   62.3930   61.7460 O.2   2002  PPS2002    -0.5161
      9  O5'       23.9240   61.5060   64.1770 O.3   2002  PPS2002    -0.3102
     10  C5'       23.7530   62.7990   64.7570 C.3   2002  PPS2002     0.1813
     11  C4'       22.6660   62.6290   65.8570 C.3   2002  PPS2002     0.1795
     12  O4'       23.1350   61.5910   66.7780 O.3   2002  PPS2002    -0.3136
     13  C1'       23.0000   62.1110   68.1410 C.3   2002  PPS2002     0.3185
     14  N9        24.2910   61.9210   68.8310 N.pl3 2002  PPS2002    -0.1439
     15  C4        25.5670   62.6700   68.5690 C.2   2002  PPS2002     0.3518
     16  N3        25.9580   63.8320   67.6730 N.2   2002  PPS2002    -0.0055
     17  C2        27.4320   64.3690   67.6720 C.3   2002  PPS2002     0.5254
     18  N1        28.4700   63.7370   68.5630 N.2   2002  PPS2002     0.0021
     19  C6        28.0680   62.5750   69.4580 C.2   2002  PPS2002     0.4393
     20  N6        29.0540   61.9280   70.3170 N.pl3 2002  PPS2002     0.2180
     21  C5        26.6200   62.0350   69.4680 C.2   2002  PPS2002     0.2526
     22  N7        25.9910   60.9140   70.2530 N.2   2002  PPS2002    -0.2095
     23  C8        24.5490   60.8290   69.8680 C.3   2002  PPS2002     0.3377
     24  C2'       22.5130   63.5580   68.1070 C.3   2002  PPS2002     0.2543
     25  O2'       21.2300   63.5990   68.6850 O.3   2002  PPS2002    -0.2131
     26  C3'       22.4070   63.9140   66.6440 C.3   2002  PPS2002     0.1928
     27  O3'       21.0930   64.4160   66.3630 O.3   2002  PPS2002    -0.2673
     28  P1        19.6890   63.4750   66.3720 P.3   2002  PPS2002     0.5327
     29  O1P       18.6440   64.1710   65.2570 O.2   2002  PPS2002    -0.2224
     30  O2P       18.9640   63.5670   67.8850 O.3   2002  PPS2002    -0.1145
     31  O3P       19.9080   62.0610   66.0240 O.3   2002  PPS2002    -0.1145
@<TRIPOS>BOND
     1     2     1    2
     2     3     1    2
     3     8     6    2
     4     1     4    1
     5     1     5    1
     6     7     6    1
     7     6     5    1
     8     6     9    1
     9     9    10    1
    10    10    11    1
    11    29    28    2
    12    11    26    1
    13    11    12    1
    14    31    28    1
    15    27    28    1
    16    27    26    1
    17    28    30    1
    18    26    24    1
    19    12    13    1
    20    17    16    1
    21    17    18    1
    22    16    15    2
    23    24    13    1
    24    24    25    1
    25    13    14    1
    26    18    19    2
    27    15    14    1
    28    15    21    1
    29    14    23    1
    30    19    21    1
    31    19    20    1
    32    21    22    2
    33    23    22    1
