@<TRIPOS>MOLECULE
3cr7_ADP_A_1.pdb
 27 29 0 0 0
SMALL
GASTEIGER

@<TRIPOS>ATOM
      1  PB        18.7140   68.0940   62.9100 P.3   2001  ADP2001     0.5373
      2  O1B       19.5050   68.9370   61.9220 O.2   2001  ADP2001    -0.2221
      3  O2B       17.8590   67.0410   62.2470 O.3   2001  ADP2001    -0.1143
      4  O3B       19.4970   67.6180   64.1150 O.3   2001  ADP2001    -0.1143
      5  PA        16.0890   69.1930   63.6250 P.3   2001  ADP2001     0.2231
      6  O1A       15.4800   69.3110   62.2420 O.2   2001  ADP2001    -0.5169
      7  O2A       15.6530   68.1040   64.5820 O.3   2001  ADP2001    -0.4370
      8  O3A       17.7060   69.1800   63.5590 O.3   2001  ADP2001    -0.2261
      9  O5'       15.9120   70.6350   64.3330 O.3   2001  ADP2001    -0.3111
     10  C5'       16.1850   70.8420   65.7090 C.3   2001  ADP2001     0.1813
     11  C4'       15.2100   71.9230   66.1600 C.3   2001  ADP2001     0.1821
     12  O4'       15.3130   73.1270   65.3880 O.3   2001  ADP2001    -0.3135
     13  C3'       13.7960   71.4070   65.9980 C.3   2001  ADP2001     0.2184
     14  O3'       13.1800   71.3740   67.2890 O.3   2001  ADP2001    -0.2174
     15  C2'       13.0940   72.4050   65.1030 C.3   2001  ADP2001     0.2570
     16  O2'       11.7880   72.7140   65.6040 O.3   2001  ADP2001    -0.2130
     17  C1'       14.0060   73.6240   65.1030 C.3   2001  ADP2001     0.3186
     18  N9        14.0320   74.3510   63.8060 N.pl3 2001  ADP2001    -0.1439
     19  C8        14.1730   73.7730   62.5970 C.3   2001  ADP2001     0.3377
     20  N7        14.1660   74.6930   61.6050 N.2   2001  ADP2001    -0.2095
     21  C5        14.0240   75.9040   62.1850 C.2   2001  ADP2001     0.2526
     22  C6        13.9370   77.3050   61.7030 C.2   2001  ADP2001     0.4393
     23  N6        14.0130   77.5770   60.3760 N.pl3 2001  ADP2001     0.2180
     24  N1        13.7860   78.2840   62.6320 N.2   2001  ADP2001     0.0021
     25  C2        13.7120   78.0190   63.9580 C.3   2001  ADP2001     0.5254
     26  N3        13.7820   76.7660   64.4670 N.2   2001  ADP2001    -0.0055
     27  C4        13.9330   75.6830   63.6430 C.2   2001  ADP2001     0.3518
@<TRIPOS>BOND
     1    23    22    1
     2    20    21    2
     3    20    19    1
     4    22    21    1
     5    22    24    2
     6     2     1    2
     7    21    27    1
     8     6     5    2
     9     3     1    1
    10    19    18    1
    11    24    25    1
    12     1     8    1
    13     1     4    1
    14     8     5    1
    15     5     9    1
    16     5     7    1
    17    27    18    1
    18    27    26    2
    19    18    17    1
    20    25    26    1
    21     9    10    1
    22    15    17    1
    23    15    16    1
    24    15    13    1
    25    17    12    1
    26    12    11    1
    27    10    11    1
    28    13    11    1
    29    13    14    1
