@<TRIPOS>MOLECULE
3cr9_GLC_A_1.pdb
 12 12 0 0 0
SMALL
GASTEIGER

@<TRIPOS>ATOM
      1  C1       -17.3830   13.8100  -22.3540 C.3   692  GLC692      0.3024
      2  C2       -16.9250   15.1810  -22.8770 C.3   692  GLC692      0.2434
      3  C3       -18.1080   16.1370  -23.0300 C.3   692  GLC692      0.2199
      4  C4       -19.2630   15.4860  -23.8050 C.3   692  GLC692      0.2144
      5  C5       -19.5940   14.0900  -23.2620 C.3   692  GLC692      0.1836
      6  C6       -20.5800   13.3730  -24.1680 C.3   692  GLC692      0.2142
      7  O1       -17.8990   13.9240  -21.0710 O.3   692  GLC692     -0.1869
      8  O2       -15.9800   15.7490  -21.9830 O.3   692  GLC692     -0.2148
      9  O3       -17.6710   17.2990  -23.7200 O.3   692  GLC692     -0.2174
     10  O4       -20.4200   16.3040  -23.7080 O.3   692  GLC692     -0.2176
     11  O5       -18.4030   13.2690  -23.2090 O.3   692  GLC692     -0.3236
     12  O6       -21.8040   13.0990  -23.5000 O.3   692  GLC692     -0.2176
@<TRIPOS>BOND
     1     6    12    1
     2     6     5    1
     3     4    10    1
     4     4     5    1
     5     4     3    1
     6     9     3    1
     7     5    11    1
     8    11     1    1
     9     3     2    1
    10     2     1    1
    11     2     8    1
    12     1     7    1
