@<TRIPOS>MOLECULE
3crb_COU_A_1.pdb
 11 12 0 0 0
SMALL
GASTEIGER

@<TRIPOS>ATOM
      1  C1        11.6060   16.6830   16.9990 C.ar  693  COU693      0.3459
      2  C2        12.7380   16.6470   16.0860 C.ar  693  COU693      0.0824
      3  C3        13.0770   17.7730   15.3750 C.ar  693  COU693      0.0097
      4  C4        12.2550   19.0220   15.5130 C.ar  693  COU693      0.0349
      5  C5        12.5490   20.2470   14.8110 C.ar  693  COU693      0.0030
      6  C6        11.7390   21.3740   15.0000 C.ar  693  COU693      0.0002
      7  C7        10.6380   21.3320   15.9120 C.ar  693  COU693      0.0031
      8  C8        10.3330   20.1500   16.6200 C.ar  693  COU693      0.0376
      9  C9        11.1500   18.9970   16.4520 C.ar  693  COU693      0.1487
     10  O1        11.2950   15.7040   17.6390 O.2   693  COU693     -0.2445
     11  O2        10.8480   17.8240   17.1360 O.2   693  COU693     -0.4210
@<TRIPOS>BOND
     1     5     6   ar
     2     5     4   ar
     3     6     7   ar
     4     3     4   ar
     5     3     2   ar
     6     4     9   ar
     7     7     8   ar
     8     2     1   ar
     9     9     8   ar
    10     9    11   ar
    11     1    11   ar
    12     1    10    2
