@<TRIPOS>MOLECULE
3crc_ATP_B_1.pdb
 31 33 0 0 0
SMALL
GASTEIGER

@<TRIPOS>ATOM
      1  PG        20.5680   26.2810   65.3080 P.3   265  ATP265      0.5373
      2  O1G       19.9870   25.3520   66.3470 O.3   265  ATP265     -0.1143
      3  O2G       20.0360   27.6920   65.3670 O.3   265  ATP265     -0.1143
      4  O3G       22.0670   26.1850   65.1550 O.2   265  ATP265     -0.2221
      5  PB        18.4280   25.4000   63.7390 P.3   265  ATP265      0.2277
      6  O1B       18.2510   24.5370   62.5130 O.2   265  ATP265     -0.5168
      7  O2B       17.6740   26.7030   63.8590 O.3   265  ATP265     -0.4368
      8  O3B       19.9980   25.7090   63.9150 O.3   265  ATP265     -0.2258
      9  PA        18.8740   23.1180   65.2920 P.3   265  ATP265      0.2189
     10  O1A       20.0680   23.0680   64.3690 O.2   265  ATP265     -0.5170
     11  O2A       19.0650   22.9510   66.7800 O.3   265  ATP265     -0.4371
     12  O3A       18.0980   24.5060   65.0370 O.3   265  ATP265     -0.2700
     13  O5'       17.8060   22.0210   64.7940 O.3   265  ATP265     -0.3112
     14  C5'       17.2260   22.1130   63.4950 C.3   265  ATP265      0.1813
     15  C4'       15.7640   21.6860   63.5600 C.3   265  ATP265      0.1821
     16  O4'       15.6890   20.2800   63.8120 O.3   265  ATP265     -0.3135
     17  C3'       15.0370   22.4010   64.6910 C.3   265  ATP265      0.2184
     18  O3'       13.9250   23.1290   64.1580 O.3   265  ATP265     -0.2174
     19  C2'       14.5300   21.3150   65.6230 C.3   265  ATP265      0.2570
     20  O2'       13.0990   21.3580   65.6730 O.3   265  ATP265     -0.2130
     21  C1'       14.9760   19.9910   65.0180 C.3   265  ATP265      0.3186
     22  N9        13.7850   19.1630   64.7030 N.pl3 265  ATP265     -0.1439
     23  C8        12.6640   19.0830   65.4440 C.3   265  ATP265      0.3377
     24  N7        11.7630   18.2380   64.8810 N.2   265  ATP265     -0.2095
     25  C5        12.3110   17.7600   63.7490 C.2   265  ATP265      0.2526
     26  C6        11.8990   16.8240   62.6750 C.2   265  ATP265      0.4393
     27  N6        10.6890   16.2160   62.7020 N.pl3 265  ATP265      0.2180
     28  N1        12.7730   16.5990   61.6690 N.2   265  ATP265      0.0021
     29  C2        13.9790   17.1960   61.6310 C.3   265  ATP265      0.5254
     30  N3        14.4160   18.0540   62.5700 N.2   265  ATP265     -0.0055
     31  C4        13.6430   18.3720   63.6360 C.2   265  ATP265      0.3518
@<TRIPOS>BOND
     1    29    28    1
     2    29    30    1
     3    28    26    2
     4     6     5    2
     5    30    31    2
     6    26    27    1
     7    26    25    1
     8    14    15    1
     9    14    13    1
    10    15    16    1
    11    15    17    1
    12    31    25    1
    13    31    22    1
    14     5     7    1
    15     5     8    1
    16     5    12    1
    17    25    24    2
    18    16    21    1
    19     8     1    1
    20    18    17    1
    21    10     9    2
    22    17    19    1
    23    22    21    1
    24    22    23    1
    25    13     9    1
    26    24    23    1
    27    21    19    1
    28    12     9    1
    29     4     1    2
    30     9    11    1
    31     1     3    1
    32     1     2    1
    33    19    20    1
