@<TRIPOS>MOLECULE
3crl_ANP_A_1.pdb
 31 33 0 0 0
SMALL
GASTEIGER

@<TRIPOS>ATOM
      1  PG        54.1700  115.6240   55.0250 P.3   1000  ANP1000     0.4884
      2  O1G       55.3030  115.5730   56.0190 O.3   1000  ANP1000    -0.1240
      3  O2G       52.7970  115.3930   55.6050 O.3   1000  ANP1000    -0.1240
      4  O3G       54.4670  114.7700   53.8180 O.2   1000  ANP1000    -0.2331
      5  PB        55.2880  117.7870   53.2650 P.3   1000  ANP1000     0.4669
      6  O1B       54.8450  117.4120   51.8700 O.2   1000  ANP1000    -0.2351
      7  O2B       55.6230  119.2340   53.5360 O.3   1000  ANP1000    -0.1253
      8  N3B       54.0820  117.2580   54.4070 N.3   1000  ANP1000    -0.0163
      9  PA        57.5450  116.2020   52.5630 P.3   1000  ANP1000     0.2220
     10  O1A       58.7520  115.6940   53.3300 O.3   1000  ANP1000    -0.4370
     11  O2A       56.7100  115.2470   51.7520 O.2   1000  ANP1000    -0.5170
     12  O3A       56.6060  116.9470   53.6420 O.3   1000  ANP1000    -0.2360
     13  O5'       58.0030  117.4200   51.6260 O.3   1000  ANP1000    -0.3111
     14  C5'       58.8470  118.4410   52.1580 C.3   1000  ANP1000     0.1813
     15  C4'       58.8060  119.6360   51.2190 C.3   1000  ANP1000     0.1821
     16  O4'       59.4740  119.3050   50.0060 O.3   1000  ANP1000    -0.3135
     17  C3'       57.3970  119.9830   50.7800 C.3   1000  ANP1000     0.2184
     18  O3'       56.7580  120.8460   51.7250 O.3   1000  ANP1000    -0.2174
     19  C2'       57.5850  120.6030   49.4080 C.3   1000  ANP1000     0.2570
     20  O2'       57.8490  122.0100   49.4690 O.3   1000  ANP1000    -0.2130
     21  C1'       58.8370  119.9340   48.8850 C.3   1000  ANP1000     0.3186
     22  N9        58.4470  118.9320   47.8630 N.pl3 1000  ANP1000    -0.1439
     23  C8        58.3810  117.5970   48.0350 C.3   1000  ANP1000     0.3377
     24  N7        57.9860  116.9800   46.8930 N.2   1000  ANP1000    -0.2095
     25  C5        57.7900  117.9310   45.9670 C.2   1000  ANP1000     0.2526
     26  C6        57.3660  117.9690   44.5550 C.2   1000  ANP1000     0.4393
     27  N6        57.0590  116.8270   43.8920 N.pl3 1000  ANP1000     0.2180
     28  N1        57.2940  119.1830   43.9540 N.2   1000  ANP1000     0.0021
     29  C2        57.5860  120.3310   44.5950 C.3   1000  ANP1000     0.5254
     30  N3        57.9730  120.3680   45.8830 N.2   1000  ANP1000    -0.0055
     31  C4        58.0950  119.2210   46.6060 C.2   1000  ANP1000     0.3518
@<TRIPOS>BOND
     1    27    26    1
     2    28    26    2
     3    28    29    1
     4    26    25    1
     5    29    30    1
     6    30    31    2
     7    25    31    1
     8    25    24    2
     9    31    22    1
    10    24    23    1
    11    22    23    1
    12    22    21    1
    13    21    19    1
    14    21    16    1
    15    19    20    1
    16    19    17    1
    17    16    15    1
    18    17    15    1
    19    17    18    1
    20    15    14    1
    21    13    14    1
    22    13     9    1
    23    11     9    2
    24     6     5    2
    25     9    10    1
    26     9    12    1
    27     5     7    1
    28     5    12    1
    29     5     8    1
    30     4     1    2
    31     8     1    1
    32     1     3    1
    33     1     2    1
