@<TRIPOS>MOLECULE
3crt_GSH_A_1.pdb
 20 19 0 0 0
SMALL
GASTEIGER

@<TRIPOS>ATOM
      1  N1        26.2650   33.7630    4.4890 N.3   215  GSH215     -0.1159
      2  CA1       26.0200   34.1780    5.8780 C.3   215  GSH215      0.2164
      3  C1        27.3290   34.0710    6.6630 C.2   215  GSH215      0.3860
      4  O11       27.3850   34.6740    7.7580 O.co2 215  GSH215     -0.2437
      5  O12       28.2450   33.3960    6.1460 O.co2 215  GSH215     -0.2437
      6  CB1       24.9540   33.2740    6.5020 C.2   215  GSH215      0.0085
      7  CG1       24.5920   33.4240    7.8360 C.2   215  GSH215      0.0569
      8  CD1       23.6190   32.6050    8.4000 C.2   215  GSH215      0.2648
      9  OE1       22.9720   31.8640    7.6600 O.2   215  GSH215     -0.2684
     10  N2        23.4210   32.6670    9.7150 N.am  215  GSH215     -0.1983
     11  CA2       22.4250   31.8460   10.4210 C.3   215  GSH215      0.1544
     12  C2        21.5340   32.7460   11.2780 C.3   215  GSH215      0.2469
     13  O2        20.5710   31.9410   11.9620 O.3   215  GSH215     -0.2017
     14  CB2       23.1260   30.8510   11.3490 C.3   215  GSH215      0.0944
     15  SG2       24.2530   29.6810   10.5080 S.3   215  GSH215     -0.0801
     16  N3        20.8310   33.7400   10.4560 N.3   215  GSH215     -0.1758
     17  CA3       20.0020   34.5590   11.3520 C.3   215  GSH215      0.2050
     18  C3        18.9620   35.3170   10.5260 C.2   215  GSH215      0.3823
     19  O31       18.2730   36.1740   11.1210 O.co2 215  GSH215     -0.2440
     20  O32       18.8810   35.0150    9.3160 O.co2 215  GSH215     -0.2440
@<TRIPOS>BOND
     1     1     2    1
     2     2     6    1
     3     2     3    1
     4     5     3   ar
     5     6     7    2
     6     3     4   ar
     7     9     8    2
     8     7     8    1
     9     8    10   am
    10    20    18   ar
    11    10    11    1
    12    11    12    1
    13    11    14    1
    14    16    12    1
    15    16    17    1
    16    15    14    1
    17    18    19   ar
    18    18    17    1
    19    12    13    1
