@<TRIPOS>MOLECULE
3cru_GSH_A_1.pdb
 20 19 0 0 0
SMALL
GASTEIGER

@<TRIPOS>ATOM
      1  N1        26.7890   34.2070    4.5110 N.3   215  GSH215     -0.1159
      2  CA1       26.5800   34.6760    5.8880 C.3   215  GSH215      0.2164
      3  C1        27.9290   34.6860    6.6120 C.2   215  GSH215      0.3860
      4  O11       27.9630   35.1790    7.7600 O.co2 215  GSH215     -0.2437
      5  O12       28.9060   34.2220    5.9850 O.co2 215  GSH215     -0.2437
      6  CB1       25.5660   33.7590    6.5780 C.2   215  GSH215      0.0085
      7  CG1       25.2120   33.9220    7.9130 C.2   215  GSH215      0.0569
      8  CD1       24.2780   33.0680    8.4910 C.2   215  GSH215      0.2648
      9  OE1       23.5860   32.3710    7.7490 O.2   215  GSH215     -0.2684
     10  N2        24.1610   33.0420    9.8170 N.am  215  GSH215     -0.1983
     11  CA2       23.1980   32.1780   10.5160 C.3   215  GSH215      0.1544
     12  C2        22.2700   33.0630   11.3510 C.3   215  GSH215      0.2469
     13  O2        21.2540   32.2550   11.9510 O.3   215  GSH215     -0.2017
     14  CB2       23.9360   31.2280   11.4640 C.3   215  GSH215      0.0944
     15  SG2       25.1980   30.1740   10.6620 S.3   215  GSH215     -0.0801
     16  N3        21.6250   34.0890   10.5210 N.3   215  GSH215     -0.1758
     17  CA3       20.8570   34.9680   11.4150 C.3   215  GSH215      0.2050
     18  C3        19.7980   35.7210   10.6090 C.2   215  GSH215      0.3823
     19  O31       18.9890   36.4250   11.2510 O.co2 215  GSH215     -0.2440
     20  O32       19.8150   35.5630    9.3690 O.co2 215  GSH215     -0.2440
@<TRIPOS>BOND
     1     1     2    1
     2     2     6    1
     3     2     3    1
     4     5     3   ar
     5     6     7    2
     6     3     4   ar
     7     9     8    2
     8     7     8    1
     9     8    10   am
    10    20    18   ar
    11    10    11    1
    12    11    12    1
    13    11    14    1
    14    16    12    1
    15    16    17    1
    16    18    19   ar
    17    18    17    1
    18    15    14    1
    19    12    13    1
