@<TRIPOS>MOLECULE
3crw_FC6_1_1.pdb
 13 12 0 0 0
SMALL
GASTEIGER

@<TRIPOS>ATOM
      1  N24       -3.3280   44.8740   38.8130 N.1   701  FC6701      0.0000
      2  C24       -2.7750   44.5490   37.8740 C.1   701  FC6701      0.0000
      3 FE2        -1.8190   44.0120   36.2760 Fe    701  FC6701      0.0000
      4  C21       -1.1100   43.2970   34.5970 C.1   701  FC6701      0.0000
      5  N25       -0.6960   42.8850   33.6250 N.1   701  FC6701      0.0000
      6  C22       -0.1770   44.4820   37.1330 C.1   701  FC6701      0.0000
      7  N22        0.8050   44.7660   37.6390 N.1   701  FC6701      0.0000
      8  C26       -3.5330   43.4150   35.6060 C.1   701  FC6701      0.0000
      9  N21       -4.5270   43.0340   35.2190 N.1   701  FC6701      0.0000
     10  C23       -1.7540   42.2280   37.0530 C.1   701  FC6701      0.0000
     11  N23       -1.7290   41.1750   37.5040 N.1   701  FC6701      0.0000
     12  C11       -2.2040   45.7480   35.4810 C.1   701  FC6701      0.0000
     13  N11       -2.4120   46.7670   35.0310 N.1   701  FC6701      0.0000
@<TRIPOS>BOND
     1     5     4    3
     2     4     3    1
     3    13    12    3
     4     9     8    3
     5    12     3    1
     6     8     3    1
     7     3    10    1
     8     3     6    1
     9     3     2    1
    10    10    11    3
    11     6     7    3
    12     2     1    3
