@<TRIPOS>MOLECULE
3crz_NAP_A_1.pdb
 48 52 0 0 0
SMALL
GASTEIGER

@<TRIPOS>ATOM
      1  PA       115.8700   27.6690   14.3270 P.3   305  NAP305      0.2189
      2  O1A      115.9820   28.8660   14.8730 O.3   305  NAP305     -0.4371
      3  O2A      115.0860   27.8060   13.2600 O.2   305  NAP305     -0.5170
      4  O5B      115.3930   26.5020   15.3560 O.3   305  NAP305     -0.3112
      5  C5B      115.0200   25.3410   14.5680 C.3   305  NAP305      0.1813
      6  C4B      113.7690   24.7890   15.2670 C.3   305  NAP305      0.1820
      7  O4B      114.0540   24.8630   16.6840 O.3   305  NAP305     -0.3136
      8  C3B      112.5750   25.7170   14.9760 C.3   305  NAP305      0.2157
      9  O3B      111.5080   24.8470   14.5500 O.3   305  NAP305     -0.2175
     10  C2B      112.3020   26.3850   16.3380 C.3   305  NAP305      0.2314
     11  O2B      110.9390   26.8010   16.5710 O.3   305  NAP305     -0.2630
     12  C1B      112.8320   25.2890   17.2960 C.3   305  NAP305      0.3158
     13  N9A      113.0750   25.8290   18.6170 N.pl3 305  NAP305     -0.1439
     14  C8A      113.6410   27.0480   18.9580 C.3   305  NAP305      0.3377
     15  N7A      113.6750   27.1720   20.2370 N.2   305  NAP305     -0.2095
     16  C5A      113.1450   26.0670   20.7970 C.2   305  NAP305      0.2526
     17  C6A      112.9030   25.6210   22.1210 C.2   305  NAP305      0.4393
     18  N6A      113.2440   26.4070   23.1810 N.pl3 305  NAP305      0.2180
     19  N1A      112.3240   24.3900   22.3120 N.2   305  NAP305      0.0021
     20  C2A      111.9760   23.5840   21.2730 C.3   305  NAP305      0.5254
     21  N3A      112.1840   23.9660   20.0160 N.2   305  NAP305     -0.0055
     22  C4A      112.7590   25.1900   19.7420 C.2   305  NAP305      0.3518
     23  O3       117.3690   27.2190   13.6890 O.3   305  NAP305     -0.2703
     24  PN       118.4210   27.0310   14.6900 P.3   305  NAP305      0.2189
     25  O1N      119.5890   26.2750   14.0650 O.2   305  NAP305     -0.5170
     26  O2N      118.2340   26.0920   15.9330 O.3   305  NAP305     -0.4371
     27  O5D      119.1010   28.5010   15.0720 O.3   305  NAP305     -0.3112
     28  C5D      119.1570   29.2320   13.6510 C.3   305  NAP305      0.1813
     29  C4D      119.7690   30.5280   14.2590 C.3   305  NAP305      0.1799
     30  O4D      118.8080   31.2620   15.1100 O.3   305  NAP305     -0.3327
     31  C3D      121.0230   30.2670   15.1180 C.3   305  NAP305      0.2158
     32  O3D      122.1940   30.3260   14.3120 O.3   305  NAP305     -0.2175
     33  C2D      120.9300   31.3500   16.2090 C.3   305  NAP305      0.2309
     34  O2D      121.5330   32.5790   15.7850 O.3   305  NAP305     -0.2158
     35  C1D      119.4050   31.5140   16.4320 C.3   305  NAP305      0.2263
     36  N1N      118.8710   30.5770   17.5230 N.pl3 305  NAP305     -0.2787
     37  C2N      119.5420   30.5120   18.7280 C.3   305  NAP305      0.1244
     38  C3N      119.0810   29.6690   19.7820 C.2   305  NAP305      0.0544
     39  C7N      119.8020   29.5890   21.0840 C.2   305  NAP305      0.2818
     40  O7N      119.3970   28.8670   21.9550 O.2   305  NAP305     -0.2670
     41  N7N      120.9140   30.3110   21.3150 N.am  305  NAP305     -0.0839
     42  C4N      117.8800   28.8860   19.5380 C.2   305  NAP305      0.0033
     43  C5N      117.2050   28.9620   18.2950 C.2   305  NAP305      0.0157
     44  C6N      117.7340   29.8310   17.2970 C.2   305  NAP305      0.0633
     45  P2B      110.6300   28.3910   16.2320 P.3   305  NAP305      0.5328
     46  O1X      110.4420   28.5230   14.7990 O.2   305  NAP305     -0.2224
     47  O2X      109.3490   28.7360   17.0350 O.3   305  NAP305     -0.1145
     48  O3X      111.7990   29.3610   16.7050 O.3   305  NAP305     -0.1145
@<TRIPOS>BOND
     1     3     1    2
     2    28    29    1
     3    28    27    1
     4    23     1    1
     5    23    24    1
     6    25    24    2
     7    29    30    1
     8    29    31    1
     9    32    31    1
    10     1     2    1
    11     1     4    1
    12     9     8    1
    13     5     6    1
    14     5     4    1
    15    24    27    1
    16    24    26    1
    17    46    45    2
    18     8     6    1
    19     8    10    1
    20    30    35    1
    21    31    33    1
    22     6     7    1
    23    34    33    1
    24    33    35    1
    25    45    11    1
    26    45    48    1
    27    45    47    1
    28    10    11    1
    29    10    12    1
    30    35    36    1
    31     7    12    1
    32    12    13    1
    33    44    36    1
    34    44    43    2
    35    36    37    1
    36    43    42    1
    37    13    14    1
    38    13    22    1
    39    37    38    1
    40    14    15    1
    41    42    38    2
    42    22    21    2
    43    22    16    1
    44    38    39    1
    45    21    20    1
    46    15    16    2
    47    16    17    1
    48    39    41   am
    49    39    40    2
    50    20    19    1
    51    17    19    2
    52    17    18    1
