@<TRIPOS>MOLECULE
3cs0_III_B_1.pdb
 26 25 0 0 0
SMALL
GASTEIGER

@<TRIPOS>ATOM
      1  N         59.8140   13.7840   31.7670 N.3   503  UNK503     -0.1231
      2  CA        60.6660   13.6640   30.5840 C.3   503  UNK503      0.1694
      3  C         61.9760   14.4220   30.7850 C.2   503  UNK503      0.2592
      4  O         62.0450   15.3630   31.5810 O.2   503  UNK503     -0.2718
      5  CB        59.9350   14.1990   29.3370 C.3   503  UNK503      0.0304
      6  N         63.0130   14.0040   30.0650 N.am  504  UNK504     -0.1966
      7  CA        64.3130   14.6500   30.1630 C.3   504  UNK504      0.1728
      8  C         64.3020   15.9170   29.3050 C.2   504  UNK504      0.2616
      9  O         63.5560   16.0090   28.3310 O.2   504  UNK504     -0.2715
     10  CB        65.4030   13.6960   29.6980 C.3   504  UNK504      0.0334
     11  N         65.1170   16.8960   29.6870 N.am  505  UNK505     -0.1963
     12  CA        65.2140   18.1580   28.9640 C.3   505  UNK505      0.1728
     13  C         66.6990   18.4920   28.8320 C.2   505  UNK505      0.2616
     14  O         67.5120   18.0160   29.6180 O.2   505  UNK505     -0.2715
     15  CB        64.4750   19.2530   29.7260 C.3   505  UNK505      0.0334
     16  N         67.0510   19.3000   27.8370 N.am  506  UNK506     -0.1963
     17  CA        68.4470   19.6680   27.5960 C.3   506  UNK506      0.1728
     18  C         68.7080   21.1380   27.8820 C.2   506  UNK506      0.2617
     19  O         67.8930   21.9980   27.5510 O.2   506  UNK506     -0.2715
     20  CB        68.8450   19.3370   26.1300 C.3   506  UNK506      0.0334
     21  N         69.8510   21.4230   28.4940 N.am  507  UNK507     -0.1942
     22  CA        70.2190   22.7920   28.8070 C.3   507  UNK507      0.1979
     23  C         71.7280   22.9740   28.7010 C.2   507  UNK507      0.3842
     24  O         72.2970   23.5670   29.6450 O.co2 507  UNK507     -0.2437
     25  CB        69.7540   23.1530   30.2030 C.3   507  UNK507      0.0356
     26  OXT       72.3180   22.5380   27.6820 O.co2 507  UNK507     -0.2437
@<TRIPOS>BOND
     1    20    17    1
     2    19    18    2
     3    17    16    1
     4    17    18    1
     5    26    23   ar
     6    16    13   am
     7    18    21   am
     8     9     8    2
     9    21    22    1
    10    23    22    1
    11    23    24   ar
    12    22    25    1
    13    13    12    1
    14    13    14    2
    15    12    11    1
    16    12    15    1
    17     8    11   am
    18     8     7    1
    19     5     2    1
    20    10     7    1
    21     6     7    1
    22     6     3   am
    23     2     3    1
    24     2     1    1
    25     3     4    2
