@<TRIPOS>MOLECULE
3cs4_COV_A_1.pdb
 32 35 0 0 0
SMALL
GASTEIGER

@<TRIPOS>ATOM
      1  C1        14.1320   17.3850   35.6280 C.3     1  COV1        0.1765
      2  C20        9.8990   26.1130   34.5040 C.3     1  COV1        0.0928
      3  C2        14.8360   16.3110   34.7460 C.3     1  COV1        0.0707
      4  C25        4.9540   25.2460   33.8330 C.3     1  COV1        0.1269
      5  C26        4.7530   25.7770   32.4180 C.3     1  COV1        0.0329
      6  C27        3.9180   24.1470   34.1130 C.3     1  COV1        0.0329
      7  C3        15.9080   16.9350   33.8050 C.3     1  COV1        0.1592
      8  C4        15.3370   18.1000   32.9360 C.3     1  COV1        0.0591
      9  C5        14.5260   19.1220   33.7560 C.2     1  COV1       -0.0213
     10  C6        14.7650   20.4510   33.5240 C.2     1  COV1       -0.0051
     11  C7        14.1270   21.6150   34.1710 C.2     1  COV1       -0.0088
     12  C8        13.8550   22.8000   33.5880 C.2     1  COV1       -0.0446
     13  C9        14.1750   23.1450   32.1100 C.3     1  COV1        0.0220
     14  C10       13.5340   18.5120   34.7530 C.2     1  COV1        0.0039
     15  C11       12.8950   23.6270   31.3340 C.3     1  COV1        0.0044
     16  C12       12.0430   24.6710   32.1460 C.3     1  COV1        0.0007
     17  C13       11.7520   24.2950   33.6730 C.3     1  COV1        0.0056
     18  C14       13.1690   23.9650   34.3220 C.3     1  COV1        0.0184
     19  C15       12.8110   23.8340   35.8650 C.3     1  COV1        0.0041
     20  C16       11.6080   24.8140   36.0540 C.3     1  COV1        0.0027
     21  C17       11.3650   25.4430   34.6490 C.3     1  COV1        0.0253
     22  C18       10.7550   23.0340   33.6710 C.3     1  COV1        0.0004
     23  C19       12.2170   18.8910   34.8650 C.2     1  COV1       -0.0024
     24  O3        16.9860   17.4500   34.6100 O.3     1  COV1       -0.2227
     25  C21        9.9110   27.4890   35.2220 C.3     1  COV1        0.0296
     26  C22        8.6770   25.3350   35.0920 C.3     1  COV1        0.0298
     27  C23        7.5520   25.7110   34.0960 C.3     1  COV1        0.0344
     28  C24        6.3790   24.7110   34.1080 C.3     1  COV1        0.0330
     29  C28        8.3350   25.7700   32.7930 C.3     1  COV1        0.1420
     30  O1        13.1030   16.7490   36.3830 O.3     1  COV1       -0.2182
     31  O21        9.5940   26.3330   33.1200 O.3     1  COV1       -0.3585
     32  O25        4.6770   26.3300   34.7360 O.3     1  COV1       -0.2257
@<TRIPOS>BOND
     1    15    13    1
     2    15    16    1
     3    13    12    1
     4    16    17    1
     5     5     4    1
     6    29    31    1
     7    29    27    1
     8     8     9    1
     9     8     7    1
    10    31     2    1
    11    10     9    2
    12    10    11    1
    13    12    11    2
    14    12    18    1
    15    22    17    1
    16    17    18    1
    17    17    21    1
    18     9    14    1
    19     7    24    1
    20     7     3    1
    21     4    28    1
    22     4     6    1
    23     4    32    1
    24    27    28    1
    25    27    26    1
    26    18    19    1
    27     2    21    1
    28     2    26    1
    29     2    25    1
    30    21    20    1
    31     3     1    1
    32    14    23    2
    33    14     1    1
    34     1    30    1
    35    19    20    1
