@<TRIPOS>MOLECULE
3cs6_0CO_A_1.pdb
 32 35 0 0 0
SMALL
GASTEIGER

@<TRIPOS>ATOM
      1  C5        14.6110   19.1320   33.6430 C.2     1  0CO1       -0.0396
      2  C4        15.4090   18.0850   32.8410 C.3     1  0CO1        0.0550
      3  C3        16.0150   16.9640   33.7720 C.3     1  0CO1        0.1586
      4  C2        14.9520   16.3550   34.7500 C.3     1  0CO1        0.0664
      5  C1        14.2030   17.4610   35.5690 C.3     1  0CO1        0.1582
      6  C10       13.6290   18.5660   34.6670 C.3     1  0CO1        0.0489
      7  C6        14.8490   20.4530   33.3860 C.2     1  0CO1       -0.0090
      8  C7        14.2290   21.6260   34.0130 C.2     1  0CO1       -0.0091
      9  C8        13.9740   22.7920   33.4260 C.2     1  0CO1       -0.0446
     10  C14       13.3030   23.9670   34.1500 C.3     1  0CO1        0.0184
     11  C13       11.8790   24.2740   33.5070 C.3     1  0CO1        0.0056
     12  C12       12.1670   24.6050   31.9620 C.3     1  0CO1        0.0007
     13  C11       13.0030   23.5370   31.1730 C.3     1  0CO1        0.0044
     14  C9        14.3010   23.1100   31.9400 C.3     1  0CO1        0.0220
     15  C15       12.9490   23.8640   35.6990 C.3     1  0CO1        0.0041
     16  C16       11.7560   24.8670   35.8790 C.3     1  0CO1        0.0027
     17  C17       11.4840   25.4570   34.4650 C.3     1  0CO1        0.0253
     18  C19       12.3080   18.9880   34.7820 C.3     1  0CO1        0.0070
     19  O3        17.0900   17.5420   34.5530 O.3     1  0CO1       -0.2227
     20  O1        13.1380   16.8630   36.3060 O.3     1  0CO1       -0.2227
     21  C20       10.0090   26.0690   34.3220 C.3     1  0CO1        0.0928
     22  C22        8.8390   25.2670   34.9390 C.3     1  0CO1        0.0298
     23  C23        7.7350   25.2080   33.8650 C.3     1  0CO1        0.0344
     24  C28        8.3650   25.9630   32.6790 C.3     1  0CO1        0.1420
     25  O21        9.7120   26.2170   32.9210 O.3     1  0CO1       -0.3585
     26  C24        6.5070   25.8970   34.4620 C.3     1  0CO1        0.0330
     27  C25        5.1110   25.5890   33.8690 C.3     1  0CO1        0.1269
     28  C26        4.9140   25.9810   32.3930 C.3     1  0CO1        0.0329
     29  O25        4.1920   26.3400   34.6760 O.3     1  0CO1       -0.2257
     30  C27        4.7200   24.1230   34.0590 C.3     1  0CO1        0.0329
     31  C18       10.8830   23.0160   33.5440 C.3     1  0CO1        0.0004
     32  C21        9.9800   27.4830   34.9890 C.3     1  0CO1        0.0296
@<TRIPOS>BOND
     1    13    14    1
     2    13    12    1
     3    14     9    1
     4    12    11    1
     5    28    27    1
     6    24    25    1
     7    24    23    1
     8     2     1    1
     9     2     3    1
    10    25    21    1
    11     7     1    2
    12     7     8    1
    13     9     8    2
    14     9    10    1
    15    11    31    1
    16    11    10    1
    17    11    17    1
    18     1     6    1
    19     3    19    1
    20     3     4    1
    21    23    26    1
    22    23    22    1
    23    27    30    1
    24    27    26    1
    25    27    29    1
    26    10    15    1
    27    21    17    1
    28    21    22    1
    29    21    32    1
    30    17    16    1
    31     6    18    1
    32     6     5    1
    33     4     5    1
    34     5    20    1
    35    15    16    1
