@<TRIPOS>MOLECULE
3cs7_LG0_A_1.pdb
 37 42 0 0 0
SMALL
GASTEIGER

@<TRIPOS>ATOM
      1  C13        6.4920   44.2950   62.9000 C.ar  298  LG0298      0.1339
      2  C18        7.1780   39.4260   59.5710 C.ar  298  LG0298     -0.0030
      3  C17        8.3690   38.9470   57.4150 C.3   298  LG0298      0.0336
      4  C16        7.8340   39.9650   58.3920 C.ar  298  LG0298     -0.0214
      5  C15       13.0020   44.0880   66.6190 C.3   298  LG0298      0.2525
      6  C19        4.2110   43.9350   61.9200 C.3   298  LG0298      0.0514
      7  C20        4.7900   42.5740   61.5530 C.3   298  LG0298      0.1033
      8  C21        9.7640   39.0120   56.8020 C.3   298  LG0298      0.0058
      9  C22        6.6150   40.3540   60.5070 C.ar  298  LG0298      0.0146
     10  C23        7.5080   38.0970   56.5170 C.3   298  LG0298      0.0761
     11  C11        3.4680   45.8870   64.4670 C.3   298  LG0298      0.4362
     12  C12        5.1180   44.5310   62.9530 C.ar  298  LG0298      0.0251
     13  C27        6.6720   39.5550   54.7150 C.3   298  LG0298      0.0721
     14  C1        11.0820   44.9150   65.3080 C.ar  298  LG0298      0.1388
     15  C2        10.6740   45.9540   64.3480 C.ar  298  LG0298      0.0384
     16  C3         9.2930   46.0160   63.8930 C.ar  298  LG0298      0.0223
     17  C4         8.3470   45.0200   64.4120 C.ar  298  LG0298      0.0831
     18  C5         8.7300   44.0190   65.4220 C.ar  298  LG0298      0.0223
     19  C6        10.1110   43.9590   65.8760 C.ar  298  LG0298      0.0384
     20  N1         7.0350   44.9820   63.9550 N.ar  298  LG0298     -0.2256
     21  N6         6.0170   45.6140   64.6260 N.ar  298  LG0298     -0.1613
     22  N5         6.2350   42.6430   61.2020 N.am  298  LG0298     -0.2536
     23  C7         6.7340   41.7890   60.2370 C.ar  298  LG0298      0.0541
     24  C44        7.3940   42.3360   59.0430 C.ar  298  LG0298      0.0146
     25  C14        7.9720   41.3910   58.1000 C.ar  298  LG0298     -0.0030
     26  C8         7.0840   43.4520   61.9430 C.2   298  LG0298      0.2702
     27  C10        4.8430   45.3660   64.0480 C.ar  298  LG0298      0.1702
     28  O3         8.3040   43.4460   61.8020 O.2   298  LG0298     -0.2679
     29  F1         3.5990   46.9260   65.3180 F     298  LG0298     -0.1644
     30  F2         2.8140   46.2820   63.3860 F     298  LG0298     -0.1644
     31  F3         2.8480   44.8800   65.0790 F     298  LG0298     -0.1644
     32  O1        12.4400   44.9310   65.6230 O.3   298  LG0298     -0.4714
     33  C9         9.4960   38.0090   57.8790 C.3   298  LG0298      0.0058
     34  N2         6.3770   38.8800   55.9970 N.3   298  LG0298     -0.2724
     35  C25        5.1690   38.0440   55.7360 C.3   298  LG0298      0.0721
     36  C29        5.0260   38.0480   54.2250 C.3   298  LG0298      0.0188
     37  C30        5.3410   39.5120   53.9820 C.3   298  LG0298      0.0188
@<TRIPOS>BOND
     1    37    36    1
     2    37    13    1
     3    36    35    1
     4    13    34    1
     5    35    34    1
     6    34    10    1
     7    10     3    1
     8     8     3    1
     9     8    33    1
    10     3    33    1
    11     3     4    1
    12    25     4   ar
    13    25    24   ar
    14     4     2   ar
    15    24    23   ar
    16     2     9   ar
    17    23     9   ar
    18    23    22    1
    19    22     7    1
    20    22    26   am
    21     7     6    1
    22    28    26    2
    23     6    12    1
    24    26     1    1
    25     1    12   ar
    26     1    20   ar
    27    12    27   ar
    28    30    11    1
    29    16    15   ar
    30    16    17   ar
    31    20    17    1
    32    20    21   ar
    33    27    11    1
    34    27    21   ar
    35    15    14   ar
    36    17    18   ar
    37    11    31    1
    38    11    29    1
    39    14    32    1
    40    14    19   ar
    41    18    19   ar
    42    32     5    1
