@<TRIPOS>MOLECULE
3cs8_BRL_A_1.pdb
 25 27 0 0 0
SMALL
GASTEIGER

@<TRIPOS>ATOM
      1  S1        27.1860   -2.3790   27.3990 S.3   503  BRL503      0.0093
      2  O2        27.2690   -4.4720   28.7180 O.2   503  BRL503     -0.2017
      3  O4        28.3630   -4.4260   24.3720 O.2   503  BRL503     -0.2125
      4  O13       25.9760    3.5400   26.0780 O.3   503  BRL503     -0.4736
      5  N3        28.2040   -4.5810   26.6430 N.2   503  BRL503     -0.2557
      6  N16       23.3190    4.2910   28.4950 N.pl3 503  BRL503     -0.2879
      7  N18       21.0740    3.7510   27.8120 N.ar  503  BRL503     -0.2292
      8  C2        27.5790   -3.9650   27.6500 C.1   503  BRL503      0.2450
      9  C4        28.0350   -3.9820   25.4700 C.1   503  BRL503      0.2022
     10  C5        27.3410   -2.6660   25.6400 C.3   503  BRL503      0.1865
     11  C6        28.0670   -1.5840   24.8320 C.3   503  BRL503      0.0562
     12  C7        27.4960   -0.2200   25.1440 C.ar  503  BRL503     -0.0199
     13  C8        26.1480    0.0710   24.8890 C.ar  503  BRL503     -0.0011
     14  C9        25.6220    1.3290   25.1970 C.ar  503  BRL503      0.0366
     15  C10       26.4660    2.2960   25.7600 C.ar  503  BRL503      0.1386
     16  C11       27.8120    1.9950   26.0010 C.ar  503  BRL503      0.0366
     17  C12       28.3330    0.7390   25.7020 C.ar  503  BRL503     -0.0011
     18  C14       25.3830    3.7430   27.3630 C.3   503  BRL503      0.2267
     19  C15       23.8670    3.8710   27.2060 C.3   503  BRL503      0.1396
     20  C16       24.1310    5.0860   29.4190 C.3   503  BRL503      0.1137
     21  C17       21.9820    3.9550   28.8130 C.ar  503  BRL503      0.1318
     22  C19       19.7820    3.4410   28.0450 C.ar  503  BRL503      0.1003
     23  C20       19.3210    3.3100   29.3510 C.ar  503  BRL503      0.0208
     24  C21       20.2220    3.5120   30.4010 C.ar  503  BRL503      0.0045
     25  C22       21.5570    3.8380   30.1400 C.ar  503  BRL503      0.0343
@<TRIPOS>BOND
     1     3     9    2
     2    11    12    1
     3    11    10    1
     4    13    12   ar
     5    13    14   ar
     6    12    17   ar
     7    14    15   ar
     8     9    10    1
     9     9     5    2
    10    10     1    1
    11    17    16   ar
    12    15    16   ar
    13    15     4    1
    14     4    18    1
    15     5     8    2
    16    19    18    1
    17    19     6    1
    18     1     8    1
    19     8     2    2
    20     7    22   ar
    21     7    21   ar
    22    22    23   ar
    23     6    21    1
    24     6    20    1
    25    21    25   ar
    26    23    24   ar
    27    25    24   ar
