@<TRIPOS>MOLECULE
3cs9_NIL_A_1.pdb
 39 43 0 0 0
SMALL
GASTEIGER

@<TRIPOS>ATOM
      1  O17       27.4370    2.8950   51.2430 O.2   600  NIL600     -0.2680
      2  C16       27.1160    2.6680   52.3840 C.2   600  NIL600      0.2690
      3  N14       26.0130    3.0980   53.0150 N.am  600  NIL600     -0.1754
      4  C11       25.1140    4.0420   52.5350 C.ar  600  NIL600      0.0749
      5  C9        24.3180    4.8060   53.4240 C.ar  600  NIL600      0.0312
      6  C8        23.4180    5.7650   52.9510 C.ar  600  NIL600      0.0507
      7  N51       22.6560    6.5560   53.8240 N.pl3 600  NIL600     -0.2819
      8  C56       22.3140    6.3130   55.1530 C.3   600  NIL600      0.1337
      9  C55       21.4970    7.3060   55.5670 C.2   600  NIL600      0.0539
     10  C58       20.8800    7.4930   56.9320 C.3   600  NIL600      0.0487
     11  N54       21.3460    8.1740   54.5420 N.2   600  NIL600     -0.2549
     12  C52       22.0110    7.6890   53.5220 C.3   600  NIL600      0.2194
     13  C6        23.2420    5.9220   51.5800 C.ar  600  NIL600      0.0185
     14  C12       24.8860    4.1760   51.1480 C.ar  600  NIL600      0.0205
     15  C5        23.9850    5.1690   50.6680 C.ar  600  NIL600      0.0739
     16  C2        23.8080    5.3300   49.1930 C.3   600  NIL600      0.4187
     17  F4        23.7250    4.1770   48.5000 F     600  NIL600     -0.1659
     18  F3        22.6440    5.9040   48.9120 F     600  NIL600     -0.1659
     19  F1        24.8490    5.9670   48.6180 F     600  NIL600     -0.1659
     20  C18       27.8680    1.5870   53.0510 C.ar  600  NIL600      0.0567
     21  C25       27.5140    1.0020   54.2760 C.ar  600  NIL600      0.0043
     22  C23       28.2050   -0.1000   54.7820 C.ar  600  NIL600     -0.0028
     23  C22       29.2140   -0.7110   54.0550 C.ar  600  NIL600     -0.0058
     24  C27       29.9540   -1.9170   54.6160 C.3   600  NIL600      0.0324
     25  C21       29.5010   -0.1980   52.7910 C.ar  600  NIL600      0.0787
     26  C19       28.8130    0.9240   52.3120 C.ar  600  NIL600      0.0216
     27  N31       30.6200   -0.6930   52.1090 N.pl3 600  NIL600     -0.1361
     28  C33       31.8450   -0.0340   52.2300 C.1   600  NIL600      0.1696
     29  N40       32.1570    1.0110   52.9860 N.2   600  NIL600     -0.1683
     30  C38       33.4140    1.4820   52.8790 C.2   600  NIL600      0.1144
     31  C36       34.3070    0.9710   52.0170 C.2   600  NIL600      0.0546
     32  C35       33.9360   -0.0810   51.2560 C.2   600  NIL600      0.1472
     33  N34       32.7080   -0.6040   51.3500 N.2   600  NIL600     -0.3361
     34  C41       34.8530   -0.7620   50.3050 C.ar  600  NIL600      0.0497
     35  C49       36.1840   -0.3460   50.1410 C.ar  600  NIL600      0.0057
     36  C47       36.9880   -1.0040   49.2190 C.ar  600  NIL600      0.0208
     37  C45       36.4440   -2.0750   48.5110 C.ar  600  NIL600      0.0989
     38  N44       35.1680   -2.4770   48.6290 N.ar  600  NIL600     -0.2422
     39  C42       34.4000   -1.8440   49.5250 C.ar  600  NIL600      0.1014
@<TRIPOS>BOND
     1    17    16    1
     2    37    38   ar
     3    37    36   ar
     4    19    16    1
     5    38    39   ar
     6    18    16    1
     7    16    15    1
     8    36    35   ar
     9    39    34   ar
    10    35    34   ar
    11    34    32    1
    12    15    14   ar
    13    15    13   ar
    14    14     4   ar
    15     1     2    2
    16    32    33    2
    17    32    31    1
    18    33    28    2
    19    13     6   ar
    20    31    30    2
    21    27    28    1
    22    27    25    1
    23    28    29    2
    24    26    25   ar
    25    26    20   ar
    26     2     3   am
    27     2    20    1
    28     4     3    1
    29     4     5   ar
    30    25    23   ar
    31    30    29    1
    32     6     5   ar
    33     6     7    1
    34    20    21   ar
    35    12     7    1
    36    12    11    1
    37     7     8    1
    38    23    24    1
    39    23    22   ar
    40    21    22   ar
    41    11     9    2
    42     8     9    1
    43     9    10    1
