@<TRIPOS>MOLECULE
3cse_N22_A_1.pdb
 23 24 0 0 0
SMALL
GASTEIGER

@<TRIPOS>ATOM
      1  C8        14.9440   -7.6080   -5.8030 C.3   229  N22229      0.0076
      2  C7        14.2090   -8.7600   -5.3580 C.3   229  N22229      0.0569
      3  C5        15.0130   -9.0970   -4.0140 C.2   229  N22229      0.1203
      4  N4        15.8150  -10.1330   -4.0630 N.2   229  N22229     -0.3332
      5  C3        16.4460  -10.6790   -2.9570 C.1   229  N22229      0.2419
      6  N8        17.1750  -11.7430   -3.0690 N.pl3 229  N22229     -0.0232
      7  N2        16.3060   -9.9880   -1.8300 N.2   229  N22229     -0.3105
      8  C1        15.5540   -8.9180   -1.6510 C.2   229  N22229      0.2282
      9  N7        15.4930   -8.2310   -0.4580 N.pl3 229  N22229     -0.0955
     10  C6        14.8240   -8.3970   -2.7990 C.3   229  N22229      0.1831
     11  C9        13.9530   -7.3110   -2.6270 C.1   229  N22229     -0.0760
     12  C10       13.2110   -6.4400   -2.4800 C.1   229  N22229     -0.0853
     13  C11       12.2510   -5.3800   -2.3250 C.3   229  N22229      0.1054
     14  C13       11.4870   -5.0270   -3.6430 C.ar  229  N22229      0.0278
     15  C18       10.2660   -5.6600   -4.1010 C.ar  229  N22229      0.0366
     16  C17        9.8190   -5.1090   -5.4240 C.ar  229  N22229      0.1386
     17  O2         8.6400   -5.4570   -6.1320 O.3   229  N22229     -0.4714
     18  C4         7.8650   -6.4850   -5.5020 C.3   229  N22229      0.2525
     19  C16       10.5880   -4.1140   -5.9610 C.ar  229  N22229      0.0400
     20  C15       11.7690   -3.5160   -5.4800 C.ar  229  N22229      0.0397
     21  C14       12.2080   -4.0430   -4.2960 C.ar  229  N22229      0.1358
     22  O10       13.2460   -3.5740   -3.6720 O.3   229  N22229     -0.4717
     23  C2        14.1950   -2.4850   -4.1560 C.3   229  N22229      0.2525
@<TRIPOS>BOND
     1    17    18    1
     2    17    16    1
     3    19    20   ar
     4    19    16   ar
     5     1     2    1
     6    20    21   ar
     7    16    15   ar
     8     2     3    1
     9    21    22    1
    10    21    14   ar
    11    23    22    1
    12    15    14   ar
    13     4     3    2
    14     4     5    2
    15     3    10    1
    16    14    13    1
    17     6     5    1
    18     5     7    2
    19    10    11    1
    20    10     8    1
    21    11    12    3
    22    12    13    1
    23     7     8    2
    24     8     9    1
