@<TRIPOS>MOLECULE
3csf_DW2_A_1.pdb
 31 37 0 0 0
SMALL
GASTEIGER

@<TRIPOS>ATOM
      1  O11       48.0630   21.1860   30.8280 O.3     1  DW21        0.0000
      2  C10       48.2500   20.4670   31.6800 C.3     1  DW21        0.0000
      3 RU18       48.5350   19.1470   33.2220 Ru      1  DW21        0.0000
      4  C12       50.3650   19.9960   33.8660 C.3     1  DW21        0.0000
      5  C13       49.3080   20.6980   34.4460 C.2     1  DW21        0.0000
      6  C14       48.5910   19.8190   35.2390 C.2     1  DW21        0.0000
      7  C16       49.1980   18.5700   35.1570 C.2     1  DW21        0.0000
      8  C17       50.2930   18.6750   34.3110 C.2     1  DW21        0.0000
      9  N21       46.7220   18.3250   33.2080 N.pl3   1  DW21        0.0000
     10  C6        45.6060   18.6940   33.9110 C.2     1  DW21        0.0000
     11  C5        44.3860   17.9560   33.7470 C.2     1  DW21        0.0000
     12  C4        44.3300   16.8390   32.8430 C.2     1  DW21        0.0000
     13  N19       48.9670   17.6810   31.8740 N.ar    1  DW21        0.0000
     14  C23       49.9680   17.1270   31.0620 C.ar    1  DW21        0.0000
     15  C28       49.4270   16.0350   30.3790 C.ar    1  DW21        0.0000
     16  C27       50.2580   15.2880   29.4940 C.3     1  DW21        0.0000
     17  C26       51.6420   15.6430   29.3220 C.2     1  DW21        0.0000
     18  C25       52.1730   16.7580   30.0380 C.2     1  DW21        0.0000
     19  C24       51.3320   17.5070   30.9230 C.2     1  DW21        0.0000
     20  O15       52.3970   14.8960   28.4710 O.2     1  DW21        0.0000
     21  C29       48.0750   15.9040   30.7430 C.ar    1  DW21        0.0000
     22  C22       47.8670   16.9360   31.6580 C.ar    1  DW21        0.0000
     23  C7        46.6650   17.2390   32.3250 C.ar    1  DW21        0.0000
     24  C3        45.4950   16.4350   32.0950 C.ar    1  DW21        0.0000
     25  C30       46.9300   15.0970   30.4640 C.ar    1  DW21        0.0000
     26  C2        45.6640   15.3390   31.1340 C.ar    1  DW21        0.0000
     27  C31       46.7240   13.9870   29.6430 C.1     1  DW21        0.0000
     28  O8        47.5190   13.4520   28.9130 O.2     1  DW21        0.0000
     29  N20       45.4350   13.5680   29.7530 N.2     1  DW21        0.0000
     30  C1        44.7840   14.3700   30.6450 C.1     1  DW21        0.0000
     31  O9        43.6170   14.1820   30.9170 O.2     1  DW21        0.0000
@<TRIPOS>BOND
     1    20    17    1
     2    28    27    2
     3    17    16    1
     4    17    18    2
     5    16    15    1
     6    27    29    2
     7    27    25    1
     8    29    30    2
     9    18    19    1
    10    15    21   ar
    11    15    14   ar
    12    25    21   ar
    13    25    26   ar
    14    30    31    2
    15    30    26    1
    16    21    22   ar
    17     1     2    1
    18    19    14    2
    19    14    13   ar
    20    26    24   ar
    21    22    13   ar
    22    22    23   ar
    23     2     3    1
    24    13     3    1
    25    24    23   ar
    26    24    12    2
    27    23     9    1
    28    12    11    1
    29     9     3    1
    30     9    10    1
    31     3     4    1
    32    11    10    2
    33     4     8    1
    34     4     5    1
    35     8     7    2
    36     5     6    2
    37     7     6    1
