@<TRIPOS>MOLECULE
3csh_LZ6_A_1.pdb
 38 38 0 0 0
SMALL
GASTEIGER

@<TRIPOS>ATOM
      1  O37       15.8570    8.1850   25.3500 O.co2 212  LZ6212     -0.2441
      2  C35       15.4210    8.6020   24.2360 C.2   212  LZ6212      0.3819
      3  O36       15.8390    8.2580   23.0920 O.co2 212  LZ6212     -0.2441
      4  C34       14.3040    9.6330   24.2460 C.3   212  LZ6212      0.1948
      5  N38       14.3700   10.4340   23.0030 N.3   212  LZ6212     -0.1208
      6  C33       12.9420    8.9340   24.2980 C.3   212  LZ6212      0.0402
      7  C32       12.6790    8.1240   25.5710 C.3   212  LZ6212      0.0889
      8  C30       11.2060    7.7960   25.6350 C.2   212  LZ6212      0.2418
      9  O31       10.4840    8.0190   24.6640 O.2   212  LZ6212     -0.2733
     10  N29       10.7600    7.2750   26.7880 N.am  212  LZ6212     -0.1969
     11  C21        9.3090    7.0930   26.9890 C.3   212  LZ6212      0.1834
     12  C22        8.8810    7.3110   28.4180 C.2   212  LZ6212      0.2626
     13  O28        9.7400    7.5030   29.2530 O.2   212  LZ6212     -0.2714
     14  N23        7.5710    7.3060   28.6900 N.am  212  LZ6212     -0.1917
     15  C24        7.1140    7.7670   29.9860 C.3   212  LZ6212      0.2285
     16  C25        6.5060    9.1480   29.8540 C.2   212  LZ6212      0.3865
     17  O27        5.7910    9.5580   30.7950 O.co2 212  LZ6212     -0.2437
     18  O26        6.7480    9.8350   28.8290 O.co2 212  LZ6212     -0.2437
     19  C20        8.8700    5.7230   26.5090 C.3   212  LZ6212      0.0886
     20  S13        9.5290    4.4880   27.5890 S.3   212  LZ6212     -0.1361
     21  C12        8.9300    2.9090   27.0210 C.3   212  LZ6212      0.0790
     22  C11        7.3860    2.8660   26.9840 C.3   212  LZ6212      0.1024
     23  N7         6.8650    2.8010   28.3620 N.pl3 212  LZ6212     -0.3053
     24  C8         6.3710    4.0280   29.0130 C.3   212  LZ6212      0.1083
     25  C9         4.8880    4.2340   28.6940 C.3   212  LZ6212      0.1162
     26 CL10        4.2500    5.6300   29.6420 Cl    212  LZ6212     -0.1118
     27  C1         6.8310    1.5940   29.0870 C.ar  212  LZ6212      0.0479
     28  C6         6.1540    1.5460   30.3040 C.ar  212  LZ6212      0.0142
     29  C5         6.0990    0.3770   31.0520 C.ar  212  LZ6212     -0.0030
     30  C4         6.7300   -0.7780   30.6060 C.ar  212  LZ6212     -0.0221
     31  C3         7.4200   -0.7480   29.3950 C.ar  212  LZ6212     -0.0030
     32  C2         7.4730    0.4330   28.6440 C.ar  212  LZ6212      0.0142
     33  C14        6.6570   -2.0260   31.4580 C.3   212  LZ6212      0.0269
     34  C15        6.0730   -3.2080   30.6950 C.3   212  LZ6212      0.0165
     35  C16        4.5610   -3.2410   30.8590 C.3   212  LZ6212      0.1144
     36  C17        3.9370   -4.4160   30.1260 C.2   212  LZ6212      0.3649
     37  O18        4.6570   -5.1810   29.4340 O.co2 212  LZ6212     -0.2457
     38  O19        2.6970   -4.5760   30.2350 O.co2 212  LZ6212     -0.2457
@<TRIPOS>BOND
     1     5     4    1
     2     3     2   ar
     3     2     4    1
     4     2     1   ar
     5     4     6    1
     6     6     7    1
     7     9     8    2
     8     7     8    1
     9     8    10   am
    10    19    11    1
    11    19    20    1
    12    10    11    1
    13    22    21    1
    14    22    23    1
    15    11    12    1
    16    21    20    1
    17    23    24    1
    18    23    27    1
    19    12    14   am
    20    12    13    2
    21    32    27   ar
    22    32    31   ar
    23    14    15    1
    24    25    24    1
    25    25    26    1
    26    18    16   ar
    27    27    28   ar
    28    31    30   ar
    29    37    36   ar
    30    16    15    1
    31    16    17   ar
    32    36    38   ar
    33    36    35    1
    34    28    29   ar
    35    30    29   ar
    36    30    33    1
    37    34    35    1
    38    34    33    1
