@<TRIPOS>MOLECULE
3csh_GSH_A_1.pdb
 20 19 0 0 0
SMALL
GASTEIGER

@<TRIPOS>ATOM
      1  N1        14.3620   10.5920   24.0370 N.3   213  GSH213     -0.1208
      2  CA1       14.2260    9.1920   23.6680 C.3   213  GSH213      0.1948
      3  C1        15.3890    8.3980   24.2100 C.2   213  GSH213      0.3819
      4  O11       16.3540    8.2100   23.4480 O.co2 213  GSH213     -0.2441
      5  O12       15.4390    7.9430   25.3790 O.co2 213  GSH213     -0.2441
      6  CB1       12.8490    8.6280   24.0510 C.3   213  GSH213      0.0402
      7  CG1       12.5580    8.5080   25.5480 C.3   213  GSH213      0.0889
      8  CD1       11.2750    7.7320   25.7500 C.2   213  GSH213      0.2418
      9  OE1       10.4370    7.4440   24.6500 O.2   213  GSH213     -0.2733
     10  N2        10.9970    7.3450   26.9980 N.am  213  GSH213     -0.1968
     11  CA2        9.7670    6.6400   27.3340 C.3   213  GSH213      0.1843
     12  C2         9.1600    7.2190   28.5770 C.2   213  GSH213      0.2627
     13  O2         9.9470    7.2780   29.7430 O.2   213  GSH213     -0.2714
     14  CB2       10.0560    5.1610   27.5490 C.3   213  GSH213      0.0997
     15  SG2       10.7220    4.4110   26.0450 S.3   213  GSH213     -0.0797
     16  N3         7.9030    7.6650   28.4780 N.am  213  GSH213     -0.1917
     17  CA3        7.0140    7.7920   29.6190 C.3   213  GSH213      0.2285
     18  C3         6.6470    9.2210   29.9750 C.2   213  GSH213      0.3865
     19  O31        6.8170   10.1800   29.1830 O.co2 213  GSH213     -0.2437
     20  O32        6.1570    9.4650   31.1010 O.co2 213  GSH213     -0.2437
@<TRIPOS>BOND
     1     4     3   ar
     2     2     1    1
     3     2     6    1
     4     2     3    1
     5     6     7    1
     6     3     5   ar
     7     9     8    2
     8     7     8    1
     9     8    10   am
    10    15    14    1
    11    10    11    1
    12    11    14    1
    13    11    12    1
    14    16    12   am
    15    16    17    1
    16    12    13    2
    17    19    18   ar
    18    17    18    1
    19    18    20   ar
