@<TRIPOS>MOLECULE
3csi_GSH_A_1.pdb
 20 19 0 0 0
SMALL
GASTEIGER

@<TRIPOS>ATOM
      1  N1        23.7700  -10.5810   -2.4990 N.3   213  GSH213     -0.1208
      2  CA1       24.2510   -9.2280   -2.2850 C.3   213  GSH213      0.1948
      3  C1        24.1720   -8.9060   -0.8180 C.2   213  GSH213      0.3819
      4  O11       23.0800   -9.0210   -0.2080 O.co2 213  GSH213     -0.2441
      5  O12       25.1820   -8.5290   -0.1840 O.co2 213  GSH213     -0.2441
      6  CB1       25.6760   -9.0870   -2.8250 C.3   213  GSH213      0.0402
      7  CG1       25.8760   -7.7190   -3.4650 C.3   213  GSH213      0.0889
      8  CD1       26.2300   -7.8320   -4.9280 C.2   213  GSH213      0.2418
      9  OE1       25.3000   -8.3280   -5.8710 O.2   213  GSH213     -0.2733
     10  N2        27.4600   -7.4360   -5.2420 N.am  213  GSH213     -0.1968
     11  CA2       27.8050   -6.9210   -6.5570 C.3   213  GSH213      0.1843
     12  C2        29.2090   -7.2710   -6.9550 C.2   213  GSH213      0.2627
     13  O2        30.1620   -7.5920   -5.9650 O.2   213  GSH213     -0.2714
     14  CB2       27.6210   -5.4110   -6.5960 C.3   213  GSH213      0.0997
     15  SG2       28.8750   -4.4910   -5.6720 S.3   213  GSH213     -0.0797
     16  N3        29.4780   -7.2530   -8.2630 N.am  213  GSH213     -0.1917
     17  CA3       30.8320   -7.3400   -8.7840 C.3   213  GSH213      0.2285
     18  C3        31.1650   -8.7510   -9.2120 C.2   213  GSH213      0.3865
     19  O31       31.6920   -8.9690  -10.3230 O.co2 213  GSH213     -0.2437
     20  O32       30.9170   -9.7280   -8.4640 O.co2 213  GSH213     -0.2437
@<TRIPOS>BOND
     1    19    18   ar
     2    18    17    1
     3    18    20   ar
     4    17    16    1
     5    16    12   am
     6    12    11    1
     7    12    13    2
     8    14    11    1
     9    14    15    1
    10    11    10    1
    11     9     8    2
    12    10     8   am
    13     8     7    1
    14     7     6    1
    15     6     2    1
    16     1     2    1
    17     2     3    1
    18     3     4   ar
    19     3     5   ar
