@<TRIPOS>MOLECULE
3csi_LZ6_A_1.pdb
 38 38 0 0 0
SMALL
GASTEIGER

@<TRIPOS>ATOM
      1  O37       23.5290   -8.4340   -0.5420 O.co2 212  LZ6212     -0.2441
      2  C35       24.6440   -8.8250   -0.9340 C.2   212  LZ6212      0.3819
      3  O36       25.7070   -8.4450   -0.3940 O.co2 212  LZ6212     -0.2441
      4  C34       24.7050   -9.7640   -2.1060 C.3   212  LZ6212      0.1948
      5  N38       23.5170  -10.6180   -2.1330 N.3   212  LZ6212     -0.1208
      6  C33       24.7750   -8.9380   -3.4030 C.3   212  LZ6212      0.0402
      7  C32       26.1170   -8.2250   -3.5450 C.3   212  LZ6212      0.0889
      8  C30       26.3070   -7.5420   -4.8860 C.2   212  LZ6212      0.2418
      9  O31       25.3810   -7.3580   -5.6670 O.2   212  LZ6212     -0.2733
     10  N29       27.5540   -7.1510   -5.1490 N.am  212  LZ6212     -0.1969
     11  C21       28.0380   -6.9850   -6.5250 C.3   212  LZ6212      0.1834
     12  C22       29.5170   -7.2220   -6.7000 C.2   212  LZ6212      0.2626
     13  O28       30.2290   -7.4740   -5.7370 O.2   212  LZ6212     -0.2714
     14  N23       29.9650   -7.1370   -7.9620 N.am  212  LZ6212     -0.1917
     15  C24       31.2610   -7.6350   -8.3880 C.3   212  LZ6212      0.2285
     16  C25       31.2130   -9.0290   -8.9720 C.2   212  LZ6212      0.3865
     17  O27       30.1290   -9.6690   -8.9560 O.co2 212  LZ6212     -0.2437
     18  O26       32.2810   -9.4850   -9.4470 O.co2 212  LZ6212     -0.2437
     19  C20       27.6370   -5.6330   -7.1210 C.3   212  LZ6212      0.0886
     20  S13       28.3480   -4.2690   -6.2600 S.3   212  LZ6212     -0.1361
     21  C12       27.9210   -2.7200   -7.0090 C.3   212  LZ6212      0.0790
     22  C11       28.3320   -2.6100   -8.4830 C.3   212  LZ6212      0.1024
     23  N7        29.7910   -2.7070   -8.6330 N.pl3 212  LZ6212     -0.3053
     24  C8        30.3760   -3.9990   -8.9570 C.3   212  LZ6212      0.1083
     25  C9        30.1180   -4.2240  -10.4430 C.3   212  LZ6212      0.1162
     26 CL10       31.4910   -5.1910  -11.0510 Cl    212  LZ6212     -0.1118
     27  C1        30.6490   -1.5900   -8.5140 C.ar  212  LZ6212      0.0479
     28  C6        30.2740   -0.4610   -7.7800 C.ar  212  LZ6212      0.0142
     29  C5        31.1420    0.6250   -7.6830 C.ar  212  LZ6212     -0.0030
     30  C4        32.3840    0.6340   -8.3120 C.ar  212  LZ6212     -0.0221
     31  C3        32.7680   -0.4950   -9.0380 C.ar  212  LZ6212     -0.0030
     32  C2        31.9060   -1.5970   -9.1420 C.ar  212  LZ6212      0.0142
     33  C14       33.2870    1.8520   -8.1460 C.3   212  LZ6212      0.0269
     34  C15       33.6890    2.5640   -9.4430 C.3   212  LZ6212      0.0165
     35  C16       34.7550    3.6510   -9.2120 C.3   212  LZ6212      0.1144
     36  C17       36.1360    3.1790   -8.7350 C.2   212  LZ6212      0.3649
     37  O18       36.9640    4.0200   -8.2980 O.co2 212  LZ6212     -0.2457
     38  O19       36.4480    1.9730   -8.7730 O.co2 212  LZ6212     -0.2457
@<TRIPOS>BOND
     1    26    25    1
     2    25    24    1
     3    18    16   ar
     4    34    35    1
     5    34    33    1
     6    35    36    1
     7    32    31   ar
     8    32    27   ar
     9    31    30   ar
    10    16    17   ar
    11    16    15    1
    12    24    23    1
    13    38    36   ar
    14    36    37   ar
    15    23    27    1
    16    23    22    1
    17    27    28   ar
    18    22    21    1
    19    15    14    1
    20    30    33    1
    21    30    29   ar
    22    14    12   am
    23    28    29   ar
    24    19    11    1
    25    19    20    1
    26    21    20    1
    27    12    11    1
    28    12    13    2
    29    11    10    1
    30     9     8    2
    31    10     8   am
    32     8     7    1
    33     7     6    1
    34     6     4    1
    35     5     4    1
    36     4     2    1
    37     2     1   ar
    38     2     3   ar
