@<TRIPOS>MOLECULE
3csj_CBL_B_1.pdb
 19 19 0 0 0
SMALL
GASTEIGER

@<TRIPOS>ATOM
      1  C1         9.6910   21.1140    1.4470 C.ar  211  CBL211      0.0479
      2  C2        10.4440   21.9720    2.2540 C.ar  211  CBL211      0.0142
      3  C3        11.1000   21.5010    3.3870 C.ar  211  CBL211     -0.0030
      4  C4        11.0030   20.1590    3.7300 C.ar  211  CBL211     -0.0221
      5  C5        10.2620   19.2880    2.9320 C.ar  211  CBL211     -0.0030
      6  C6         9.6070   19.7620    1.7960 C.ar  211  CBL211      0.0142
      7  C7        11.7240   19.6310    4.9500 C.3   211  CBL211      0.0269
      8  C8        10.8870   19.7000    6.2250 C.3   211  CBL211      0.0165
      9  C9        11.6370   19.2630    7.4900 C.3   211  CBL211      0.1144
     10  C10       12.7650   20.2270    7.7930 C.2   211  CBL211      0.3649
     11  N11        9.0230   21.6070    0.3070 N.pl3 211  CBL211     -0.3049
     12  C12        8.0900   20.7640   -0.4450 C.3   211  CBL211      0.1083
     13  C13        6.6810   21.2330   -0.0750 C.3   211  CBL211      0.1162
     14 CL14        6.3780   20.9990    1.6760 Cl    211  CBL211     -0.1118
     15  C15        9.2300   22.9880   -0.1310 C.3   211  CBL211      0.1083
     16  C16       10.2230   22.9700   -1.2820 C.3   211  CBL211      0.1162
     17 CL17       10.6120   24.6780   -1.6070 Cl    211  CBL211     -0.1118
     18  O18       13.8390   20.0390    7.1710 O.co2 211  CBL211     -0.2457
     19  O19       12.5950   21.1550    8.6240 O.co2 211  CBL211     -0.2457
@<TRIPOS>BOND
     1    17    16    1
     2    16    15    1
     3    12    13    1
     4    12    11    1
     5    15    11    1
     6    13    14    1
     7    11     1    1
     8     1     6   ar
     9     1     2   ar
    10     6     5   ar
    11     2     3   ar
    12     5     4   ar
    13     3     4   ar
    14     4     7    1
    15     7     8    1
    16     8     9    1
    17    18    10   ar
    18     9    10    1
    19    10    19   ar
