@<TRIPOS>MOLECULE
3csm_TRP_A_1.pdb
 15 16 0 0 0
SMALL
GASTEIGER

@<TRIPOS>ATOM
      1  N         58.0660   14.4420   35.4340 N.3   300  TRP300     -0.1205
      2  CA        58.7490   13.2240   35.9310 C.3   300  TRP300      0.1987
      3  C         60.2520   13.3370   36.0850 C.2   300  TRP300      0.3822
      4  O         60.8280   13.6660   35.0400 O.co2 300  TRP300     -0.2440
      5  CB        58.4170   12.0700   35.0160 C.3   300  TRP300      0.0585
      6  CG        58.4840   12.4100   33.5690 C.2   300  TRP300      0.0001
      7  CD1       57.5430   13.0910   32.8460 C.2   300  TRP300      0.0946
      8  CD2       59.4760   11.9690   32.6290 C.2   300  TRP300      0.0113
      9  NE1       57.8770   13.0850   31.4960 N.2   300  TRP300     -0.2442
     10  CE2       59.0530   12.3990   31.3350 C.2   300  TRP300      0.0804
     11  CE3       60.6720   11.2420   32.7430 C.2   300  TRP300     -0.0202
     12  CZ2       59.7880   12.1170   30.1650 C.2   300  TRP300      0.0148
     13  CZ3       61.4030   10.9620   31.5660 C.3   300  TRP300      0.0521
     14  CH2       60.9460   11.4020   30.2930 C.2   300  TRP300     -0.0199
     15  OXT       60.7530   13.1040   37.1840 O.co2 300  TRP300     -0.2440
@<TRIPOS>BOND
     1    12    14    2
     2    12    10    1
     3    14    13    1
     4    10     9    2
     5    10     8    1
     6     9     7    1
     7    13    11    1
     8     8    11    2
     9     8     6    1
    10     7     6    2
    11     6     5    1
    12     5     2    1
    13     4     3   ar
    14     1     2    1
    15     2     3    1
    16     3    15   ar
