@<TRIPOS>MOLECULE
3csm_TSA_A_1.pdb
 16 17 0 0 0
SMALL
GASTEIGER

@<TRIPOS>ATOM
      1  C1        35.8380   17.5900   34.1240 C.3   400  TSA400      0.1173
      2  C2        34.8630   18.7210   34.4320 C.2   400  TSA400     -0.0179
      3  C3        33.6930   18.6430   35.1240 C.2   400  TSA400      0.0045
      4  C4        33.2990   17.3530   35.8020 C.3   400  TSA400      0.2006
      5  O5        31.9640   17.2020   35.3370 O.3   400  TSA400     -0.2157
      6  C5        34.3630   16.2050   35.6400 C.3   400  TSA400      0.1511
      7  C6        35.0600   16.2650   34.2590 C.3   400  TSA400      0.0474
      8  O7        35.4040   16.0840   36.6330 O.3   400  TSA400     -0.3445
      9  C8        36.4120   17.0900   36.6920 C.3   400  TSA400      0.2185
     10  C9        36.8370   17.5420   35.2790 C.3   400  TSA400      0.0562
     11  C10       36.6040   17.8360   32.7580 C.2   400  TSA400      0.3677
     12  O1        37.0660   18.9850   32.5170 O.co2 400  TSA400     -0.2453
     13  O2        36.7520   16.9090   31.9120 O.co2 400  TSA400     -0.2453
     14  C11       36.0910   18.2430   37.7060 C.2   400  TSA400      0.3913
     15  O3        36.5500   19.4060   37.6180 O.co2 400  TSA400     -0.2430
     16  O4        35.3400   17.9760   38.6400 O.co2 400  TSA400     -0.2430
@<TRIPOS>BOND
     1    13    11   ar
     2    12    11   ar
     3    11     1    1
     4     1     7    1
     5     1     2    1
     6     1    10    1
     7     7     6    1
     8     2     3    2
     9     3     4    1
    10    10     9    1
    11     5     4    1
    12     6     4    1
    13     6     8    1
    14     8     9    1
    15     9    14    1
    16    15    14   ar
    17    14    16   ar
