@<TRIPOS>MOLECULE
3cso_XNI_A_1.pdb
 36 40 0 0 0
SMALL
GASTEIGER

@<TRIPOS>ATOM
      1  C1        28.4620    4.6460   31.1020 C.3   579  XNI579      0.0654
      2  C2        27.5140    3.8360   31.9930 C.3   579  XNI579      0.0132
      3  C3        26.2150    3.6230   31.2370 C.3   579  XNI579      0.0553
      4  C4        25.5850    4.8330   30.5820 C.2   579  XNI579      0.0953
      5  C5        26.3610    5.8850   30.1690 C.3   579  XNI579      0.1281
      6  C6        27.8070    5.8450   30.4620 C.2   579  XNI579      0.1585
      7  C8        23.1850    5.4750   29.9730 C.2   579  XNI579      0.1436
      8  N10       24.7600    6.6570   28.6000 N.am  579  XNI579     -0.2535
      9  C11       25.8070    7.1410   29.4940 C.3   579  XNI579      0.1154
     10  C12       21.9080    5.2900   30.4690 C.2   579  XNI579      0.0291
     11  C15       22.4110    7.3710   28.7420 C.2   579  XNI579     -0.0039
     12  C16       25.2720    8.2480   30.4110 C.ar  579  XNI579     -0.0021
     13  C17       25.0990    6.2300   27.3060 C.2   579  XNI579      0.2301
     14  C19       24.0590    5.6640   26.3630 C.3   579  XNI579      0.0952
     15  C21       24.7370   10.5470   30.7730 C.ar  579  XNI579      0.0913
     16  C23       24.3750    8.9570   32.5050 C.ar  579  XNI579      0.0375
     17  C24       24.8530    7.9620   31.6930 C.ar  579  XNI579      0.0005
     18  O25       23.8290   11.2510   32.8280 O.3   579  XNI579     -0.4698
     19  C27       25.0250   10.9430   34.9160 C.ar  579  XNI579      0.0212
     20  C30       27.5110   10.7650   36.1240 C.ar  579  XNI579     -0.0000
     21  C31       27.3510   11.5620   34.9970 C.ar  579  XNI579     -0.0002
     22  C32       26.1110   11.6430   34.3950 C.ar  579  XNI579     -0.0007
     23  C34       28.1600    2.4810   32.3370 C.3   579  XNI579      0.0008
     24  C35       27.1650    4.6100   33.2770 C.3   579  XNI579      0.0008
     25 CL36       24.6680   12.1750   30.2530 Cl    579  XNI579     -0.0791
     26  C20       25.2180    9.5530   29.9500 C.ar  579  XNI579      0.0118
     27  C22       24.3150   10.2550   32.0440 C.ar  579  XNI579      0.1495
     28  C26       23.6720   11.0580   34.2330 C.3   579  XNI579      0.2320
     29  C29       26.4370   10.0630   36.6510 C.ar  579  XNI579     -0.0002
     30  C28       25.1880   10.1510   36.0440 C.ar  579  XNI579     -0.0007
     31  O33       28.4970    6.7960   30.2150 O.2   579  XNI579     -0.2956
     32  O18       26.2490    6.3450   26.9240 O.2   579  XNI579     -0.2745
     33  C9        23.4440    6.5160   29.1120 C.2   579  XNI579      0.0797
     34  C14       21.1280    7.1900   29.2340 C.3   579  XNI579      0.0535
     35  C13       20.8820    6.1450   30.1060 C.2   579  XNI579     -0.0187
     36  N7        24.2130    4.6310   30.4380 N.2   579  XNI579     -0.4088
@<TRIPOS>BOND
     1    14    13    1
     2    32    13    2
     3    13     8   am
     4     8    33    1
     5     8     9    1
     6    11    33    2
     7    11    34    1
     8    33     7    1
     9    34    35    1
    10     9     5    1
    11     9    12    1
    12    26    12   ar
    13    26    15   ar
    14     7    36    2
    15     7    10    1
    16    35    10    2
    17     5     6    1
    18     5     4    1
    19    31     6    2
    20    25    15    1
    21    12    17   ar
    22    36     4    2
    23     6     1    1
    24     4     3    1
    25    15    27   ar
    26     1     2    1
    27     3     2    1
    28    17    16   ar
    29     2    23    1
    30     2    24    1
    31    27    16   ar
    32    27    18    1
    33    18    28    1
    34    28    19    1
    35    22    19   ar
    36    22    21   ar
    37    19    30   ar
    38    21    20   ar
    39    30    29   ar
    40    20    29   ar
