@<TRIPOS>MOLECULE
3cst_E52_A_1.pdb
 42 49 0 0 0
SMALL
GASTEIGER

@<TRIPOS>ATOM
      1  C1        51.5100   15.8340   28.9800 C.ar    1  E521        0.0000
      2  C2        51.9870   16.9940   29.7810 C.ar    1  E521        0.0000
      3  C3        51.1800   17.6720   30.7470 C.ar    1  E521        0.0000
      4  C4        49.9100   17.1560   30.9530 C.ar    1  E521        0.0000
      5  C5        49.3970   16.0620   30.1590 C.ar    1  E521        0.0000
      6  C6        50.1920   15.3250   29.1580 C.ar    1  E521        0.0000
      7  C7        45.0130   12.1200   28.7510 C.3     1  E521        0.0000
      8  C8        47.8580   16.6760   31.5240 C.ar    1  E521        0.0000
      9  C9        48.0650   15.7310   30.5160 C.ar    1  E521        0.0000
     10  C10       46.7260   16.8530   32.2180 C.3     1  E521        0.0000
     11  C11       45.5850   15.8990   31.9220 C.2     1  E521        0.0000
     12  C12       45.7520   14.9080   30.9310 C.2     1  E521        0.0000
     13  C13       46.9240   14.8170   30.2590 C.2     1  E521        0.0000
     14  C14       46.8490   13.6600   29.2510 C.2     1  E521        0.0000
     15  C15       45.5690   18.0590   33.8550 C.2     1  E521        0.0000
     16  C16       44.4260   17.1650   33.6180 C.2     1  E521        0.0000
     17  C17       44.4270   16.1160   32.7000 C.2     1  E521        0.0000
     18  C18       44.8230   13.8720   30.4090 C.2     1  E521        0.0000
     19  F         43.4160   17.3420   34.2620 F       1  E521        0.0000
     20  N20       46.6760   17.9010   33.1880 N.pl3   1  E521        0.0000
     21  N21       48.8840   17.5450   31.7450 N.ar    1  E521        0.0000
     22  N22       45.5990   13.2390   29.4840 N.am    1  E521        0.0000
     23  O23       52.3260   15.2240   28.0070 O.3     1  E521        0.0000
     24  O24       43.7060   13.6280   30.7000 O.2     1  E521        0.0000
     25  O25       47.5390   13.1400   28.4420 O.2     1  E521        0.0000
     26 RU         48.3850   18.8710   33.2100 Ru      1  E521        0.0000
     27  C27       48.1560   20.2720   31.8820 C.3     1  E521        0.0000
     28  O28       47.8180   21.1220   31.1800 O.3     1  E521        0.0000
     29  C29       49.4140   20.1790   34.3980 C.2     1  E521        0.0000
     30  C30       48.2580   19.8120   35.0210 C.2     1  E521        0.0000
     31  C31       48.2470   18.3720   35.1830 C.3     1  E521        0.0000
     32  C32       49.4700   17.8650   34.6210 C.3     1  E521        0.0000
     33  C33       50.1900   18.9190   34.1420 C.3     1  E521        0.0000
     34  C34       47.1750   20.7120   35.4750 C.2     1  E521        0.0000
     35  C35       46.5740   23.1620   35.6260 C.3     1  E521        0.0000
     36  C36       47.1880   23.7910   36.8910 C.3     1  E521        0.0000
     37  C37       45.1010   22.8240   35.8980 C.3     1  E521        0.0000
     38  C38       46.6540   24.1550   34.4570 C.3     1  E521        0.0000
     39  N39       47.4320   22.0310   35.2340 N.am    1  E521        0.0000
     40  O40       46.1600   20.2990   36.0050 O.2     1  E521        0.0000
     41  O41       44.5890   22.0010   34.8700 O.3     1  E521        0.0000
     42  O42       48.0080   24.3460   34.0920 O.3     1  E521        0.0000
@<TRIPOS>BOND
     1    23     1    1
     2    25    14    2
     3     7    22    1
     4     1     6   ar
     5     1     2   ar
     6     6     5   ar
     7    14    22   am
     8    14    13    1
     9    22    18   am
    10     2     3   ar
    11     5     9   ar
    12     5     4   ar
    13    13     9    1
    14    13    12    2
    15    18    24    2
    16    18    12    1
    17     9     8   ar
    18     3     4   ar
    19    12    11    1
    20     4    21   ar
    21    28    27    1
    22     8    21   ar
    23     8    10    1
    24    21    26    1
    25    27    26    1
    26    11    10    1
    27    11    17    2
    28    10    20    1
    29    17    16    1
    30    20    26    1
    31    20    15    1
    32    26    33    1
    33    26    31    1
    34    16    15    2
    35    16    19    1
    36    42    38    1
    37    33    29    1
    38    33    32    1
    39    29    30    2
    40    38    35    1
    41    32    31    1
    42    41    37    1
    43    30    31    1
    44    30    34    1
    45    39    34   am
    46    39    35    1
    47    34    40    2
    48    35    37    1
    49    35    36    1
