@<TRIPOS>MOLECULE
3csw_PLP_A_1.pdb
 16 16 0 0 0
SMALL
GASTEIGER

@<TRIPOS>ATOM
      1  N1        35.4820   24.0130   23.1400 N.ar  300  PLP300     -0.2452
      2  C2        35.5660   22.8650   23.9210 C.ar  300  PLP300      0.0982
      3  C2A       36.4860   22.8930   25.1020 C.3   300  PLP300      0.0555
      4  C3        34.7950   21.7290   23.5900 C.ar  300  PLP300      0.2120
      5  O3        34.7970   20.6140   24.3950 O.3   300  PLP300     -0.2852
      6  C4        33.9430   21.7690   22.4600 C.ar  300  PLP300      0.0822
      7  C4A       33.0630   20.5970   22.1220 C.2   300  PLP300      0.2372
      8  O4A       31.9690   20.4520   22.6990 O.2   300  PLP300     -0.2830
      9  C5        33.8710   22.9430   21.6910 C.ar  300  PLP300      0.0333
     10  C6        34.6520   24.0480   22.0370 C.ar  300  PLP300      0.0969
     11  C5A       32.8200   23.1220   20.6190 C.3   300  PLP300      0.1819
     12  O4P       33.2440   22.5140   19.4070 O.3   300  PLP300     -0.2653
     13  P         32.1940   21.9850   18.2760 P.3   300  PLP300      0.5329
     14  O1P       32.9390   21.1120   17.2460 O.2   300  PLP300     -0.2224
     15  O2P       31.5790   23.1650   17.5790 O.3   300  PLP300     -0.1145
     16  O3P       31.1430   21.1870   19.0360 O.3   300  PLP300     -0.1145
@<TRIPOS>BOND
     1    14    13    2
     2    15    13    1
     3    13    16    1
     4    13    12    1
     5    12    11    1
     6    11     9    1
     7     9    10   ar
     8     9     6   ar
     9    10     1   ar
    10     7     6    1
    11     7     8    2
    12     6     4   ar
    13     1     2   ar
    14     4     2   ar
    15     4     5    1
    16     2     3    1
