@<TRIPOS>MOLECULE
3ct5_NAG_A_1.pdb
 15 15 0 0 0
SMALL
GASTEIGER

@<TRIPOS>ATOM
      1  C1        -5.4630   29.0340    9.2740 C.3   201  NAG201      0.2917
      2  C2        -5.3920   30.4220    8.6610 C.3   201  NAG201      0.1871
      3  C3        -3.9810   30.6580    8.1380 C.3   201  NAG201      0.2095
      4  C4        -2.9600   30.4860    9.2650 C.3   201  NAG201      0.2136
      5  C5        -3.2520   29.2450   10.1150 C.3   201  NAG201      0.1835
      6  C6        -2.5000   29.2840   11.4420 C.3   201  NAG201      0.2142
      7  C7        -7.1900   31.5730    7.6560 C.2   201  NAG201      0.2421
      8  C8        -8.2540   31.5980    6.5920 C.3   201  NAG201      0.0964
      9  N2        -6.3540   30.5520    7.5840 N.am  201  NAG201     -0.1991
     10  O1        -6.7720   28.7770    9.7200 O.3   201  NAG201     -0.1879
     11  O3        -3.8390   31.9720    7.6250 O.3   201  NAG201     -0.2183
     12  O4        -1.7250   30.1810    8.6700 O.3   201  NAG201     -0.2176
     13  O5        -4.6360   29.0850   10.4190 O.3   201  NAG201     -0.3242
     14  O6        -2.8730   30.3730   12.2410 O.3   201  NAG201     -0.2176
     15  O7        -7.1100   32.4320    8.5450 O.2   201  NAG201     -0.2733
@<TRIPOS>BOND
     1     8     7    1
     2     9     7   am
     3     9     2    1
     4    11     3    1
     5     7    15    2
     6     3     2    1
     7     3     4    1
     8     2     1    1
     9    12     4    1
    10     4     5    1
    11     1    10    1
    12     1    13    1
    13     5    13    1
    14     5     6    1
    15     6    14    1
