@<TRIPOS>MOLECULE
3cth_319_A_1.pdb
 29 31 0 0 0
SMALL
GASTEIGER

@<TRIPOS>ATOM
      1  C1         0.1140    1.0530   52.6750 C.ar  2001  3192001    -0.0015
      2  C2        -2.0300    1.6690   53.6840 C.ar  2001  3192001    -0.0015
      3  C3         0.9190    8.0660   54.9990 C.ar  2001  3192001     0.0199
      4  C4         1.0350    9.2860   55.6690 C.ar  2001  3192001     0.0412
      5  C5         0.2130   -0.0130   53.5530 C.ar  2001  3192001     0.0293
      6  C6        -1.9210    0.5980   54.5720 C.ar  2001  3192001     0.0293
      7  C7        -1.4920   11.5640   56.3840 C.ar  2001  3192001     0.0582
      8  C8         0.2920    9.2470   52.9840 C.ar  2001  3192001     0.0494
      9  C9         0.1040   12.9810   57.4910 C.ar  2001  3192001     0.0751
     10  C10       -2.4360   12.0230   57.2860 C.ar  2001  3192001     0.1036
     11  C11       -1.0100    1.8910   52.7320 C.ar  2001  3192001    -0.0129
     12  C12        0.5520    8.0480   53.6440 C.ar  2001  3192001     0.0774
     13  C13        0.7640   10.4830   55.0040 C.ar  2001  3192001     0.1726
     14  C14       -0.1910   12.0540   56.4900 C.ar  2001  3192001     0.1499
     15  C15       -0.7980   -0.2310   54.4880 C.ar  2001  3192001     0.1401
     16  C16        0.3910   10.4570   53.6600 C.ar  2001  3192001     0.1757
     17  C17       -0.9090   13.4030   58.3630 C.ar  2001  3192001     0.1728
     18  C18       -0.6440    4.3080   52.4610 C.2   2001  3192001     0.2536
     19  C19       -0.1050    6.6130   51.7410 C.2   2001  3192001     0.3501
     20  C20       -1.1030    3.0380   51.7840 C.3   2001  3192001     0.1136
     21  N21       -2.1750   12.9280   58.2640 N.ar  2001  3192001    -0.2257
     22  N22       -0.6020   14.3450   59.3770 N.pl3 2001  3192001    -0.1071
     23  N23        0.4490    6.8030   52.9920 N.am  2001  3192001    -0.1605
     24  N24       -0.6480    5.3560   51.5520 N.am  2001  3192001    -0.1256
     25  O25        0.0100    4.3220   53.4880 O.2   2001  3192001    -0.2725
     26  O26       -0.1580    7.4260   50.8290 O.2   2001  3192001    -0.2484
     27  O27        0.8600   11.6920   55.6570 O.3   2001  3192001    -0.4511
     28  F28       -0.6810   -1.2650   55.3250 F     2001  3192001    -0.2042
     29  F29        0.1170   11.5940   52.9890 F     2001  3192001    -0.2009
@<TRIPOS>BOND
     1    26    19    2
     2    24    19   am
     3    24    18   am
     4    19    23   am
     5    20    18    1
     6    20    11    1
     7    18    25    2
     8     1    11   ar
     9     1     5   ar
    10    11     2   ar
    11     8    12   ar
    12     8    16   ar
    13    29    16    1
    14    23    12    1
    15     5    15   ar
    16    12     3   ar
    17    16    13   ar
    18     2     6   ar
    19    15     6   ar
    20    15    28    1
    21     3     4   ar
    22    13    27    1
    23    13     4   ar
    24    27    14    1
    25     7    14   ar
    26     7    10   ar
    27    14     9   ar
    28    10    21   ar
    29     9    17   ar
    30    21    17   ar
    31    17    22    1
