@<TRIPOS>MOLECULE
3ctj_320_A_1.pdb
 31 34 0 0 0
SMALL
GASTEIGER

@<TRIPOS>ATOM
      1  F31       -1.0960   -1.0490   56.2250 F     2001  3202001    -0.2042
      2  C28       -1.1050   -0.1830   55.2190 C.ar  2001  3202001     0.1401
      3  C29       -2.1630    0.8240   55.1270 C.ar  2001  3202001     0.0293
      4  C30       -2.0800    1.6780   54.0920 C.ar  2001  3202001    -0.0015
      5  C27       -0.1000   -0.2700   54.3280 C.ar  2001  3202001     0.0293
      6  C26       -0.0670    0.6820   53.2420 C.ar  2001  3202001    -0.0015
      7  C23       -0.9660    1.6060   53.0850 C.ar  2001  3202001    -0.0129
      8  C22       -0.8740    2.5940   51.8870 C.3   2001  3202001     0.1136
      9  C21       -0.6090    3.9750   52.5600 C.2   2001  3202001     0.2536
     10  O25       -0.2000    4.1990   53.7470 O.2   2001  3202001    -0.2725
     11  N20       -0.8940    5.1480   51.8540 N.am  2001  3202001    -0.1256
     12  C19       -0.4000    6.3580   52.1530 C.2   2001  3202001     0.3501
     13  O24       -0.5430    7.1670   51.2690 O.2   2001  3202001    -0.2484
     14  N18        0.2320    6.5520   53.3870 N.am  2001  3202001    -0.1605
     15  C14        0.3570    7.7970   54.0550 C.ar  2001  3202001     0.0774
     16  C15        0.0490    8.9740   53.2600 C.ar  2001  3202001     0.0494
     17  C16        0.1290   10.1890   53.8570 C.ar  2001  3202001     0.1757
     18  F17       -0.1760   11.3710   53.1470 F     2001  3202001    -0.2009
     19  C13        0.7350    7.8700   55.3610 C.ar  2001  3202001     0.0199
     20  C12        0.8580    9.1280   55.9880 C.ar  2001  3202001     0.0412
     21  C11        0.5670   10.2740   55.2860 C.ar  2001  3202001     0.1726
     22  O10        0.6310   11.6750   55.7670 O.3   2001  3202001    -0.4505
     23  C6        -0.4500   12.0340   56.6790 C.2   2001  3202001     0.1563
     24  C5        -1.7500   11.6440   56.5310 C.2   2001  3202001     0.0596
     25  C4        -2.7320   12.0560   57.5340 C.2   2001  3202001     0.1127
     26  N3        -2.3260   12.7950   58.5140 N.2   2001  3202001    -0.1920
     27  C2        -1.0660   13.2130   58.6890 C.1   2001  3202001     0.0383
     28  C1        -0.1370   12.8550   57.8180 C.2   2001  3202001     0.0985
     29  N9        -0.4930   14.0150   59.7410 N.2   2001  3202001    -0.1921
     30  C8         0.9310   14.1050   59.4250 C.2   2001  3202001     0.1104
     31  C7         1.1620   13.4240   58.2480 C.2   2001  3202001     0.0345
@<TRIPOS>BOND
     1    13    12    2
     2    11    12   am
     3    11     9   am
     4     8     9    1
     5     8     7    1
     6    12    14   am
     7     9    10    2
     8     7     6   ar
     9     7     4   ar
    10    18    17    1
    11     6     5   ar
    12    16    17   ar
    13    16    15   ar
    14    14    15    1
    15    17    21   ar
    16    15    19   ar
    17     4     3   ar
    18     5     2   ar
    19     3     2   ar
    20     2     1    1
    21    21    22    1
    22    21    20   ar
    23    19    20   ar
    24    22    23    1
    25    24    23    1
    26    24    25    2
    27    23    28    2
    28    25    26    1
    29    28    31    1
    30    28    27    1
    31    31    30    2
    32    26    27    2
    33    27    29    2
    34    30    29    1
