@<TRIPOS>MOLECULE
3ctl_S6P_A_1.pdb
 16 15 0 0 0
SMALL
GASTEIGER

@<TRIPOS>ATOM
      1  C1        41.1840  100.5320   17.5770 C.3   501  S6P501      0.2175
      2  C2        42.6660  100.1450   17.5650 C.3   501  S6P501      0.2175
      3  C3        42.9510   98.9380   16.6340 C.3   501  S6P501      0.2175
      4  C4        42.2580   97.6480   17.1230 C.3   501  S6P501      0.2174
      5  C5        42.1960   96.5400   16.0420 C.3   501  S6P501      0.2147
      6  C6        41.4530   95.2710   16.4660 C.3   501  S6P501      0.1892
      7  O1        40.9610  101.5680   18.5370 O.3   501  S6P501     -0.2175
      8  O2        43.3990  101.2890   17.1140 O.3   501  S6P501     -0.2175
      9  O3        44.3690   98.7550   16.5360 O.3   501  S6P501     -0.2175
     10  O4        42.9650   97.1270   18.2570 O.3   501  S6P501     -0.2175
     11  O5        41.5370   97.1000   14.8910 O.3   501  S6P501     -0.2176
     12  O6        41.1850   94.3870   15.3770 O.3   501  S6P501     -0.2674
     13  P         39.7500   93.6950   15.2210 P.3   501  S6P501      0.5327
     14  O1P       39.9340   92.4950   14.1860 O.2   501  S6P501     -0.2224
     15  O2P       38.6580   94.6170   14.7880 O.3   501  S6P501     -0.1145
     16  O3P       39.4130   93.0050   16.6390 O.3   501  S6P501     -0.1145
@<TRIPOS>BOND
     1    14    13    2
     2    15    13    1
     3    11     5    1
     4    13    12    1
     5    13    16    1
     6    12     6    1
     7     5     6    1
     8     5     4    1
     9     9     3    1
    10     3     4    1
    11     3     2    1
    12     8     2    1
    13     4    10    1
    14     2     1    1
    15     1     7    1
