@<TRIPOS>MOLECULE
3ctp_XLF_A_1.pdb
 10 10 0 0 0
SMALL
GASTEIGER

@<TRIPOS>ATOM
      1  O10       28.5140   30.9770    3.2620 O.3   401  XLF401     -0.2175
      2  C4        27.2340   30.3770    3.4760 C.3   401  XLF401      0.2167
      3  C5        26.1920   31.4830    3.3970 C.3   401  XLF401      0.1804
      4  O1        25.7320   31.6890    4.7370 O.3   401  XLF401     -0.3254
      5  C3        27.1170   29.8450    4.8950 C.3   401  XLF401      0.2409
      6  O9        27.1470   28.4120    4.9290 O.3   401  XLF401     -0.2149
      7  C2        25.7750   30.3840    5.3080 C.3   401  XLF401      0.2807
      8  O8        24.7080   29.5900    4.7500 O.3   401  XLF401     -0.1896
      9  C6        25.6270   30.5030    6.8110 C.3   401  XLF401      0.2434
     10  O7        24.3750   31.1370    7.1140 O.3   401  XLF401     -0.2148
@<TRIPOS>BOND
     1     1     2    1
     2     3     2    1
     3     3     4    1
     4     2     5    1
     5     4     7    1
     6     8     7    1
     7     5     6    1
     8     5     7    1
     9     7     9    1
    10     9    10    1
