@<TRIPOS>MOLECULE
3ctq_337_A_1.pdb
 42 45 0 0 0
SMALL
GASTEIGER

@<TRIPOS>ATOM
      1  N1        33.6700   36.7730   12.7730 N.am    1  3371       -0.1723
      2  C4        30.3730   36.2720   11.0270 C.ar    1  3371       -0.0200
      3  C5        32.5490   34.7030   12.1160 C.ar    1  3371        0.1704
      4  C6        31.4210   34.0570   11.5040 C.ar    1  3371        0.1254
      5  C7        30.3580   34.8300   10.9710 C.ar    1  3371        0.0169
      6  C8        32.1650   42.4930   21.5960 C.ar    1  3371       -0.0026
      7  C10       29.2370   37.1760   10.4670 C.3     1  3371        0.0190
      8  C13       29.7990   38.1090    9.3620 C.3     1  3371        0.0044
      9  C15       30.7610   42.5470   21.7800 C.ar    1  3371       -0.0003
     10  C17       31.0740   44.2880   23.4760 C.ar    1  3371       -0.0003
     11  C20       33.0370   32.8220    9.1590 C.3     1  3371        0.2016
     12  C22       37.1670   38.9430   14.0170 C.ar    1  3371       -0.0028
     13  C24       38.3930   40.1900   15.8230 C.3     1  3371        0.0324
     14  C26       34.7830   38.4090   14.1740 C.ar    1  3371        0.0566
     15  C1        33.0430   43.3440   22.3380 C.ar    1  3371       -0.0006
     16  C2        32.5900   36.1270   12.1870 C.ar    1  3371        0.1085
     17  C3        31.5120   36.8840   11.6410 C.ar    1  3371        0.0155
     18  C9        33.4400   33.6560   14.0330 C.3     1  3371        0.2526
     19  C11       28.6330   38.0300   11.6150 C.3     1  3371        0.0044
     20  C12       28.0580   36.3770    9.8380 C.3     1  3371        0.0044
     21  C14       33.5280   37.8310   13.6580 C.2     1  3371        0.2691
     22  C16       30.2150   43.4470   22.7200 C.ar    1  3371       -0.0000
     23  C18       32.4810   44.2300   23.2870 C.ar    1  3371       -0.0026
     24  C23       37.1200   39.5830   15.2890 C.ar    1  3371       -0.0069
     25  C25       36.0110   38.3570   13.4530 C.ar    1  3371        0.0043
     26  O8        33.5760   33.9010   12.6300 O.3     1  3371       -0.4688
     27  O15       32.4120   38.2610   13.9730 O.2     1  3371       -0.2680
     28  N16       31.3480   32.6900   11.4250 N.pl3   1  3371       -0.0975
     29  S17       32.3250   31.8110   10.4300 S.O2    1  3371        0.0751
     30  O18       31.4940   30.8300    9.8180 O.2     1  3371       -0.1528
     31  O19       33.3620   31.3130   11.3040 O.2     1  3371       -0.1528
     32  C47       34.7540   39.0450   15.4340 C.ar    1  3371        0.0205
     33  C48       35.8940   39.6370   16.0160 C.ar    1  3371        0.0650
     34  N49       35.7300   40.2370   17.2790 N.pl3   1  3371       -0.1971
     35  C50       35.4500   41.5410   17.5850 C.3     1  3371        0.1673
     36  N51       35.8730   39.4210   18.3880 N.pl3   1  3371       -0.0443
     37  N52       35.6600   40.3230   19.3880 N.2     1  3371       -0.1414
     38  C53       35.4090   41.5760   18.9520 C.2     1  3371        0.1560
     39  C61       35.1400   42.7320   19.7980 C.2     1  3371        0.2821
     40  O62       35.1190   43.9010   19.4330 O.2     1  3371       -0.2669
     41  N75       34.8850   42.3490   21.0700 N.am    1  3371       -0.1957
     42  C76       34.5530   43.2660   22.1620 C.3     1  3371        0.1418
@<TRIPOS>BOND
     1    11    29    1
     2     8     7    1
     3    30    29    2
     4    20     7    1
     5    29    31    2
     6    29    28    1
     7     7     2    1
     8     7    19    1
     9     5     2   ar
    10     5     4   ar
    11     2    17   ar
    12    28     4    1
    13     4     3   ar
    14    17    16   ar
    15     3    16   ar
    16     3    26    1
    17    16     1    1
    18    26    18    1
    19     1    21   am
    20    25    12   ar
    21    25    14   ar
    22    21    27    2
    23    21    14    1
    24    12    24   ar
    25    14    32   ar
    26    24    13    1
    27    24    33   ar
    28    32    33   ar
    29    33    34    1
    30    34    35    1
    31    34    36    1
    32    35    38    1
    33    36    37    1
    34    38    37    2
    35    38    39    1
    36    40    39    2
    37    39    41   am
    38    41    42    1
    39     6     9   ar
    40     6    15   ar
    41     9    22   ar
    42    42    15    1
    43    15    23   ar
    44    22    10   ar
    45    23    10   ar
