@<TRIPOS>MOLECULE
3ctr_MGP_A_1.pdb
 33 35 0 0 0
SMALL
GASTEIGER

@<TRIPOS>ATOM
      1  PA        26.4300   21.0750    0.5890 P.3     1  MGP1        0.2189
      2  O1A       25.6220   19.9890   -0.0290 O.2     1  MGP1       -0.5170
      3  O2A       26.0950   22.5000    0.2920 O.3     1  MGP1       -0.4371
      4  O3A       26.4290   20.8320    2.1800 O.3     1  MGP1       -0.2700
      5  O5'       27.9960   20.8000    0.2440 O.3     1  MGP1       -0.3112
      6  PB        27.4430   21.6270    3.1440 P.3     1  MGP1        0.2277
      7  O1B       27.3080   23.0790    2.8820 O.2     1  MGP1       -0.5168
      8  O2B       28.7760   20.9920    3.0680 O.3     1  MGP1       -0.4368
      9  O3B       26.7930   21.3120    4.5780 O.3     1  MGP1       -0.2258
     10  PC        26.7610   19.8200    5.1970 P.3     1  MGP1        0.5373
     11  O1C       28.0990   19.2170    5.4330 O.3     1  MGP1       -0.1143
     12  O2C       25.8340   18.8940    4.2470 O.2     1  MGP1       -0.2221
     13  O3C       25.9290   19.9960    6.5790 O.3     1  MGP1       -0.1143
     14  C5'       28.7450   21.6180   -0.6640 C.3     1  MGP1        0.1813
     15  C4'       29.5810   20.7880   -1.6500 C.3     1  MGP1        0.1799
     16  O4'       30.1730   19.6070   -1.0190 O.3     1  MGP1       -0.3326
     17  C3'       28.6940   20.2530   -2.7780 C.3     1  MGP1        0.2158
     18  O3'       28.6240   21.2390   -3.8260 O.3     1  MGP1       -0.2175
     19  C2'       29.4780   19.0240   -3.2450 C.3     1  MGP1        0.2310
     20  O2'       30.5400   19.4180   -4.1240 O.3     1  MGP1       -0.2158
     21  C1'       30.0800   18.4850   -1.9320 C.3     1  MGP1        0.2287
     22  N9        29.1760   17.4750   -1.3250 N.pl3   1  MGP1       -0.2454
     23  C8        28.2650   17.6910   -0.3730 C.3     1  MGP1        0.1735
     24  N7        27.6530   16.5410   -0.1130 N.3     1  MGP1       -0.2343
     25  CM7       26.5800   16.4150    0.9050 C.3     1  MGP1        0.0924
     26  C5        28.1570   15.5670   -0.8790 C.3     1  MGP1        0.2475
     27  C6        27.9340   14.1920   -1.0350 C.1     1  MGP1        0.2145
     28  O6        27.0950   13.5790   -0.3710 O.2     1  MGP1       -0.2115
     29  N1        28.6950   13.4980   -1.9770 N.2     1  MGP1       -0.2526
     30  C2        29.6610   14.1870   -2.7240 C.1     1  MGP1        0.2525
     31  N2        30.4110   13.5580   -3.6230 N.pl3   1  MGP1       -0.0226
     32  N3        29.8460   15.4970   -2.5530 N.2     1  MGP1       -0.3118
     33  C4        29.1360   16.1870   -1.6540 C.2     1  MGP1        0.2086
@<TRIPOS>BOND
     1    20    19    1
     2    18    17    1
     3    31    30    1
     4    19    17    1
     5    19    21    1
     6    17    15    1
     7    30    32    2
     8    30    29    2
     9    32    33    2
    10    29    27    2
    11    21    22    1
    12    21    16    1
    13    33    22    1
    14    33    26    1
    15    15    16    1
    16    15    14    1
    17    22    23    1
    18    27    26    1
    19    27    28    2
    20    26    24    1
    21    14     5    1
    22    23    24    1
    23    24    25    1
    24     2     1    2
    25     5     1    1
    26     3     1    1
    27     1     4    1
    28     4     6    1
    29     7     6    2
    30     8     6    1
    31     6     9    1
    32    12    10    2
    33     9    10    1
    34    10    11    1
    35    10    13    1
