@<TRIPOS>MOLECULE
3ctt_3CU_A_1.pdb
 14 15 0 0 0
SMALL
GASTEIGER

@<TRIPOS>ATOM
      1  O7         1.2030  -15.8810   23.4610 O.3   1001  3CU1001    -0.2188
      2  C7         0.8370  -16.3910   22.1910 C.3   1001  3CU1001     0.2005
      3  C7A        0.9850  -15.2550   21.1710 C.3   1001  3CU1001     0.1242
      4  C1        -0.1130  -15.2920   20.0860 C.3   1001  3CU1001     0.2006
      5  O1        -1.2480  -14.4570   20.3750 O.3   1001  3CU1001    -0.2188
      6  C2         0.7050  -14.7420   18.9140 C.3   1001  3CU1001     0.2006
      7  O2         0.0420  -14.9370   17.6800 O.3   1001  3CU1001    -0.2188
      8  C3         1.8670  -15.7000   18.9980 C.3   1001  3CU1001     0.1242
      9  C8         3.0530  -15.2750   18.1130 C.3   1001  3CU1001     0.2006
     10  O8         3.3870  -13.9110   18.3650 O.3   1001  3CU1001    -0.2188
     11  N4         2.2480  -15.5560   20.4210 N.3   1001  3CU1001    -0.2641
     12  C5         2.8580  -16.8060   20.9590 C.3   1001  3CU1001     0.1083
     13  C6         1.7950  -17.5160   21.7440 C.3   1001  3CU1001     0.1994
     14  OXT        1.0830  -18.3910   20.8650 O.3   1001  3CU1001    -0.2189
@<TRIPOS>BOND
     1     7     6    1
     2     9    10    1
     3     9     8    1
     4     6     8    1
     5     6     4    1
     6     8    11    1
     7     4     5    1
     8     4     3    1
     9    11    12    1
    10    11     3    1
    11    14    13    1
    12    12    13    1
    13     3     2    1
    14    13     2    1
    15     2     1    1
