@<TRIPOS>MOLECULE
3cu0_UDP_A_1.pdb
 25 26 0 0 0
SMALL
GASTEIGER

@<TRIPOS>ATOM
      1  N1        23.0780   -4.9260   16.2770 N.am  501  UDP501     -0.1766
      2  C2        23.0060   -6.3310   16.1910 C.1   501  UDP501      0.2845
      3  N3        24.2120   -6.9810   16.4060 N.2   501  UDP501     -0.2452
      4  C4        25.4530   -6.3760   16.6900 C.1   501  UDP501      0.2182
      5  C5        25.4280   -4.9420   16.7490 C.2   501  UDP501      0.1242
      6  C6        24.3000   -4.2860   16.5530 C.2   501  UDP501      0.0929
      7  O2        21.9310   -6.8700   15.9510 O.2   501  UDP501     -0.1918
      8  O4        26.4390   -7.0590   16.8630 O.2   501  UDP501     -0.2085
      9  C1'       21.8130   -4.1780   16.0850 C.3   501  UDP501      0.2401
     10  C2'       21.3760   -3.1250   17.0680 C.3   501  UDP501      0.2319
     11  O2'       20.5080   -3.6230   18.1170 O.3   501  UDP501     -0.2157
     12  C3'       20.7320   -2.0670   16.1720 C.3   501  UDP501      0.2158
     13  C4'       21.4150   -2.2200   14.8120 C.3   501  UDP501      0.1799
     14  O4'       21.8380   -3.6070   14.7980 O.3   501  UDP501     -0.3320
     15  O3'       19.3340   -2.3140   16.0400 O.3   501  UDP501     -0.2175
     16  C5'       22.5530   -1.2250   14.5670 C.3   501  UDP501      0.1813
     17  O5'       23.6200   -1.0860   15.5210 O.3   501  UDP501     -0.3111
     18  PA        23.7620    0.1960   16.4640 P.3   501  UDP501      0.2231
     19  O1A       24.6670   -0.1280   17.5850 O.3   501  UDP501     -0.4370
     20  O2A       22.4630    0.7480   16.9400 O.2   501  UDP501     -0.5169
     21  O3A       24.3730    1.2210   15.3290 O.3   501  UDP501     -0.2261
     22  PB        24.7490    2.7230   15.4400 P.3   501  UDP501      0.5373
     23  O1B       24.2520    3.1450   13.9810 O.2   501  UDP501     -0.2221
     24  O2B       26.2300    2.7940   15.5390 O.3   501  UDP501     -0.1143
     25  O3B       24.2550    3.2980   16.7170 O.3   501  UDP501     -0.1143
@<TRIPOS>BOND
     1    23    22    2
     2    16    13    1
     3    16    17    1
     4    14    13    1
     5    14     9    1
     6    13    12    1
     7    21    22    1
     8    21    18    1
     9    22    24    1
    10    22    25    1
    11    17    18    1
    12     7     2    2
    13    15    12    1
    14     9     1    1
    15     9    10    1
    16    12    10    1
    17     2     1   am
    18     2     3    2
    19     1     6    1
    20     3     4    2
    21    18    20    2
    22    18    19    1
    23     6     5    2
    24     4     5    1
    25     4     8    2
    26    10    11    1
