@<TRIPOS>MOLECULE
3cu0_GAL_A_1.pdb
 11 11 0 0 0
SMALL
GASTEIGER

@<TRIPOS>ATOM
      1  C1        27.3260    7.1020    9.3140 C.3     1  GAL1        0.1777
      2  C2        26.4470    5.8580    9.5270 C.3     1  GAL1        0.2141
      3  C3        25.2530    5.8290    8.5690 C.3     1  GAL1        0.2173
      4  C4        24.5100    7.1670    8.6290 C.3     1  GAL1        0.2142
      5  C5        25.5000    8.2680    8.2930 C.3     1  GAL1        0.1810
      6  C6        24.8670    9.6360    8.2710 C.3     1  GAL1        0.2141
      7  O2        27.2300    4.6880    9.3370 O.3     1  GAL1       -0.2176
      8  O3        24.3820    4.7670    8.9360 O.3     1  GAL1       -0.2175
      9  O4        24.0160    7.3790    9.9460 O.3     1  GAL1       -0.2176
     10  O5        26.5280    8.2950    9.2940 O.3     1  GAL1       -0.3481
     11  O6        23.8570    9.6960    7.2840 O.3     1  GAL1       -0.2176
@<TRIPOS>BOND
     1    11     6    1
     2     6     5    1
     3     5     4    1
     4     5    10    1
     5     3     4    1
     6     3     8    1
     7     3     2    1
     8     4     9    1
     9    10     1    1
    10     1     2    1
    11     7     2    1
