@<TRIPOS>MOLECULE
3cu4_HEM_A_1.pdb
 43 50 0 0 0
SMALL
GASTEIGER

@<TRIPOS>ATOM
      1 FE         11.5340   -2.3850    7.0060 Fe    199  HEM199      0.0000
      2  CHA        9.6860   -5.2280    6.5620 C.2   199  HEM199      0.0000
      3  CHB       10.2740   -1.1240    4.0870 C.2   199  HEM199      0.0000
      4  CHC       13.2060    0.5360    7.6060 C.2   199  HEM199      0.0000
      5  CHD       12.9700   -3.8020    9.7970 C.2   199  HEM199      0.0000
      6  NA        10.2670   -3.0370    5.6170 N.ar  199  HEM199      0.0000
      7  C1A        9.6400   -4.2700    5.5620 C.ar  199  HEM199      0.0000
      8  C2A        8.8650   -4.4130    4.3530 C.ar  199  HEM199      0.0000
      9  C3A        8.9460   -3.2300    3.6930 C.ar  199  HEM199      0.0000
     10  C4A        9.8450   -2.3900    4.4700 C.ar  199  HEM199      0.0000
     11  CMA        8.2270   -2.8310    2.4090 C.3   199  HEM199      0.0000
     12  CAA        8.1300   -5.6900    3.9490 C.3   199  HEM199      0.0000
     13  CBA        6.7440   -5.7870    4.5720 C.3   199  HEM199      0.0000
     14  CGA        6.0880   -7.1380    4.3520 C.2   199  HEM199      0.0000
     15  O1A        6.4270   -7.8140    3.3580 O.co2 199  HEM199      0.0000
     16  O2A        5.2200   -7.5160    5.1660 O.co2 199  HEM199      0.0000
     17  NB        11.7130   -0.6680    6.0490 N.2   199  HEM199      0.0000
     18  C1B       11.1630   -0.3290    4.8150 C.2   199  HEM199      0.0000
     19  C2B       11.5730    1.0040    4.4260 C.2   199  HEM199      0.0000
     20  C3B       12.3250    1.5050    5.4450 C.2   199  HEM199      0.0000
     21  C4B       12.4310    0.4620    6.4460 C.2   199  HEM199      0.0000
     22  CMB       11.2430    1.6920    3.1040 C.3   199  HEM199      0.0000
     23  CAB       12.9400    2.8990    5.5480 C.3   199  HEM199      0.0000
     24  CBB       11.9190    4.0280    5.5650 C.3   199  HEM199      0.0000
     25  NC        12.8100   -1.7720    8.3900 N.ar  199  HEM199      0.0000
     26  C1C       13.4040   -0.5220    8.4910 C.ar  199  HEM199      0.0000
     27  C2C       14.3290   -0.4730    9.6000 C.ar  199  HEM199      0.0000
     28  C3C       14.3160   -1.7190   10.1600 C.ar  199  HEM199      0.0000
     29  C4C       13.3500   -2.5130    9.4340 C.ar  199  HEM199      0.0000
     30  CMC       15.1550    0.7270   10.0480 C.3   199  HEM199      0.0000
     31  CAC       15.3000   -2.2790   11.1900 C.3   199  HEM199      0.0000
     32  CBC       15.3160   -1.6090   12.5580 C.3   199  HEM199      0.0000
     33  ND        11.3180   -4.0980    8.0000 N.2   199  HEM199      0.0000
     34  C1D       11.9770   -4.5160    9.1470 C.2   199  HEM199      0.0000
     35  C2D       11.4270   -5.7710    9.6280 C.2   199  HEM199      0.0000
     36  C3D       10.4660   -6.1420    8.7580 C.2   199  HEM199      0.0000
     37  C4D       10.4310   -5.1310    7.7210 C.2   199  HEM199      0.0000
     38  CMD       11.7780   -6.4990   10.9200 C.3   199  HEM199      0.0000
     39  CAD        9.5440   -7.3410    8.9330 C.3   199  HEM199      0.0000
     40  CBD        8.1840   -6.9510    9.4950 C.3   199  HEM199      0.0000
     41  CGD        7.2920   -8.1500    9.7470 C.2   199  HEM199      0.0000
     42  O1D        6.0830   -8.0570    9.4590 O.co2 199  HEM199      0.0000
     43  O2D        7.7960   -9.1800   10.2410 O.co2 199  HEM199      0.0000
@<TRIPOS>BOND
     1    11     9    1
     2    22    19    1
     3    15    14   ar
     4     9     8   ar
     5     9    10   ar
     6    12     8    1
     7    12    13    1
     8     3    10    2
     9     3    18    1
    10    14    13    1
    11    14    16   ar
    12     8     7   ar
    13    19    18    1
    14    19    20    2
    15    10     6   ar
    16    18    17    2
    17    20    23    1
    18    20    21    1
    19    23    24    1
    20     7     6   ar
    21     7     2    2
    22     6     1    1
    23    17    21    1
    24    17     1    1
    25    21     4    2
    26     2    37    1
    27     1    33    1
    28     1    25    1
    29     4    26    1
    30    37    33    2
    31    37    36    1
    32    33    34    1
    33    25    26   ar
    34    25    29   ar
    35    26    27   ar
    36    36    39    1
    37    36    35    2
    38    39    40    1
    39    34    35    1
    40    34     5    2
    41    29     5    1
    42    29    28   ar
    43    42    41   ar
    44    40    41    1
    45    27    30    1
    46    27    28   ar
    47    35    38    1
    48    41    43   ar
    49    28    31    1
    50    31    32    1
