@<TRIPOS>MOLECULE
3cuf_9MR_A_1.pdb
 21 22 0 0 0
SMALL
GASTEIGER

@<TRIPOS>ATOM
      1  O2B       17.9670   60.9000   38.4800 O.3   316  9MR316     -0.2149
      2  C2B       16.9890   61.9420   38.7560 C.3   316  9MR316      0.2406
      3  C3B       15.5490   61.4210   38.8050 C.3   316  9MR316      0.2198
      4  O3B       15.3950   60.5960   39.9610 O.3   316  9MR316     -0.2174
      5  C4B       14.5460   62.5810   38.8840 C.3   316  9MR316      0.2144
      6  O4B       13.2140   62.0660   38.6570 O.3   316  9MR316     -0.2176
      7  C5B       14.8550   63.6860   37.8570 C.3   316  9MR316      0.1835
      8  C6B       14.0660   64.9950   38.0750 C.3   316  9MR316      0.2142
      9  O6B       14.4490   65.6230   39.2950 O.3   316  9MR316     -0.2176
     10  O5B       16.2510   64.0720   37.9930 O.3   316  9MR316     -0.3256
     11  C1B       17.0700   62.9820   37.6540 C.3   316  9MR316      0.2695
     12  O3A       18.4270   63.4430   37.7130 O.3   316  9MR316     -0.3283
     13  C3A       18.7840   64.3000   36.5830 C.3   316  9MR316      0.1533
     14  C4A       19.7950   65.3200   37.1340 C.3   316  9MR316      0.1963
     15  O4A       19.1640   66.0370   38.1930 O.3   316  9MR316     -0.2190
     16  C5M       20.2110   66.3600   36.0730 C.3   316  9MR316      0.1240
     17  N5A       20.7010   65.7020   34.8440 N.3   316  9MR316     -0.2151
     18  C1A       19.7660   64.6720   34.2860 C.3   316  9MR316      0.0939
     19  C2A       19.4420   63.6140   35.3570 C.3   316  9MR316      0.0802
     20  C6A       18.6120   62.4740   34.7110 C.3   316  9MR316      0.1860
     21  O6A       17.3560   62.9660   34.2240 O.3   316  9MR316     -0.2203
@<TRIPOS>BOND
     1    21    20    1
     2    18    17    1
     3    18    19    1
     4    20    19    1
     5    17    16    1
     6    19    13    1
     7    16    14    1
     8    13    14    1
     9    13    12    1
    10    14    15    1
    11    11    12    1
    12    11    10    1
    13    11     2    1
    14     7    10    1
    15     7     8    1
    16     7     5    1
    17     8     9    1
    18     1     2    1
    19     6     5    1
    20     2     3    1
    21     3     5    1
    22     3     4    1
