@<TRIPOS>MOLECULE
3cug_G3I_A_1.pdb
 43 46 0 0 0
SMALL
GASTEIGER

@<TRIPOS>ATOM
      1  O24        9.0560   62.1270   44.1900 O.3   316  G3I316     -0.2149
      2  C24        8.4810   60.8130   44.0870 C.3   316  G3I316      0.2406
      3  C34        8.7910   59.9900   45.3410 C.3   316  G3I316      0.2198
      4  O34        8.3010   60.6730   46.5070 O.3   316  G3I316     -0.2174
      5  C44        8.1460   58.5940   45.2460 C.3   316  G3I316      0.2144
      6  O44        8.7140   57.7420   46.2530 O.3   316  G3I316     -0.2176
      7  C54        8.3040   57.9490   43.8400 C.3   316  G3I316      0.1835
      8  C64        7.1980   56.9020   43.6760 C.3   316  G3I316      0.2142
      9  O64        7.6450   55.6490   44.2140 O.3   316  G3I316     -0.2176
     10  O54        8.2410   58.8610   42.6800 O.3   316  G3I316     -0.3256
     11  C14        9.0190   60.0690   42.8550 C.3   316  G3I316      0.2695
     12  O43        8.9870   60.9400   41.6900 O.3   316  G3I316     -0.3257
     13  C43       10.1520   60.8970   40.8050 C.3   316  G3I316      0.1804
     14  C53       11.5440   61.2530   41.4130 C.3   316  G3I316      0.1803
     15  O53       12.5250   61.2160   40.3530 O.3   316  G3I316     -0.3257
     16  C63       12.1150   60.3090   42.4780 C.3   316  G3I316      0.2141
     17  O63       12.4570   59.0540   41.8640 O.3   316  G3I316     -0.2176
     18  C33        9.8240   61.9390   39.7060 C.3   316  G3I316      0.2167
     19  O33        8.6810   61.5120   38.9500 O.3   316  G3I316     -0.2175
     20  C23       10.9860   62.2020   38.7280 C.3   316  G3I316      0.2404
     21  O23       10.7530   63.4280   38.0320 O.3   316  G3I316     -0.2149
     22  C13       12.3420   62.2900   39.4250 C.3   316  G3I316      0.2695
     23  O42       13.2820   62.0780   38.3810 O.3   316  G3I316     -0.3257
     24  C42       14.5770   62.6160   38.7540 C.3   316  G3I316      0.1804
     25  C52       14.8990   63.7360   37.7480 C.3   316  G3I316      0.1803
     26  O52       16.2970   64.0930   37.8400 O.3   316  G3I316     -0.3257
     27  C62       14.0250   65.0030   37.9960 C.3   316  G3I316      0.2141
     28  O62       14.4550   65.7460   39.1550 O.3   316  G3I316     -0.2176
     29  C32       15.6030   61.4580   38.7360 C.3   316  G3I316      0.2167
     30  O32       15.4320   60.6440   39.8970 O.3   316  G3I316     -0.2175
     31  C22       17.0450   61.9650   38.6830 C.3   316  G3I316      0.2404
     32  O22       17.9440   60.8860   38.4110 O.3   316  G3I316     -0.2149
     33  C12       17.1360   62.9810   37.5480 C.3   316  G3I316      0.2695
     34  O41       18.4760   63.4530   37.5880 O.3   316  G3I316     -0.3283
     35  C41       18.8510   64.3320   36.4880 C.3   316  G3I316      0.1533
     36  C31       19.8450   65.3600   37.0420 C.3   316  G3I316      0.1963
     37  O31       19.1800   66.0470   38.0850 O.3   316  G3I316     -0.2190
     38  C21       20.3030   66.4230   35.9990 C.3   316  G3I316      0.1240
     39  N11       20.7240   65.7690   34.7320 N.3   316  G3I316     -0.2151
     40  C71       19.8120   64.7130   34.1960 C.3   316  G3I316      0.0939
     41  C51       19.5050   63.6540   35.2770 C.3   316  G3I316      0.0802
     42  C61       18.6550   62.5160   34.6790 C.3   316  G3I316      0.1860
     43  O61       17.4010   62.9840   34.1600 O.3   316  G3I316     -0.2203
@<TRIPOS>BOND
     1    43    42    1
     2    40    39    1
     3    40    41    1
     4    42    41    1
     5    39    38    1
     6    41    35    1
     7    38    36    1
     8    35    36    1
     9    35    34    1
    10    36    37    1
    11    33    34    1
    12    33    26    1
    13    33    31    1
    14    25    26    1
    15    25    27    1
    16    25    24    1
    17    27    28    1
    18    21    20    1
    19    23    24    1
    20    23    22    1
    21    32    31    1
    22    31    29    1
    23    20    22    1
    24    20    18    1
    25    29    24    1
    26    29    30    1
    27    19    18    1
    28    22    15    1
    29    18    13    1
    30    15    14    1
    31    13    14    1
    32    13    12    1
    33    14    16    1
    34    12    11    1
    35    17    16    1
    36    10    11    1
    37    10     7    1
    38    11     2    1
    39     8     7    1
    40     8     9    1
    41     7     5    1
    42     2     1    1
    43     2     3    1
    44     5     3    1
    45     5     6    1
    46     3     4    1
