@<TRIPOS>MOLECULE
3cuh_G2I_A_1.pdb
 32 34 0 0 0
SMALL
GASTEIGER

@<TRIPOS>ATOM
      1  O61       17.4670   63.3270   34.4260 O.3   316  G2I316     -0.2203
      2  C61       18.7430   62.9140   34.8540 C.3   316  G2I316      0.1860
      3  C51       19.5530   64.0700   35.4830 C.3   316  G2I316      0.0802
      4  C71       19.8380   65.1600   34.4500 C.3   316  G2I316      0.0939
      5  N11       20.8250   66.0960   34.9980 N.3   316  G2I316     -0.2151
      6  C21       20.3150   66.7480   36.2040 C.3   316  G2I316      0.1240
      7  C31       19.8230   65.7790   37.2770 C.3   316  G2I316      0.1963
      8  O31       19.1670   66.5050   38.3200 O.3   316  G2I316     -0.2190
      9  C41       18.8910   64.7000   36.7170 C.3   316  G2I316      0.1533
     10  O41       18.5940   63.8420   37.8020 O.3   316  G2I316     -0.3283
     11  C12       17.2370   63.4090   37.8410 C.3   316  G2I316      0.2695
     12  C22       17.0750   62.3200   38.9000 C.3   316  G2I316      0.2404
     13  O22       17.9700   61.2630   38.6220 O.3   316  G2I316     -0.2149
     14  C32       15.6260   61.8040   38.9840 C.3   316  G2I316      0.2167
     15  O32       15.4960   60.9550   40.1060 O.3   316  G2I316     -0.2175
     16  O52       16.3630   64.4620   38.1650 O.3   316  G2I316     -0.3257
     17  C52       14.9950   64.0730   38.0850 C.3   316  G2I316      0.1803
     18  C62       14.1220   65.3070   38.3170 C.3   316  G2I316      0.2141
     19  O62       14.4780   65.9600   39.5170 O.3   316  G2I316     -0.2176
     20  C42       14.6220   62.9450   39.0750 C.3   316  G2I316      0.1804
     21  O42       13.2670   62.4840   38.9540 O.3   316  G2I316     -0.3257
     22  C13       12.6790   62.2070   40.2490 C.3   316  G2I316      0.2695
     23  C23       11.2720   62.8030   40.4730 C.3   316  G2I316      0.2406
     24  O23       11.2170   63.4930   41.7190 O.3   316  G2I316     -0.2149
     25  C33       10.1540   61.8020   40.4660 C.3   316  G2I316      0.2198
     26  O33        8.9410   62.4110   39.9990 O.3   316  G2I316     -0.2174
     27  C43       10.4370   60.3030   40.3520 C.3   316  G2I316      0.2144
     28  O43        9.7780   59.7440   41.4340 O.3   316  G2I316     -0.2176
     29  O53       12.8720   60.9240   40.5990 O.3   316  G2I316     -0.3256
     30  C53       11.9150   59.9240   40.3730 C.3   316  G2I316      0.1835
     31  C63       12.3640   58.6050   39.7210 C.3   316  G2I316      0.2142
     32  O63       13.7530   58.5000   39.5670 O.3   316  G2I316     -0.2176
@<TRIPOS>BOND
     1     1     2    1
     2     4     5    1
     3     4     3    1
     4     2     3    1
     5     5     6    1
     6     3     9    1
     7     6     7    1
     8     9     7    1
     9     9    10    1
    10     7     8    1
    11    10    11    1
    12    11    16    1
    13    11    12    1
    14    17    16    1
    15    17    18    1
    16    17    20    1
    17    18    19    1
    18    13    12    1
    19    12    14    1
    20    21    20    1
    21    21    22    1
    22    14    20    1
    23    14    15    1
    24    32    31    1
    25    31    30    1
    26    26    25    1
    27    22    23    1
    28    22    29    1
    29    27    30    1
    30    27    25    1
    31    27    28    1
    32    30    29    1
    33    25    23    1
    34    23    24    1
