@<TRIPOS>MOLECULE
3cui_X4S_A_1.pdb
 37 40 0 0 0
SMALL
GASTEIGER

@<TRIPOS>ATOM
      1  O21       10.3120   64.0440   38.9390 O.3   316  X4S316     -0.2167
      2  C21       10.4940   63.1240   40.0260 C.3   316  X4S316      0.2219
      3  C31        9.9620   63.7650   41.3190 C.3   316  X4S316      0.2181
      4  O31        8.5310   63.7040   41.3410 O.3   316  X4S316     -0.2175
      5  C41       10.5000   63.0780   42.5790 C.3   316  X4S316      0.2142
      6  O41       10.0960   63.8340   43.7200 O.3   316  X4S316     -0.2176
      7  C51       12.0270   62.9980   42.5500 C.3   316  X4S316      0.1788
      8  O51       12.3860   62.1970   41.3990 O.3   316  X4S316     -0.3399
      9  C11       11.9910   62.7980   40.1320 C.3   316  X4S316      0.1956
     10  S42       12.4900   61.6270   38.8080 S.3   316  X4S316     -0.1050
     11  C42       14.2080   62.2570   38.6740 C.3   316  X4S316      0.1125
     12  C32       15.2610   61.1350   38.7840 C.3   316  X4S316      0.1978
     13  O32       15.2200   60.5360   40.0730 O.3   316  X4S316     -0.2193
     14  C22       16.6500   61.7110   38.5430 C.3   316  X4S316      0.2202
     15  O22       17.6490   60.6750   38.4970 O.3   316  X4S316     -0.2168
     16  C52       14.3990   63.0810   37.3840 C.3   316  X4S316      0.1567
     17  O52       15.7730   63.5690   37.3370 O.3   316  X4S316     -0.3417
     18  C12       16.5780   62.4070   37.1950 C.3   316  X4S316      0.1955
     19  S43       18.2080   63.0410   36.7900 S.3   316  X4S316     -0.1050
     20  C43       18.0660   63.3070   34.9840 C.3   316  X4S316      0.1125
     21  C33       17.6610   64.7520   34.6340 C.3   316  X4S316      0.1978
     22  O33       16.2560   64.9530   34.8310 O.3   316  X4S316     -0.2193
     23  C23       17.9880   65.0560   33.1650 C.3   316  X4S316      0.2202
     24  O23       17.7080   66.4160   32.8510 O.3   316  X4S316     -0.2168
     25  C53       19.4360   62.9600   34.3910 C.3   316  X4S316      0.1567
     26  O53       19.6370   63.3370   33.0040 O.3   316  X4S316     -0.3417
     27  C13       19.4520   64.7430   32.8480 C.3   316  X4S316      0.1955
     28  S13       19.8930   65.1290   31.1230 S.3   316  X4S316     -0.1050
     29  C44       18.7910   64.0510   30.1350 C.3   316  X4S316      0.1126
     30  C54       19.6590   63.1820   29.2060 C.3   316  X4S316      0.1584
     31  O54       18.9300   62.5820   28.0800 O.3   316  X4S316     -0.3256
     32  C14       18.2780   63.6730   27.3500 C.3   316  X4S316      0.3022
     33  O14       17.9220   63.4290   25.9900 O.3   316  X4S316     -0.1869
     34  C24       17.1110   64.0420   28.2710 C.3   316  X4S316      0.2417
     35  O24       16.0850   64.7760   27.5990 O.3   316  X4S316     -0.2148
     36  C34       17.7330   64.8850   29.3730 C.3   316  X4S316      0.1997
     37  O34       16.7030   65.3590   30.2400 O.3   316  X4S316     -0.2192
@<TRIPOS>BOND
     1    33    32    1
     2    32    31    1
     3    32    34    1
     4    35    34    1
     5    31    30    1
     6    34    36    1
     7    30    29    1
     8    36    29    1
     9    36    37    1
    10    29    28    1
    11    28    27    1
    12    27    26    1
    13    27    23    1
    14    24    23    1
    15    26    25    1
    16    23    21    1
    17    25    20    1
    18    21    22    1
    19    21    20    1
    20    20    19    1
    21    19    18    1
    22    18    17    1
    23    18    14    1
    24    17    16    1
    25    16    11    1
    26    15    14    1
    27    14    12    1
    28    11    12    1
    29    11    10    1
    30    12    13    1
    31    10     9    1
    32     1     2    1
    33     2     9    1
    34     2     3    1
    35     9     8    1
    36     3     4    1
    37     3     5    1
    38     8     7    1
    39     7     5    1
    40     5     6    1
