@<TRIPOS>MOLECULE
3cuj_X5S_A_1.pdb
 46 50 0 0 0
SMALL
GASTEIGER

@<TRIPOS>ATOM
      1  O21       10.5640   63.9760   38.9720 O.3   316  X5S316     -0.2167
      2  C21       10.5480   63.0760   40.0990 C.3   316  X5S316      0.2219
      3  C31       10.0450   63.8410   41.3320 C.3   316  X5S316      0.2181
      4  O31        8.6480   64.0910   41.1520 O.3   316  X5S316     -0.2175
      5  C41       10.2790   63.0580   42.6440 C.3   316  X5S316      0.2142
      6  O41        9.9510   63.8790   43.7690 O.3   316  X5S316     -0.2176
      7  C51       11.7350   62.5790   42.7740 C.3   316  X5S316      0.1788
      8  O51       12.0710   61.7730   41.6190 O.3   316  X5S316     -0.3399
      9  C11       11.9490   62.4830   40.3360 C.3   316  X5S316      0.1956
     10  S42       12.3880   61.3520   38.9520 S.3   316  X5S316     -0.1050
     11  C42       14.0880   61.9790   38.7340 C.3   316  X5S316      0.1125
     12  C32       15.1420   60.8510   38.8260 C.3   316  X5S316      0.1978
     13  O32       15.0750   60.2080   40.0830 O.3   316  X5S316     -0.2193
     14  C22       16.5200   61.4590   38.6400 C.3   316  X5S316      0.2202
     15  O22       17.5360   60.4510   38.5970 O.3   316  X5S316     -0.2168
     16  C52       14.2140   62.7830   37.4210 C.3   316  X5S316      0.1567
     17  O52       15.5620   63.3300   37.3970 O.3   316  X5S316     -0.3417
     18  C12       16.4450   62.2090   37.3160 C.3   316  X5S316      0.1955
     19  S43       18.0820   62.8890   37.0990 S.3   316  X5S316     -0.1050
     20  C43       18.1390   63.0920   35.2740 C.3   316  X5S316      0.1125
     21  C33       17.6390   64.4670   34.7650 C.3   316  X5S316      0.1978
     22  O33       16.2090   64.5800   34.8490 O.3   316  X5S316     -0.2193
     23  C23       18.0370   64.6860   33.2880 C.3   316  X5S316      0.2202
     24  O23       17.7110   65.9910   32.8310 O.3   316  X5S316     -0.2168
     25  C53       19.5730   62.8450   34.8070 C.3   316  X5S316      0.1567
     26  O53       19.7340   63.0560   33.3680 O.3   316  X5S316     -0.3417
     27  C13       19.5210   64.4470   33.0550 C.3   316  X5S316      0.1955
     28  S13       19.9030   64.8740   31.3080 S.3   316  X5S316     -0.1050
     29  C44       18.6650   63.9070   30.3750 C.3   316  X5S316      0.1125
     30  C34       17.6410   64.8020   29.6250 C.3   316  X5S316      0.1978
     31  O34       16.6340   65.2870   30.5050 O.3   316  X5S316     -0.2193
     32  C24       16.9900   64.0270   28.4810 C.3   316  X5S316      0.2202
     33  O24       16.1420   64.8710   27.6940 O.3   316  X5S316     -0.2168
     34  C54       19.4670   62.9770   29.4640 C.3   316  X5S316      0.1567
     35  O54       18.6340   62.3930   28.4570 O.3   316  X5S316     -0.3417
     36  C14       18.1700   63.5030   27.6750 C.3   316  X5S316      0.1955
     37  S45       17.9580   62.8690   25.9910 S.3   316  X5S316     -0.1050
     38  C45       19.7120   62.8990   25.4710 C.3   316  X5S316      0.1126
     39  C55       19.7540   63.1030   23.9430 C.3   316  X5S316      0.1584
     40  O55       20.9640   62.6780   23.2590 O.3   316  X5S316     -0.3256
     41  C15       21.4260   61.3530   23.6810 C.3   316  X5S316      0.3022
     42  O15       22.5040   60.8500   22.8650 O.3   316  X5S316     -0.1869
     43  C25       21.8020   61.5090   25.1620 C.3   316  X5S316      0.2417
     44  O25       22.5670   60.3950   25.6370 O.3   316  X5S316     -0.2148
     45  C35       20.4930   61.6370   25.9410 C.3   316  X5S316      0.1997
     46  O35       20.7690   61.6350   27.3520 O.3   316  X5S316     -0.2192
@<TRIPOS>BOND
     1    42    41    1
     2    40    41    1
     3    40    39    1
     4    41    43    1
     5    39    38    1
     6    43    44    1
     7    43    45    1
     8    38    45    1
     9    38    37    1
    10    45    46    1
    11    37    36    1
    12    36    35    1
    13    36    32    1
    14    33    32    1
    15    35    34    1
    16    32    30    1
    17    34    29    1
    18    30    29    1
    19    30    31    1
    20    29    28    1
    21    28    27    1
    22    24    23    1
    23    27    23    1
    24    27    26    1
    25    23    21    1
    26    26    25    1
    27    21    22    1
    28    21    20    1
    29    25    20    1
    30    20    19    1
    31    19    18    1
    32    18    17    1
    33    18    14    1
    34    17    16    1
    35    16    11    1
    36    15    14    1
    37    14    12    1
    38    11    12    1
    39    11    10    1
    40    12    13    1
    41    10     9    1
    42     1     2    1
    43     2     9    1
    44     2     3    1
    45     9     8    1
    46     4     3    1
    47     3     5    1
    48     8     7    1
    49     5     7    1
    50     5     6    1
