@<TRIPOS>MOLECULE
3cuk_4P5_A_1.pdb
 11 12 0 0 0
SMALL
GASTEIGER

@<TRIPOS>ATOM
      1  C2       -20.1580  -18.2090   15.0160 C.ar  402  4P5402      0.1776
      2  C3       -21.2790  -19.0030   15.2120 C.ar  402  4P5402      0.1692
      3  C5       -19.7160  -19.8440   16.4330 C.ar  402  4P5402      0.1824
      4  C7       -21.7800  -17.4660   13.8770 C.2   402  4P5402      0.2139
      5  C9       -22.5710  -16.6760   12.9230 C.2   402  4P5402      0.4169
      6  O11      -22.1820  -15.5020   12.5050 O.co2 402  4P5402     -0.2377
      7  O10      -23.5740  -17.3520   12.5620 O.co2 402  4P5402     -0.2377
      8  N8       -22.2820  -18.5840   14.5010 N.2   402  4P5402     -0.3919
      9  C6       -20.4100  -17.2050   14.1490 C.2   402  4P5402      0.0790
     10  O1       -19.1530  -18.6810   15.7640 O.2   402  4P5402     -0.4476
     11  C4       -21.0050  -20.0650   16.1490 C.ar  402  4P5402      0.0758
@<TRIPOS>BOND
     1     6     5   ar
     2     7     5   ar
     3     5     4    1
     4     4     9    1
     5     4     8    2
     6     9     1    2
     7     8     2    2
     8     1     2   ar
     9     1    10   ar
    10     2    11   ar
    11    10     3   ar
    12    11     3   ar
