@<TRIPOS>MOLECULE
3cut_179_A_1.pdb
 27 29 0 0 0
SMALL
GASTEIGER

@<TRIPOS>ATOM
      1  C18       37.2930   25.8910   32.5080 C.ar  998  179998      0.0166
      2  C17       38.1030   26.4110   33.5150 C.ar  998  179998      0.0013
      3  C16       39.4170   26.7850   33.2240 C.ar  998  179998      0.0000
      4  C15       40.2320   27.2970   34.2350 C.ar  998  179998      0.0000
      5  C14       39.7280   27.4450   35.5300 C.ar  998  179998      0.0000
      6  C13       38.4150   27.0720   35.8270 C.ar  998  179998      0.0000
      7  C12       37.5980   26.5550   34.8180 C.ar  998  179998      0.0001
      8  C11       36.2830   26.1760   35.1100 C.ar  998  179998      0.0013
      9  C10       35.4740   25.6590   34.0950 C.ar  998  179998      0.0166
     10  C9        35.9710   25.5200   32.7940 C.ar  998  179998      0.0738
     11  N2        35.1510   25.0090   31.8700 N.am  998  179998     -0.1715
     12  C8        35.4790   24.4930   30.6760 C.2   998  179998      0.3244
     13  O8        36.6200   24.4300   30.2070 O.2   998  179998     -0.2629
     14  C7        34.3230   23.9470   29.8260 C.2   998  179998      0.3226
     15  O7        33.1730   23.9990   30.2700 O.2   998  179998     -0.2632
     16  N1        34.6170   23.4460   28.6340 N.am  998  179998     -0.1674
     17  C1        33.5320   22.9140   27.7920 C.3   998  179998      0.2451
     18  O5        33.3920   21.4930   28.1000 O.3   998  179998     -0.3315
     19  C5        32.2340   20.9540   27.4500 C.3   998  179998      0.1828
     20  C6        32.0900   19.5120   27.9320 C.3   998  179998      0.2142
     21  O6        33.2120   18.7370   27.4820 O.3   998  179998     -0.2176
     22  C4        32.4010   21.0600   25.9130 C.3   998  179998      0.2144
     23  O4        31.2260   20.5740   25.2930 O.3   998  179998     -0.2176
     24  C3        32.6770   22.5110   25.4550 C.3   998  179998      0.2190
     25  O3        33.0130   22.5640   24.0630 O.3   998  179998     -0.2174
     26  C2        33.8150   23.1250   26.2930 C.3   998  179998      0.2326
     27  O2        33.9870   24.5180   26.0030 O.3   998  179998     -0.2157
@<TRIPOS>BOND
     1    25    24    1
     2    23    22    1
     3    24    22    1
     4    24    26    1
     5    22    19    1
     6    27    26    1
     7    26    17    1
     8    19    20    1
     9    19    18    1
    10    21    20    1
    11    17    18    1
    12    17    16    1
    13    16    14   am
    14    14    15    2
    15    14    12    1
    16    13    12    2
    17    12    11   am
    18    11    10    1
    19     1    10   ar
    20     1     2   ar
    21    10     9   ar
    22     3     2   ar
    23     3     4   ar
    24     2     7   ar
    25     9     8   ar
    26     4     5   ar
    27     7     8   ar
    28     7     6   ar
    29     5     6   ar
