@<TRIPOS>MOLECULE
3cuu_376_A_1.pdb
 27 29 0 0 0
SMALL
GASTEIGER

@<TRIPOS>ATOM
      1  C18       36.5420   26.1020   33.2370 C.ar  998  376998      0.0154
      2  C17       35.4320   25.5540   33.8810 C.ar  998  376998      0.0013
      3  C16       35.3300   25.6510   35.2680 C.ar  998  376998      0.0000
      4  C15       36.3190   26.2830   36.0220 C.ar  998  376998      0.0000
      5  C14       37.4300   26.8250   35.3810 C.ar  998  376998      0.0000
      6  C13       37.5430   26.7370   33.9930 C.ar  998  376998      0.0013
      7  C12       38.6610   27.2880   33.3630 C.ar  998  376998      0.0001
      8  C11       38.7800   27.2090   31.9770 C.ar  998  376998      0.0013
      9  C10       37.7870   26.5750   31.2260 C.ar  998  376998      0.0166
     10  C9        36.6650   26.0070   31.8460 C.ar  998  376998      0.0738
     11  N2        35.6970   25.4190   31.1150 N.am  998  376998     -0.1715
     12  C8        35.8630   24.5820   30.0830 C.2   998  376998      0.3244
     13  O8        36.9550   24.2110   29.6570 O.2   998  376998     -0.2629
     14  C7        34.5990   24.0520   29.3870 C.2   998  376998      0.3226
     15  O7        33.4980   24.4120   29.8070 O.2   998  376998     -0.2632
     16  N1        34.7370   23.2200   28.3630 N.am  998  376998     -0.1674
     17  C1        33.5410   22.6990   27.6590 C.3   998  376998      0.2451
     18  O5        33.4000   21.2840   27.8720 O.3   998  376998     -0.3315
     19  C5        32.1950   20.7970   27.2910 C.3   998  376998      0.1828
     20  C6        32.0670   19.3540   27.7600 C.3   998  376998      0.2142
     21  O6        33.1510   18.5800   27.2450 O.3   998  376998     -0.2176
     22  C4        32.2850   20.9510   25.7560 C.3   998  376998      0.2144
     23  O4        31.0730   20.5230   25.1570 O.3   998  376998     -0.2176
     24  C3        32.5460   22.4080   25.3460 C.3   998  376998      0.2190
     25  O3        32.8560   22.4640   23.9560 O.3   998  376998     -0.2174
     26  C2        33.7140   22.9910   26.1510 C.3   998  376998      0.2326
     27  O2        33.8520   24.3960   25.8970 O.3   998  376998     -0.2157
@<TRIPOS>BOND
     1    25    24    1
     2    23    22    1
     3    24    22    1
     4    24    26    1
     5    22    19    1
     6    27    26    1
     7    26    17    1
     8    21    20    1
     9    19    20    1
    10    19    18    1
    11    17    18    1
    12    17    16    1
    13    16    14   am
    14    14    15    2
    15    14    12    1
    16    13    12    2
    17    12    11   am
    18    11    10    1
    19     9    10   ar
    20     9     8   ar
    21    10     1   ar
    22     8     7   ar
    23     1     2   ar
    24     1     6   ar
    25     7     6   ar
    26     2     3   ar
    27     6     5   ar
    28     3     4   ar
    29     5     4   ar
