@<TRIPOS>MOLECULE
3cuv_475_A_1.pdb
 23 24 0 0 0
SMALL
GASTEIGER

@<TRIPOS>ATOM
      1  C2        33.6610   22.9940   25.9950 C.3   998  475998      0.2326
      2  N2        35.3450   25.0020   31.3580 N.am  998  475998     -0.1527
      3  C3        32.5350   22.3930   25.1380 C.3   998  475998      0.2190
      4  C5        32.1050   20.7510   27.0490 C.3   998  475998      0.1828
      5  O6        33.0400   18.5020   26.9300 O.3   998  475998     -0.2176
      6  C4        32.2590   20.9240   25.5170 C.3   998  475998      0.2144
      7  C10       37.6380   25.6690   31.6750 C.ar  998  475998      0.0362
      8  C11       38.6100   26.1940   32.5270 C.ar  998  475998      0.0045
      9  C12       38.2450   26.5310   33.8300 C.ar  998  475998      0.0208
     10  C13       36.9260   26.3440   34.2440 C.ar  998  475998      0.1004
     11  N3        36.0210   25.8430   33.4090 N.ar  998  475998     -0.2273
     12  C9        36.3270   25.4970   32.1400 C.ar  998  475998      0.1549
     13  C8        35.5250   24.3600   30.1970 C.2   998  475998      0.3257
     14  O8        36.6270   24.1250   29.6920 O.2   998  475998     -0.2629
     15  C7        34.2900   23.8700   29.4330 C.2   998  475998      0.3226
     16  O7        33.1660   24.0730   29.8930 O.2   998  475998     -0.2632
     17  N1        34.5060   23.2360   28.2820 N.am  998  475998     -0.1674
     18  C1        33.3890   22.7260   27.4810 C.3   998  475998      0.2451
     19  O5        33.2540   21.3050   27.7370 O.3   998  475998     -0.3315
     20  C6        31.9690   19.2840   27.4830 C.3   998  475998      0.2142
     21  O4        31.0750   20.4700   24.8520 O.3   998  475998     -0.2176
     22  O3        32.8930   22.4890   23.7550 O.3   998  475998     -0.2174
     23  O2        33.7620   24.4040   25.7630 O.3   998  475998     -0.2157
@<TRIPOS>BOND
     1    22     3    1
     2    21     6    1
     3     3     6    1
     4     3     1    1
     5     6     4    1
     6    23     1    1
     7     1    18    1
     8     5    20    1
     9     4    20    1
    10     4    19    1
    11    18    19    1
    12    18    17    1
    13    17    15   am
    14    15    16    2
    15    15    13    1
    16    14    13    2
    17    13     2   am
    18     2    12    1
    19     7    12   ar
    20     7     8   ar
    21    12    11   ar
    22     8     9   ar
    23    11    10   ar
    24     9    10   ar
