@<TRIPOS>MOLECULE
3cuw_445_A_1.pdb
 23 24 0 0 0
SMALL
GASTEIGER

@<TRIPOS>ATOM
      1  C10       17.3400    9.7260   51.6290 C.ar  920  445920      0.0166
      2  C11       17.1270    9.0310   50.4380 C.ar  920  445920      0.0013
      3  C12       17.5120    9.5990   49.2240 C.ar  920  445920      0.0001
      4  C13       18.1090   10.8600   49.2060 C.ar  920  445920      0.0013
      5  C14       18.3270   11.5480   50.3970 C.ar  920  445920      0.0166
      6  C9        17.9500   10.9880   51.6170 C.ar  920  445920      0.0738
      7  N2        18.1690   11.7070   52.7280 N.am  920  445920     -0.1715
      8  C8        17.8780   11.3570   53.9880 C.2   920  445920      0.3244
      9  O8        17.3600   10.2880   54.3170 O.2   920  445920     -0.2629
     10  C7        18.2050   12.3620   55.1030 C.2   920  445920      0.3226
     11  O7        18.7190   13.4440   54.8050 O.2   920  445920     -0.2632
     12  N1        17.9210   12.0040   56.3540 N.am  920  445920     -0.1674
     13  C1        18.1950   12.9100   57.4850 C.3   920  445920      0.2451
     14  O5        19.0320   12.2630   58.4670 O.3   920  445920     -0.3315
     15  C5        19.1830   13.0350   59.6920 C.3   920  445920      0.1828
     16  C6        20.1190   12.2690   60.6260 C.3   920  445920      0.2142
     17  O6        21.3050   11.9070   59.9090 O.3   920  445920     -0.2176
     18  C4        17.8000   13.2770   60.3310 C.3   920  445920      0.2144
     19  O4        17.9090   14.0360   61.5430 O.3   920  445920     -0.2176
     20  C3        16.8820   14.0140   59.3470 C.3   920  445920      0.2190
     21  O3        15.5720   14.1370   59.8960 O.3   920  445920     -0.2174
     22  C2        16.7980   13.2620   58.0190 C.3   920  445920      0.2326
     23  O2        16.1080   14.0700   57.0630 O.3   920  445920     -0.2157
@<TRIPOS>BOND
     1     4     3   ar
     2     4     5   ar
     3     3     2   ar
     4     5     6   ar
     5     2     1   ar
     6     6     1   ar
     7     6     7    1
     8     7     8   am
     9     8     9    2
    10     8    10    1
    11    11    10    2
    12    10    12   am
    13    12    13    1
    14    23    22    1
    15    13    22    1
    16    13    14    1
    17    22    20    1
    18    14    15    1
    19    20    21    1
    20    20    18    1
    21    15    18    1
    22    15    16    1
    23    17    16    1
    24    18    19    1
