@<TRIPOS>MOLECULE
3cv0_III_B_1.pdb
 47 47 0 0 0
SMALL
GASTEIGER

@<TRIPOS>ATOM
      1  N          4.1360  -18.9380   16.1290 N.3     2  ASN2       -0.1231
      2  CA         2.8360  -18.2030   16.1670 C.3     2  ASN2        0.1694
      3  C          2.7280  -17.0080   15.1580 C.2     2  ASN2        0.2592
      4  O          3.6990  -16.6520   14.4940 O.2     2  ASN2       -0.2718
      5  CB         2.5900  -17.7340   17.5850 C.3     2  ASN2        0.0304
      6  N          1.5410  -16.4070   15.0430 N.am    3  GLU3       -0.1966
      7  CA         1.2890  -15.3280   14.0650 C.3     3  GLU3        0.1733
      8  C          1.6680  -13.9590   14.7050 C.2     3  GLU3        0.2616
      9  O          1.6270  -13.7940   15.9400 O.2     3  GLU3       -0.2715
     10  CB        -0.1890  -15.3860   13.6160 C.3     3  GLU3        0.0429
     11  CG        -0.6570  -14.4370   12.4900 C.3     3  GLU3        0.1163
     12  CD         0.1540  -14.5180   11.1840 C.2     3  GLU3        0.3649
     13  OE1        1.2920  -13.9800   11.1480 O.co2   3  GLU3       -0.2457
     14  OE2       -0.3680  -15.0750   10.1850 O.co2   3  GLU3       -0.2457
     15  N          2.0370  -13.0050   13.8580 N.am    4  LEU4       -0.1963
     16  CA         2.5070  -11.6900   14.2870 C.3     4  LEU4        0.1728
     17  C          1.3900  -10.6460   14.5340 C.2     4  LEU4        0.2617
     18  O          0.4080  -10.5340   13.7870 O.2     4  LEU4       -0.2715
     19  CB         3.5130  -11.1340   13.2640 C.3     4  LEU4        0.0311
     20  CG         4.8990  -11.7860   13.2320 C.3     4  LEU4        0.0022
     21  CD1        5.6950  -11.2760   11.9860 C.3     4  LEU4        0.0001
     22  CD2        5.7130  -11.5870   14.5780 C.3     4  LEU4        0.0001
     23  N          1.5610   -9.8810   15.6060 N.am    5  SER5       -0.1936
     24  CA         0.6210   -8.8400   15.9540 C.3     5  SER5        0.2055
     25  C          1.2260   -7.4910   15.5680 C.2     5  SER5        0.2643
     26  O          2.4510   -7.3420   15.5260 O.2     5  SER5       -0.2714
     27  CB         0.2910   -8.9150   17.4380 C.3     5  SER5        0.2130
     28  OG        -0.0740  -10.2440   17.8050 O.3     5  SER5       -0.2179
     29  N          0.3660   -6.5190   15.2860 N.am    6  HIS6       -0.1959
     30  CA         0.8170   -5.2430   14.7480 C.3     6  HIS6        0.1784
     31  C          0.5660   -4.0850   15.6850 C.2     6  HIS6        0.2621
     32  O         -0.4900   -3.9810   16.2940 O.2     6  HIS6       -0.2715
     33  CB         0.1600   -4.9680   13.3940 C.3     6  HIS6        0.0745
     34  CG         0.3970   -6.0420   12.3860 C.2     6  HIS6        0.0653
     35  ND1       -0.5860   -6.4870   11.5230 N.2     6  HIS6       -0.2310
     36  CD2        1.5090   -6.7510   12.0890 C.3     6  HIS6        0.1683
     37  CE1       -0.0970   -7.4520   10.7660 C.2     6  HIS6        0.1939
     38  NE2        1.1720   -7.6340   11.0910 N.2     6  HIS6       -0.2440
     39  N          1.5700   -3.2270   15.8040 N.am    7  LEU7       -0.1941
     40  CA         1.4830   -2.0130   16.6110 C.3     7  LEU7        0.1978
     41  C          0.5740   -0.9600   16.0040 C.2     7  LEU7        0.3842
     42  O         -0.0530   -0.1750   16.7570 O.co2   7  LEU7       -0.2437
     43  CB         2.8720   -1.4140   16.7950 C.3     7  LEU7        0.0333
     44  CG         3.8660   -2.2550   17.5840 C.3     7  LEU7        0.0023
     45  CD1        5.3160   -1.7510   17.2980 C.3     7  LEU7        0.0001
     46  CD2        3.5000   -2.1430   19.0770 C.3     7  LEU7        0.0001
     47  OXT        0.4630   -0.8950   14.7630 O.co2   7  LEU7       -0.2437
@<TRIPOS>BOND
     1    14    12   ar
     2    37    38    2
     3    37    35    1
     4    38    36    1
     5    13    12   ar
     6    12    11    1
     7    35    34    2
     8    21    20    1
     9    36    34    1
    10    34    33    1
    11    11    10    1
    12    20    19    1
    13    20    22    1
    14    19    16    1
    15    33    30    1
    16    10     7    1
    17    18    17    2
    18    15    16    1
    19    15     8   am
    20     7     8    1
    21     7     6    1
    22    16    17    1
    23     4     3    2
    24    17    23   am
    25     8     9    2
    26    30    29    1
    27    30    31    1
    28    47    41   ar
    29     6     3   am
    30     3     2    1
    31    29    25   am
    32    26    25    2
    33    25    24    1
    34    23    24    1
    35    31    39   am
    36    31    32    2
    37    39    40    1
    38    24    27    1
    39    41    40    1
    40    41    42   ar
    41     1     2    1
    42     2     5    1
    43    40    43    1
    44    43    44    1
    45    45    44    1
    46    27    28    1
    47    44    46    1
