@<TRIPOS>MOLECULE
3cv2_COA_A_1.pdb
 31 33 0 0 0
SMALL
GASTEIGER

@<TRIPOS>ATOM
      1  N1A       67.4220   23.3910   31.2710 N.2   1002  COA1002     0.0021
      2  C2A       68.6050   22.6970   31.1350 C.3   1002  COA1002     0.5254
      3  N3A       68.6400   21.3260   31.1930 N.2   1002  COA1002    -0.0055
      4  C4A       67.4750   20.6590   31.3780 C.2   1002  COA1002     0.3518
      5  C5A       66.2710   21.3420   31.5280 C.2   1002  COA1002     0.2526
      6  C6A       66.2480   22.7380   31.4600 C.2   1002  COA1002     0.4393
      7  N6A       65.1150   23.4190   31.4750 N.pl3 1002  COA1002     0.2180
      8  N7A       65.2960   20.4290   31.7020 N.2   1002  COA1002    -0.2095
      9  C8A       65.8480   19.2010   31.6890 C.3   1002  COA1002     0.3377
     10  N9A       67.1990   19.3320   31.4870 N.pl3 1002  COA1002    -0.1439
     11  C1B       68.1670   18.2520   31.2770 C.3   1002  COA1002     0.3185
     12  C2B       68.3260   17.3920   32.5080 C.3   1002  COA1002     0.2543
     13  O2B       69.1700   18.0270   33.4380 O.3   1002  COA1002    -0.2131
     14  C3B       68.9000   16.1370   31.8820 C.3   1002  COA1002     0.1928
     15  O3B       70.2910   16.2710   31.7800 O.3   1002  COA1002    -0.2673
     16  P3B       71.2530   15.0070   31.9190 P.3   1002  COA1002     0.5327
     17  O7A       71.1600   14.5270   33.3310 O.3   1002  COA1002    -0.1145
     18  O8A       70.7790   13.9480   30.9530 O.2   1002  COA1002    -0.2224
     19  O9A       72.6320   15.4810   31.5720 O.3   1002  COA1002    -0.1145
     20  C4B       68.3660   16.1200   30.4590 C.3   1002  COA1002     0.1795
     21  O4B       67.7340   17.3670   30.2740 O.3   1002  COA1002    -0.3136
     22  C5B       67.3950   14.9960   30.1430 C.3   1002  COA1002     0.1812
     23  O5B       66.1590   15.2490   30.7610 O.3   1002  COA1002    -0.3111
     24  P1A       65.4040   14.0990   31.5940 P.3   1002  COA1002     0.2231
     25  O1A       63.9200   14.4090   31.6500 O.3   1002  COA1002    -0.4370
     26  O2A       65.6820   12.7290   31.0210 O.2   1002  COA1002    -0.5169
     27  O3A       66.1380   14.2790   33.0150 O.3   1002  COA1002    -0.2261
     28  P2A       65.3840   14.2460   34.4330 P.3   1002  COA1002     0.5373
     29  O4A       64.7790   15.7360   34.5890 O.3   1002  COA1002    -0.1143
     30  O5A       64.2790   13.2190   34.4110 O.2   1002  COA1002    -0.2221
     31  O6A       66.3800   13.9500   35.5320 O.3   1002  COA1002    -0.1143
@<TRIPOS>BOND
     1    22    20    1
     2    22    23    1
     3    21    20    1
     4    21    11    1
     5    20    14    1
     6    23    24    1
     7    18    16    2
     8    26    24    2
     9     2     3    1
    10     2     1    1
    11     3     4    2
    12     1     6    2
    13    11    10    1
    14    11    12    1
    15     4    10    1
    16     4     5    1
    17     6     7    1
    18     6     5    1
    19    10     9    1
    20     5     8    2
    21    19    16    1
    22    24    25    1
    23    24    27    1
    24     9     8    1
    25    15    14    1
    26    15    16    1
    27    14    12    1
    28    16    17    1
    29    12    13    1
    30    27    28    1
    31    30    28    2
    32    28    29    1
    33    28    31    1
