@<TRIPOS>MOLECULE
3cv3_UDP_A_1.pdb
 25 26 0 0 0
SMALL
GASTEIGER

@<TRIPOS>ATOM
      1  N1        18.7140   70.2590   -6.4790 N.am  1081  UDP1081    -0.1766
      2  C2        17.7840   70.2330   -7.5270 C.1   1081  UDP1081     0.2845
      3  N3        18.1950   70.3140   -8.8440 N.2   1081  UDP1081    -0.2452
      4  C4        19.5360   70.4280   -9.1180 C.1   1081  UDP1081     0.2182
      5  C5        20.4700   70.4680   -8.0770 C.2   1081  UDP1081     0.1242
      6  C6        20.0400   70.4910   -6.7590 C.2   1081  UDP1081     0.0929
      7  O2        16.5830   70.1430   -7.3120 O.2   1081  UDP1081    -0.1918
      8  O4        19.8940   70.5120  -10.2880 O.2   1081  UDP1081    -0.2085
      9  C1'       18.2590   70.1680   -5.0660 C.3   1081  UDP1081     0.2401
     10  C2'       18.7960   68.9440   -4.3110 C.3   1081  UDP1081     0.2319
     11  O2'       17.9630   67.8080   -4.3860 O.3   1081  UDP1081    -0.2157
     12  C3'       18.8090   69.3780   -2.8770 C.3   1081  UDP1081     0.2158
     13  C4'       18.9410   70.8920   -2.9790 C.3   1081  UDP1081     0.1799
     14  O4'       18.7770   71.2580   -4.3390 O.3   1081  UDP1081    -0.3320
     15  O3'       17.5460   68.9890   -2.3430 O.3   1081  UDP1081    -0.2175
     16  C5'       20.2870   71.4040   -2.4850 C.3   1081  UDP1081     0.1813
     17  O5'       21.3210   70.7770   -3.2160 O.3   1081  UDP1081    -0.3111
     18  PA        22.8500   71.0700   -2.8150 P.3   1081  UDP1081     0.2231
     19  O1A       23.2400   72.4510   -3.2070 O.3   1081  UDP1081    -0.4370
     20  O2A       23.7770   70.0270   -3.3270 O.2   1081  UDP1081    -0.5169
     21  O3A       22.8380   70.9850   -1.2010 O.3   1081  UDP1081    -0.2261
     22  PB        22.4810   69.6500   -0.3680 P.3   1081  UDP1081     0.5373
     23  O1B       22.4100   70.1740    0.9370 O.3   1081  UDP1081    -0.1143
     24  O2B       23.4960   68.6080   -0.6620 O.3   1081  UDP1081    -0.1143
     25  O3B       21.2780   68.9480   -0.8400 O.2   1081  UDP1081    -0.2221
@<TRIPOS>BOND
     1     8     4    2
     2     4     3    2
     3     4     5    1
     4     3     2    2
     5     5     6    2
     6     2     7    2
     7     2     1   am
     8     6     1    1
     9     1     9    1
    10     9    14    1
    11     9    10    1
    12    11    10    1
    13    14    13    1
    14    10    12    1
    15    20    18    2
    16    17    18    1
    17    17    16    1
    18    19    18    1
    19    13    12    1
    20    13    16    1
    21    12    15    1
    22    18    21    1
    23    21    22    1
    24    25    22    2
    25    24    22    1
    26    22    23    1
