@<TRIPOS>MOLECULE
3cv6_HXS_A_1.pdb
 20 21 0 0 0
SMALL
GASTEIGER

@<TRIPOS>ATOM
      1  C1       -13.3320   16.7880    6.1750 C.ar  351  HXS351      0.0417
      2  C2       -13.3950   16.5570    4.7970 C.ar  351  HXS351      0.1957
      3  C3       -12.7690   15.4810    4.2530 C.ar  351  HXS351      0.0417
      4  C4       -12.0890   14.6750    5.1110 C.ar  351  HXS351     -0.0010
      5  C5       -12.0070   14.9200    6.4620 C.ar  351  HXS351     -0.0220
      6  O16      -14.0840   17.3570    3.9730 O.3   351  HXS351     -0.2866
      7  C        -12.6440   15.9640    7.0480 C.ar  351  HXS351     -0.0010
      8  C7       -11.2700   13.9170    7.1780 C.3   351  HXS351      0.0264
      9  C17      -12.2780   12.8060    7.2860 C.3   351  HXS351      0.0047
     10  C18      -13.1610   12.8930    6.0810 C.3   351  HXS351      0.0004
     11  C8       -10.3060   14.1140    8.3430 C.3   351  HXS351      0.0264
     12  C19       -9.2640   15.1460    8.0140 C.3   351  HXS351      0.0047
     13  C20       -8.2220   14.6220    7.0380 C.3   351  HXS351      0.0004
     14  C9        -9.6440   12.8110    8.2230 C.ar  351  HXS351     -0.0220
     15  C14       -9.7850   12.1400    7.0480 C.ar  351  HXS351     -0.0010
     16  C13       -9.2160   10.8950    6.9150 C.ar  351  HXS351      0.0417
     17  C12       -8.5250   10.2760    7.9280 C.ar  351  HXS351      0.1957
     18  O15       -7.9860    9.0450    7.7140 O.3   351  HXS351     -0.2866
     19  C11       -8.4110   10.9590    9.1040 C.ar  351  HXS351      0.0417
     20  C10       -8.9820   12.2070    9.2530 C.ar  351  HXS351     -0.0010
@<TRIPOS>BOND
     1     6     2    1
     2     3     2   ar
     3     3     4   ar
     4     2     1   ar
     5     4     5   ar
     6    10     9    1
     7     1     7   ar
     8     5     7   ar
     9     5     8    1
    10    16    15   ar
    11    16    17   ar
    12    13    12    1
    13    15    14   ar
    14     8     9    1
    15     8    11    1
    16    18    17    1
    17    17    19   ar
    18    12    11    1
    19    14    11    1
    20    14    20   ar
    21    19    20   ar
