@<TRIPOS>MOLECULE
3cv6_NAP_A_1.pdb
 48 52 0 0 0
SMALL
GASTEIGER

@<TRIPOS>ATOM
      1  PA       -20.5370    8.6860    9.8780 P.3   350  NAP350      0.2189
      2  O1A      -21.6080    9.7330   10.0790 O.3   350  NAP350     -0.4371
      3  O2A      -20.6760    7.6880    8.7570 O.2   350  NAP350     -0.5170
      4  O5B      -20.2980    7.9080   11.2450 O.3   350  NAP350     -0.3112
      5  C5B      -20.3820    8.5840   12.4910 C.3   350  NAP350      0.1813
      6  C4B      -20.2090    7.6020   13.6330 C.3   350  NAP350      0.1820
      7  O4B      -21.2120    6.5930   13.5750 O.3   350  NAP350     -0.3136
      8  C3B      -18.9010    6.8100   13.6560 C.3   350  NAP350      0.2157
      9  O3B      -17.9070    7.5210   14.3900 O.3   350  NAP350     -0.2175
     10  C2B      -19.2550    5.4610   14.3030 C.3   350  NAP350      0.2314
     11  O2B      -18.6430    5.2590   15.5850 O.3   350  NAP350     -0.2630
     12  C1B      -20.7830    5.5440   14.4400 C.3   350  NAP350      0.3158
     13  N9A      -21.5230    4.3190   14.0610 N.pl3 350  NAP350     -0.1439
     14  C8A      -21.4220    3.6110   12.9150 C.3   350  NAP350      0.3377
     15  N7A      -22.2800    2.5650   12.9300 N.2   350  NAP350     -0.2095
     16  C5A      -22.9390    2.6170   14.1150 C.2   350  NAP350      0.2526
     17  C6A      -23.9210    1.8260   14.7120 C.2   350  NAP350      0.4393
     18  N6A      -24.4210    0.7440   14.0520 N.pl3 350  NAP350      0.2180
     19  N1A      -24.3560    2.1390   15.9710 N.2   350  NAP350      0.0021
     20  C2A      -23.8930    3.2260   16.6110 C.3   350  NAP350      0.5254
     21  N3A      -22.9440    4.0120   16.0670 N.2   350  NAP350     -0.0055
     22  C4A      -22.4460    3.7240   14.8310 C.2   350  NAP350      0.3518
     23  O3       -19.0910    9.4100    9.8070 O.3   350  NAP350     -0.2703
     24  PN       -18.3660   10.2900    8.6790 P.3   350  NAP350      0.2189
     25  O1N      -17.3450   11.1110    9.4080 O.3   350  NAP350     -0.4371
     26  O2N      -19.2750   11.1020    7.7730 O.2   350  NAP350     -0.5170
     27  O5D      -17.5540    9.2200    7.7980 O.3   350  NAP350     -0.3112
     28  C5D      -18.1100    8.4220    6.7550 C.3   350  NAP350      0.1813
     29  C4D      -17.2530    8.5590    5.5140 C.3   350  NAP350      0.1799
     30  O4D      -17.6470    9.7040    4.7290 O.3   350  NAP350     -0.3327
     31  C3D      -15.7680    8.7470    5.7810 C.3   350  NAP350      0.2158
     32  O3D      -15.0560    7.5560    6.1720 O.3   350  NAP350     -0.2175
     33  C2D      -15.3530    9.3140    4.4500 C.3   350  NAP350      0.2309
     34  O2D      -15.2680    8.2560    3.5000 O.3   350  NAP350     -0.2158
     35  C1D      -16.5230   10.1930    4.0240 C.3   350  NAP350      0.2263
     36  N1N      -16.3920   11.6460    4.2640 N.pl3 350  NAP350     -0.2787
     37  C2N      -16.3440   12.4370    3.1800 C.3   350  NAP350      0.1244
     38  C3N      -16.2220   13.8300    3.3260 C.2   350  NAP350      0.0544
     39  C7N      -16.1660   14.7060    2.0910 C.2   350  NAP350      0.2818
     40  O7N      -15.9420   15.8820    2.2450 O.2   350  NAP350     -0.2670
     41  N7N      -16.3600   14.2350    0.8610 N.am  350  NAP350     -0.0839
     42  C4N      -16.1550   14.4060    4.6140 C.2   350  NAP350      0.0033
     43  C5N      -16.2340   13.5740    5.7430 C.2   350  NAP350      0.0157
     44  C6N      -16.3250   12.1880    5.5180 C.2   350  NAP350      0.0633
     45  P2B      -17.8260    3.9270   16.0720 P.3   350  NAP350      0.5328
     46  O1X      -16.5730    3.9380   15.2090 O.2   350  NAP350     -0.2224
     47  O2X      -17.4790    4.0820   17.5090 O.3   350  NAP350     -0.1145
     48  O3X      -18.7530    2.7750   15.8030 O.3   350  NAP350     -0.1145
@<TRIPOS>BOND
     1    41    39   am
     2    39    40    2
     3    39    38    1
     4    37    38    1
     5    37    36    1
     6    38    42    2
     7    34    33    1
     8    35    36    1
     9    35    33    1
    10    35    30    1
    11    36    44    1
    12    33    31    1
    13    42    43    1
    14    30    29    1
    15    29    31    1
    16    29    28    1
    17    44    43    2
    18    31    32    1
    19    28    27    1
    20    26    24    2
    21    27    24    1
    22    24    25    1
    23    24    23    1
    24     3     1    2
    25    23     1    1
    26     1     2    1
    27     1     4    1
    28     4     5    1
    29     5     6    1
    30    14    15    1
    31    14    13    1
    32    15    16    2
    33     7     6    1
    34     7    12    1
    35     6     8    1
    36     8    10    1
    37     8     9    1
    38    18    17    1
    39    13    12    1
    40    13    22    1
    41    16    17    1
    42    16    22    1
    43    10    12    1
    44    10    11    1
    45    17    19    2
    46    22    21    2
    47    46    45    2
    48    11    45    1
    49    48    45    1
    50    19    20    1
    51    21    20    1
    52    45    47    1
