@<TRIPOS>MOLECULE
3cv7_C2U_A_1.pdb
 12 12 0 0 0
SMALL
GASTEIGER

@<TRIPOS>ATOM
      1  O7B        0.5830   25.6910    4.6590 O.co2 371  C2U371     -0.2404
      2  C7         1.6450   26.1190    5.1140 C.2   371  C2U371      0.3909
      3  O7A        2.0860   25.7660    6.1950 O.co2 371  C2U371     -0.2404
      4  C6         2.3720   27.0890    4.2880 C.ar  371  C2U371      0.1203
      5  C1         3.5630   27.6050    4.6970 C.ar  371  C2U371      0.0213
      6  C5         1.8320   27.4770    3.0880 C.ar  371  C2U371      0.2125
      7  O5         0.6490   27.0300    2.5590 O.3   371  C2U371     -0.2854
      8  C4         2.4720   28.3680    2.3120 C.ar  371  C2U371      0.0975
      9 CL4         1.4660   28.6170    0.8680 Cl    371  C2U371     -0.0789
     10  C3         3.7000   28.9290    2.6800 C.ar  371  C2U371      0.0260
     11  C2         4.2350   28.5110    3.9030 C.ar  371  C2U371      0.0589
     12 CL2         5.7810   29.0850    4.5560 Cl    371  C2U371     -0.0822
@<TRIPOS>BOND
     1     9     8    1
     2     8    10   ar
     3     8     6   ar
     4     7     6    1
     5    10    11   ar
     6     6     4   ar
     7    11    12    1
     8    11     5   ar
     9     4     5   ar
    10     4     2    1
    11     1     2   ar
    12     2     3   ar
