@<TRIPOS>MOLECULE
3cv7_NAP_A_1.pdb
 48 52 0 0 0
SMALL
GASTEIGER

@<TRIPOS>ATOM
      1  PA        -0.3750   27.0150   16.2390 P.3   370  NAP370      0.2189
      2  O1A       -1.8100   26.7520   16.2950 O.2   370  NAP370     -0.5170
      3  O2A        0.4660   25.8930   16.7180 O.3   370  NAP370     -0.4371
      4  O5B       -0.0070   28.3520   17.0430 O.3   370  NAP370     -0.3112
      5  C5B        1.3330   28.7050   17.2900 C.3   370  NAP370      0.1813
      6  C4B        1.2920   30.0760   17.9540 C.3   370  NAP370      0.1820
      7  O4B        0.7990   29.9770   19.2770 O.3   370  NAP370     -0.3136
      8  C3B        2.6730   30.7090   18.0550 C.3   370  NAP370      0.2157
      9  O3B        2.4630   32.1000   17.8430 O.3   370  NAP370     -0.2175
     10  C2B        3.1480   30.3550   19.4570 C.3   370  NAP370      0.2314
     11  O2B        4.0120   31.3390   20.0120 O.3   370  NAP370     -0.2630
     12  C1B        1.8320   30.2690   20.2270 C.3   370  NAP370      0.3158
     13  N9A        1.7950   29.3000   21.3420 N.pl3 370  NAP370     -0.1439
     14  C8A        2.3590   28.0600   21.3800 C.3   370  NAP370      0.3377
     15  N7A        2.0690   27.4690   22.5580 N.2   370  NAP370     -0.2095
     16  C5A        1.3130   28.3180   23.2740 C.2   370  NAP370      0.2526
     17  C6A        0.7800   28.2130   24.5500 C.2   370  NAP370      0.4393
     18  N6A        0.9870   27.0870   25.2470 N.pl3 370  NAP370      0.2180
     19  N1A        0.0160   29.2560   25.0650 N.2   370  NAP370      0.0021
     20  C2A       -0.1770   30.4070   24.3060 C.3   370  NAP370      0.5254
     21  N3A        0.3940   30.5240   23.0430 N.2   370  NAP370     -0.0055
     22  C4A        1.1270   29.4810   22.5320 C.2   370  NAP370      0.3518
     23  O3         0.0250   27.5390   14.7970 O.3   370  NAP370     -0.2703
     24  PN         0.7630   26.9220   13.5400 P.3   370  NAP370      0.2189
     25  O1N        2.2310   27.1400   13.7030 O.3   370  NAP370     -0.4371
     26  O2N        0.0620   27.5200   12.3840 O.2   370  NAP370     -0.5170
     27  O5D        0.3710   25.3490   13.5580 O.3   370  NAP370     -0.3112
     28  C5D        1.2440   24.3670   14.0760 C.3   370  NAP370      0.1813
     29  C4D        2.0240   23.6120   12.9900 C.3   370  NAP370      0.1799
     30  O4D        1.2100   22.9030   12.0450 O.3   370  NAP370     -0.3327
     31  C3D        2.9250   24.5010   12.1300 C.3   370  NAP370      0.2158
     32  O3D        4.1060   24.9280   12.7580 O.3   370  NAP370     -0.2175
     33  C2D        3.2240   23.5770   10.9730 C.3   370  NAP370      0.2309
     34  O2D        4.1970   22.6370   11.3840 O.3   370  NAP370     -0.2158
     35  C1D        1.8950   22.8640   10.7750 C.3   370  NAP370      0.2263
     36  N1N        1.1350   23.5330    9.6840 N.pl3 370  NAP370     -0.2787
     37  C2N        1.0590   22.9110    8.4720 C.3   370  NAP370      0.1244
     38  C3N        0.3540   23.4520    7.3970 C.2   370  NAP370      0.0544
     39  C7N       -0.0300   22.5640    6.2350 C.2   370  NAP370      0.2818
     40  O7N       -0.3280   23.1960    5.0310 O.2   370  NAP370     -0.2670
     41  N7N       -0.0840   21.2300    6.3060 N.am  370  NAP370     -0.0839
     42  C4N       -0.2880   24.6780    7.5720 C.2   370  NAP370      0.0033
     43  C5N       -0.2370   25.3380    8.8020 C.2   370  NAP370      0.0157
     44  C6N        0.4850   24.7410    9.8460 C.2   370  NAP370      0.0633
     45  P2B        5.5790   31.0250   20.3450 P.3   370  NAP370      0.5328
     46  O1X        6.2230   30.1250   19.3270 O.2   370  NAP370     -0.2224
     47  O2X        6.3440   32.3190   20.3260 O.3   370  NAP370     -0.1145
     48  O3X        5.7220   30.3900   21.7230 O.3   370  NAP370     -0.1145
@<TRIPOS>BOND
     1    40    39    2
     2    39    41   am
     3    39    38    1
     4    38    42    2
     5    38    37    1
     6    42    43    1
     7    37    36    1
     8    43    44    2
     9    36    44    1
    10    36    35    1
    11    35    33    1
    12    35    30    1
    13    33    34    1
    14    33    31    1
    15    30    29    1
    16    31    32    1
    17    31    29    1
    18    26    24    2
    19    29    28    1
    20    24    27    1
    21    24    25    1
    22    24    23    1
    23    27    28    1
    24    23     1    1
    25     1     2    2
    26     1     3    1
    27     1     4    1
    28     4     5    1
    29     5     6    1
    30     9     8    1
    31     6     8    1
    32     6     7    1
    33     8    10    1
    34     7    12    1
    35    46    45    2
    36    10    11    1
    37    10    12    1
    38    11    45    1
    39    12    13    1
    40    47    45    1
    41    45    48    1
    42    13    14    1
    43    13    22    1
    44    14    15    1
    45    22    21    2
    46    22    16    1
    47    15    16    2
    48    21    20    1
    49    16    17    1
    50    20    19    1
    51    17    19    2
    52    17    18    1
