@<TRIPOS>MOLECULE
3cv8_HEM_A_1.pdb
 43 50 0 0 0
SMALL
GASTEIGER

@<TRIPOS>ATOM
      1 FE          9.3050    8.4650   12.4850 Fe    413  HEM413      0.0000
      2  CHA        8.2310    6.2910   10.0100 C.2   413  HEM413      0.0000
      3  CHB       10.3850    5.7410   14.3060 C.2   413  HEM413      0.0000
      4  CHC       10.3580   10.5650   14.9480 C.2   413  HEM413      0.0000
      5  CHD        7.4740   11.0410   11.0640 C.2   413  HEM413      0.0000
      6  NA         9.2810    6.3700   12.2150 N.2   413  HEM413      0.0000
      7  C1A        8.8860    5.7130   11.0710 C.2   413  HEM413      0.0000
      8  C2A        9.2780    4.3210   11.1950 C.2   413  HEM413      0.0000
      9  C3A        9.8650    4.1590   12.3870 C.2   413  HEM413      0.0000
     10  C4A        9.8910    5.4560   13.0500 C.2   413  HEM413      0.0000
     11  CMA       10.4320    2.8440   12.9730 C.3   413  HEM413      0.0000
     12  CAA        9.0560    3.2340   10.1090 C.3   413  HEM413      0.0000
     13  CBA        7.6070    2.7620   10.0680 C.3   413  HEM413      0.0000
     14  CGA        7.4260    1.6230    9.0930 C.2   413  HEM413      0.0000
     15  O1A        8.4240    1.1380    8.4900 O.co2 413  HEM413      0.0000
     16  O2A        6.2510    1.1970    8.8990 O.co2 413  HEM413      0.0000
     17  NB        10.1390    8.1980   14.3460 N.ar  413  HEM413      0.0000
     18  C1B       10.6240    6.9970   14.8370 C.ar  413  HEM413      0.0000
     19  C2B       11.4240    7.2920   16.0050 C.ar  413  HEM413      0.0000
     20  C3B       11.4280    8.6150   16.2080 C.ar  413  HEM413      0.0000
     21  C4B       10.6260    9.2240   15.1420 C.ar  413  HEM413      0.0000
     22  CMB       12.1680    6.2550   16.8740 C.3   413  HEM413      0.0000
     23  CAB       12.2190    9.2870   17.3650 C.2   413  HEM413      0.0000
     24  CBB       11.9900   10.5010   17.8480 C.2   413  HEM413      0.0000
     25  NC         8.9290   10.4470   12.9300 N.2   413  HEM413      0.0000
     26  C1C        9.5590   11.1220   13.9620 C.2   413  HEM413      0.0000
     27  C2C        9.2510   12.5250   13.8250 C.2   413  HEM413      0.0000
     28  C3C        8.4420   12.6710   12.7670 C.2   413  HEM413      0.0000
     29  C4C        8.2320   11.3590   12.1800 C.2   413  HEM413      0.0000
     30  CMC        9.7680   13.6230   14.7780 C.3   413  HEM413      0.0000
     31  CAC        7.8720   14.0210   12.2640 C.2   413  HEM413      0.0000
     32  CBC        6.9500   14.1020   11.3030 C.2   413  HEM413      0.0000
     33  ND         8.0600    8.6330   10.8030 N.ar  413  HEM413      0.0000
     34  C1D        7.4020    9.8090   10.4310 C.ar  413  HEM413      0.0000
     35  C2D        6.6440    9.5670    9.2340 C.ar  413  HEM413      0.0000
     36  C3D        6.8680    8.0920    8.9220 C.ar  413  HEM413      0.0000
     37  C4D        7.7570    7.5900    9.9450 C.ar  413  HEM413      0.0000
     38  CMD        5.7740   10.5760    8.4730 C.3   413  HEM413      0.0000
     39  CAD        6.3150    7.2820    7.7450 C.3   413  HEM413      0.0000
     40  CBD        7.4290    7.2230    6.7030 C.3   413  HEM413      0.0000
     41  CGD        6.9160    6.5340    5.4620 C.2   413  HEM413      0.0000
     42  O1D        7.4410    6.7480    4.3270 O.co2 413  HEM413      0.0000
     43  O2D        5.9830    5.7290    5.6180 O.co2 413  HEM413      0.0000
@<TRIPOS>BOND
     1    42    41   ar
     2    41    43   ar
     3    41    40    1
     4    40    39    1
     5    39    36    1
     6    38    35    1
     7    15    14   ar
     8    16    14   ar
     9    36    35   ar
    10    36    37   ar
    11    14    13    1
    12    35    34   ar
    13    37     2    2
    14    37    33   ar
    15     2     7    1
    16    13    12    1
    17    12     8    1
    18    34    33   ar
    19    34     5    2
    20    33     1    1
    21     5    29    1
    22     7     8    1
    23     7     6    2
    24     8     9    2
    25    32    31    2
    26    29    28    1
    27    29    25    2
    28     6     1    1
    29     6    10    1
    30    31    28    1
    31     9    11    1
    32     9    10    1
    33     1    25    1
    34     1    17    1
    35    28    27    2
    36    25    26    1
    37    10     3    2
    38    27    26    1
    39    27    30    1
    40    26     4    2
    41     3    18    1
    42    17    18   ar
    43    17    21   ar
    44    18    19   ar
    45     4    21    1
    46    21    20   ar
    47    19    20   ar
    48    19    22    1
    49    20    23    1
    50    23    24    2
