@<TRIPOS>MOLECULE
3cv9_HEM_A_1.pdb
 43 50 0 0 0
SMALL
GASTEIGER

@<TRIPOS>ATOM
      1 FE         10.6760    8.7900   12.3660 Fe    413  HEM413      0.0000
      2  CHA        9.5950    6.5920    9.9200 C.2   413  HEM413      0.0000
      3  CHB       11.7340    6.0780   14.1750 C.2   413  HEM413      0.0000
      4  CHC       11.6900   10.8820   14.8200 C.2   413  HEM413      0.0000
      5  CHD        8.9310   11.3160   10.8990 C.2   413  HEM413      0.0000
      6  NA        10.6410    6.7300   12.1270 N.2   413  HEM413      0.0000
      7  C1A       10.2370    6.0550   10.9920 C.2   413  HEM413      0.0000
      8  C2A       10.6040    4.6460   11.1100 C.2   413  HEM413      0.0000
      9  C3A       11.1670    4.4840   12.3120 C.2   413  HEM413      0.0000
     10  C4A       11.2190    5.7880   12.9470 C.2   413  HEM413      0.0000
     11  CMA       11.7390    3.1730   12.9430 C.3   413  HEM413      0.0000
     12  CAA       10.3390    3.6350    9.9760 C.3   413  HEM413      0.0000
     13  CBA        9.0010    2.9390   10.0520 C.3   413  HEM413      0.0000
     14  CGA        8.8970    1.8390    8.9890 C.2   413  HEM413      0.0000
     15  O1A        9.8820    1.4200    8.3590 O.co2 413  HEM413      0.0000
     16  O2A        7.7660    1.3670    8.7870 O.co2 413  HEM413      0.0000
     17  NB        11.4350    8.5120   14.2400 N.ar  413  HEM413      0.0000
     18  C1B       11.9050    7.3390   14.7300 C.ar  413  HEM413      0.0000
     19  C2B       12.5720    7.5960   15.9880 C.ar  413  HEM413      0.0000
     20  C3B       12.5960    8.9320   16.1820 C.ar  413  HEM413      0.0000
     21  C4B       11.8880    9.5360   15.0580 C.ar  413  HEM413      0.0000
     22  CMB       13.2170    6.4930   16.8640 C.3   413  HEM413      0.0000
     23  CAB       13.2760    9.6530   17.3800 C.2   413  HEM413      0.0000
     24  CBB       13.0500   10.9140   17.7340 C.2   413  HEM413      0.0000
     25  NC        10.2920   10.7730   12.8270 N.2   413  HEM413      0.0000
     26  C1C       10.9180   11.4510   13.8230 C.2   413  HEM413      0.0000
     27  C2C       10.5850   12.8460   13.6990 C.2   413  HEM413      0.0000
     28  C3C        9.7770   12.9780   12.6310 C.2   413  HEM413      0.0000
     29  C4C        9.6260   11.6670   12.0330 C.2   413  HEM413      0.0000
     30  CMC       11.1030   13.9160   14.6960 C.3   413  HEM413      0.0000
     31  CAC        9.1930   14.3000   12.0870 C.2   413  HEM413      0.0000
     32  CBC        7.9150   14.3180   11.6530 C.2   413  HEM413      0.0000
     33  ND         9.3940    8.8910   10.7170 N.ar  413  HEM413      0.0000
     34  C1D        8.8420   10.0900   10.2810 C.ar  413  HEM413      0.0000
     35  C2D        8.1260    9.8620    9.0490 C.ar  413  HEM413      0.0000
     36  C3D        8.3540    8.3980    8.7190 C.ar  413  HEM413      0.0000
     37  C4D        9.1510    7.8840    9.8030 C.ar  413  HEM413      0.0000
     38  CMD        7.3590   10.9300    8.2320 C.3   413  HEM413      0.0000
     39  CAD        7.8160    7.6480    7.4830 C.3   413  HEM413      0.0000
     40  CBD        8.9260    7.5580    6.4290 C.3   413  HEM413      0.0000
     41  CGD        8.3850    6.7930    5.2550 C.2   413  HEM413      0.0000
     42  O1D        8.8870    7.0620    4.1290 O.co2 413  HEM413      0.0000
     43  O2D        7.4590    5.9530    5.4920 O.co2 413  HEM413      0.0000
@<TRIPOS>BOND
     1    42    41   ar
     2    41    43   ar
     3    41    40    1
     4    40    39    1
     5    39    36    1
     6    38    35    1
     7    15    14   ar
     8    36    35   ar
     9    36    37   ar
    10    16    14   ar
    11    14    13    1
    12    35    34   ar
    13    37     2    2
    14    37    33   ar
    15     2     7    1
    16    12    13    1
    17    12     8    1
    18    34    33   ar
    19    34     5    2
    20    33     1    1
    21     5    29    1
    22     7     8    1
    23     7     6    2
    24     8     9    2
    25    32    31    2
    26    29    28    1
    27    29    25    2
    28    31    28    1
    29     6     1    1
    30     6    10    1
    31     9    11    1
    32     9    10    1
    33     1    25    1
    34     1    17    1
    35    28    27    2
    36    25    26    1
    37    10     3    2
    38    27    26    1
    39    27    30    1
    40    26     4    2
    41     3    18    1
    42    17    18   ar
    43    17    21   ar
    44    18    19   ar
    45     4    21    1
    46    21    20   ar
    47    19    20   ar
    48    19    22    1
    49    20    23    1
    50    23    24    2
