@<TRIPOS>MOLECULE
3cv9_VDX_A_1.pdb
 30 32 0 0 0
SMALL
GASTEIGER

@<TRIPOS>ATOM
      1  O2        -4.6780    7.5120    9.6720 O.3   501  VDX501     -0.2227
      2  O3         3.3890   -2.9790   15.1370 O.3   501  VDX501     -0.2257
      3  C1        -1.0580    8.2230   10.7020 C.3   501  VDX501      0.1765
      4  C2        -2.4240    8.4130   10.0230 C.3   501  VDX501      0.0707
      5  C3        -3.4450    7.3330   10.3990 C.3   501  VDX501      0.1592
      6  C4        -3.7060    7.3580   11.9080 C.3   501  VDX501      0.0591
      7  C5        -2.3810    7.2000   12.6230 C.2   501  VDX501     -0.0213
      8  C6        -2.3230    6.2880   13.6290 C.2   501  VDX501     -0.0051
      9  C7        -1.1360    5.9780   14.4060 C.2   501  VDX501     -0.0088
     10  C8        -1.0920    5.1380   15.4690 C.2   501  VDX501     -0.0446
     11  C9        -2.3090    4.4130   16.0380 C.3   501  VDX501      0.0220
     12  C10       -1.2580    8.0480   12.1810 C.2   501  VDX501      0.0039
     13  C11       -1.9970    2.9170   16.2980 C.3   501  VDX501      0.0044
     14  C12       -0.5960    2.5660   16.8540 C.3   501  VDX501      0.0006
     15  C13        0.5230    3.3470   16.1670 C.3   501  VDX501      0.0034
     16  C14        0.2020    4.8470   16.1890 C.3   501  VDX501      0.0183
     17  C15        1.5170    5.5130   15.7740 C.3   501  VDX501      0.0040
     18  C16        2.5990    4.5690   16.3120 C.3   501  VDX501      0.0003
     19  C17        1.8660    3.3570   16.9050 C.3   501  VDX501      0.0003
     20  C18        0.6770    2.8580   14.7110 C.3   501  VDX501      0.0003
     21  C19       -0.4700    8.6670   13.0460 C.2   501  VDX501     -0.0024
     22  C20        2.6800    2.0290   17.0590 C.3   501  VDX501      0.0000
     23  C21        3.8780    2.2130   17.9970 C.3   501  VDX501      0.0000
     24  C22        3.2360    1.3770   15.7920 C.3   501  VDX501      0.0001
     25  C23        2.8740   -0.0990   15.7170 C.3   501  VDX501      0.0025
     26  C24        3.2640   -0.6670   14.3610 C.3   501  VDX501      0.0304
     27  C25        2.8890   -2.1290   14.0950 C.3   501  VDX501      0.1268
     28  C26        1.3710   -2.3510   14.0030 C.3   501  VDX501      0.0329
     29  C27        3.5600   -2.5190   12.7760 C.3   501  VDX501      0.0329
     30  O1        -0.5030    7.0160   10.2040 O.3   501  VDX501     -0.2182
@<TRIPOS>BOND
     1     1     5    1
     2     4     5    1
     3     4     3    1
     4    30     3    1
     5     5     6    1
     6     3    12    1
     7     6     7    1
     8    12     7    1
     9    12    21    2
    10     7     8    2
    11    29    27    1
    12     8     9    1
    13    28    27    1
    14    27    26    1
    15    27     2    1
    16    26    25    1
    17     9    10    2
    18    20    15    1
    19    10    11    1
    20    10    16    1
    21    25    24    1
    22    17    16    1
    23    17    18    1
    24    24    22    1
    25    11    13    1
    26    15    16    1
    27    15    14    1
    28    15    19    1
    29    13    14    1
    30    18    19    1
    31    19    22    1
    32    22    23    1
