@<TRIPOS>MOLECULE
3cvk_N34_A_1.pdb
 34 37 0 0 0
SMALL
GASTEIGER

@<TRIPOS>ATOM
      1  C4        96.4350    9.1590   57.8710 C.2   579  N34579      0.1485
      2  C5        96.8680    9.5010   60.6470 C.2   579  N34579      0.0886
      3  C6        97.2100    8.2390   58.6060 C.3   579  N34579      0.2293
      4  C7        96.7980    8.4370   54.2290 C.2   579  N34579      0.1658
      5  C8        97.2340    7.5140   53.3350 C.2   579  N34579      0.2038
      6  C10       96.0490    9.6280   53.7070 C.2   579  N34579      0.2756
      7  C13       98.2050    9.6700   51.1150 C.3   579  N34579      0.0926
      8  C15       92.3240   12.0960   51.5320 C.3   579  N34579      0.0001
      9  C17       93.1420   11.1620   49.3430 C.3   579  N34579      0.0001
     10  C20       95.2380   10.8640   51.7300 C.3   579  N34579      0.1119
     11  C21       92.7430   10.8110   50.7930 C.3   579  N34579      0.0017
     12  O31       96.7660    7.1690   62.5740 O.2   579  N34579     -0.1528
     13  S34       97.2610    8.4130   63.1350 S.O2  579  N34579      0.0750
     14  O30       96.8520    8.8330   64.4600 O.2   579  N34579     -0.1528
     15  C18       99.0300    8.2970   63.2280 C.3   579  N34579      0.2016
     16  N26       97.0660    9.7200   62.0470 N.pl3 579  N34579     -0.1009
     17  C2        96.1100   10.4380   59.9290 C.2   579  N34579      0.0201
     18  C3        97.4330    8.3980   59.9870 C.2   579  N34579      0.0244
     19  S33       97.8950    6.8440   57.7830 S.O2  579  N34579      0.0981
     20  O28       99.2780    6.7230   58.1690 O.2   579  N34579     -0.1495
     21  O29       96.9620    5.7710   58.0140 O.2   579  N34579     -0.1495
     22  N23       97.8400    7.3260   56.1530 N.2   579  N34579     -0.0649
     23  C9        96.9140    8.3150   55.7020 C.1   579  N34579      0.1129
     24  N22       96.1800    9.0630   56.4880 N.2   579  N34579     -0.3511
     25  C1        95.9000   10.2730   58.5560 C.2   579  N34579      0.0320
     26  O27       95.3520   10.2740   54.5030 O.2   579  N34579     -0.2677
     27  N24       96.1000    9.8770   52.3410 N.am  579  N34579     -0.2168
     28  N25       96.8780    9.1220   51.4500 N.3   579  N34579     -0.1963
     29  C11       98.7620    8.5280   50.2840 C.3   579  N34579      0.0210
     30  C14       97.0310    7.7030   51.8340 C.3   579  N34579      0.1382
     31  C12       98.2010    7.2700   50.9360 C.3   579  N34579      0.0271
     32  O32       97.8450    6.3250   53.6670 O.2   579  N34579     -0.2890
     33  C19       93.9260   10.1200   51.5080 C.3   579  N34579      0.0231
     34  C16       91.5510    9.8380   50.7420 C.3   579  N34579      0.0001
@<TRIPOS>BOND
     1     9    11    1
     2    29    31    1
     3    29     7    1
     4    34    11    1
     5    11    33    1
     6    11     8    1
     7    31    30    1
     8     7    28    1
     9    28    30    1
    10    28    27    1
    11    33    10    1
    12    10    27    1
    13    30     5    1
    14    27     6   am
    15     5    32    1
    16     5     4    2
    17     6     4    1
    18     6    26    2
    19     4    23    1
    20    23    22    2
    21    23    24    2
    22    22    19    1
    23    24     1    2
    24    19    21    2
    25    19    20    2
    26    19     3    1
    27     1    25    1
    28     1     3    1
    29    25    17    2
    30     3    18    1
    31    17     2    1
    32    18     2    2
    33     2    16    1
    34    16    13    1
    35    12    13    2
    36    13    15    1
    37    13    14    2
