@<TRIPOS>MOLECULE
3cvl_III_B_1.pdb
 40 39 0 0 0
SMALL
GASTEIGER

@<TRIPOS>ATOM
      1  N          2.3360  -16.6610   14.2170 N.3     3  GLU3       -0.1231
      2  CA         2.4570  -15.5240   13.2490 C.3     3  GLU3        0.1699
      3  C          2.6840  -14.1930   13.9790 C.2     3  GLU3        0.2592
      4  O          2.4770  -14.0910   15.2100 O.2     3  GLU3       -0.2718
      5  CB         1.2250  -15.4490   12.3370 C.3     3  GLU3        0.0402
      6  CG         1.4260  -14.5570   11.0970 C.3     3  GLU3        0.1161
      7  CD         0.4420  -14.8470    9.9740 C.2     3  GLU3        0.3649
      8  OE1        0.2540  -16.0330    9.6290 O.co2   3  GLU3       -0.2457
      9  OE2       -0.1340  -13.8810    9.4220 O.co2   3  GLU3       -0.2457
     10  N          3.0060  -13.1640   13.1990 N.am    4  LEU4       -0.1966
     11  CA         3.4890  -11.9000   13.7320 C.3     4  LEU4        0.1728
     12  C          2.4170  -10.8220   13.8590 C.2     4  LEU4        0.2616
     13  O          1.7310  -10.5100   12.8980 O.2     4  LEU4       -0.2715
     14  CB         4.6440  -11.3930   12.8910 C.3     4  LEU4        0.0311
     15  CG         5.8810  -12.2540   13.0370 C.3     4  LEU4        0.0022
     16  CD1        6.6310  -12.3870   11.7200 C.3     4  LEU4        0.0001
     17  CD2        6.7590  -11.7300   14.1410 C.3     4  LEU4        0.0001
     18  N          2.3030  -10.2450   15.0510 N.am    5  ALA5       -0.1963
     19  CA         1.3440   -9.1870   15.3250 C.3     5  ALA5        0.1728
     20  C          1.8820   -7.7900   14.9290 C.2     5  ALA5        0.2616
     21  O          3.0830   -7.5470   14.9150 O.2     5  ALA5       -0.2715
     22  CB         0.9640   -9.2180   16.7920 C.3     5  ALA5        0.0334
     23  N          0.9580   -6.8760   14.6410 N.am    6  LYS6       -0.1963
     24  CA         1.2690   -5.5660   14.0880 C.3     6  LYS6        0.1728
     25  C          1.0170   -4.4690   15.1030 C.2     6  LYS6        0.2617
     26  O         -0.0850   -4.3570   15.6060 O.2     6  LYS6       -0.2715
     27  CB         0.3700   -5.3020   12.8730 C.3     6  LYS6        0.0311
     28  CG         0.4440   -6.3540   11.7810 C.3     6  LYS6        0.0038
     29  CD         1.4960   -6.0420   10.7740 C.3     6  LYS6        0.0206
     30  CE         1.4150   -7.0210    9.6190 C.3     6  LYS6        0.1093
     31  NZ         2.1710   -6.5600    8.4310 N.3     6  LYS6       -0.1314
     32  N          2.0250   -3.6380   15.3660 N.am    7  LEU7       -0.1942
     33  CA         1.8860   -2.5050   16.2890 C.3     7  LEU7        0.1978
     34  C          1.0440   -1.3750   15.6700 C.2     7  LEU7        0.3842
     35  O          0.5210   -0.4910   16.3700 O.co2   7  LEU7       -0.2437
     36  CB         3.2500   -1.9390   16.6380 C.3     7  LEU7        0.0333
     37  CG         4.2940   -2.7690   17.3810 C.3     7  LEU7        0.0023
     38  CD1        5.6740   -2.1770   17.0670 C.3     7  LEU7        0.0001
     39  CD2        4.0180   -2.8060   18.8840 C.3     7  LEU7        0.0001
     40  OXT        0.9110   -1.3150   14.4390 O.co2   7  LEU7       -0.2437
@<TRIPOS>BOND
     1    31    30    1
     2     9     7   ar
     3    30    29    1
     4     8     7   ar
     5     7     6    1
     6    29    28    1
     7     6     5    1
     8    16    15    1
     9    28    27    1
    10     5     2    1
    11    27    24    1
    12    14    15    1
    13    14    11    1
    14    13    12    2
    15    15    17    1
    16    10    11    1
    17    10     3   am
    18     2     3    1
    19     2     1    1
    20    11    12    1
    21    12    18   am
    22     3     4    2
    23    24    23    1
    24    24    25    1
    25    40    34   ar
    26    23    20   am
    27    21    20    2
    28    20    19    1
    29    18    19    1
    30    25    32   am
    31    25    26    2
    32    19    22    1
    33    32    33    1
    34    34    33    1
    35    34    35   ar
    36    33    36    1
    37    36    37    1
    38    38    37    1
    39    37    39    1
