@<TRIPOS>MOLECULE
3cvn_III_B_1.pdb
 39 38 0 0 0
SMALL
GASTEIGER

@<TRIPOS>ATOM
      1  N          2.9710  -15.7370   12.7810 N.3     3  ARG3       -0.1231
      2  CA         2.3860  -14.3780   12.5810 C.3     3  ARG3        0.1694
      3  C          2.7050  -13.4110   13.7170 C.2     3  ARG3        0.2592
      4  O          2.4670  -13.7070   14.8890 O.2     3  ARG3       -0.2718
      5  CB         0.8770  -14.4730   12.3930 C.3     3  ARG3        0.0321
      6  CG         0.4450  -14.4370   10.9570 C.3     3  ARG3        0.0489
      7  CD        -0.9880  -14.9580   10.7830 C.3     3  ARG3        0.2205
      8  NE        -1.2830  -15.2510    9.3780 N.pl3   3  ARG3       -0.0865
      9  CZ        -1.5160  -14.3350    8.4430 C.cat   3  ARG3        0.5346
     10  NH1       -1.4830  -13.0500    8.7330 N.pl3   3  ARG3        0.1354
     11  NH2       -1.7720  -14.7050    7.1970 N.pl3   3  ARG3        0.1354
     12  N          3.2140  -12.2380   13.3380 N.am    4  ALA4       -0.1966
     13  CA         3.6370  -11.1960   14.2650 C.3     4  ALA4        0.1728
     14  C          2.4550  -10.2650   14.6230 C.2     4  ALA4        0.2616
     15  O          1.6130   -9.9760   13.7770 O.2     4  ALA4       -0.2715
     16  CB         4.7800  -10.3980   13.6180 C.3     4  ALA4        0.0334
     17  N          2.3650   -9.8430   15.8850 N.am    5  ALA5       -0.1963
     18  CA         1.4130   -8.7910   16.2580 C.3     5  ALA5        0.1728
     19  C          1.8760   -7.4470   15.6600 C.2     5  ALA5        0.2616
     20  O          3.0650   -7.2060   15.5450 O.2     5  ALA5       -0.2715
     21  CB         1.2630   -8.7030   17.8070 C.3     5  ALA5        0.0334
     22  N          0.9340   -6.5740   15.3150 N.am    6  LYS6       -0.1963
     23  CA         1.2540   -5.2670   14.7280 C.3     6  LYS6        0.1728
     24  C          1.0340   -4.1330   15.7290 C.2     6  LYS6        0.2617
     25  O         -0.0430   -4.0210   16.3120 O.2     6  LYS6       -0.2715
     26  CB         0.3850   -4.9900   13.4880 C.3     6  LYS6        0.0311
     27  CG         0.4580   -6.0480   12.3780 C.3     6  LYS6        0.0038
     28  CD         1.7710   -5.9970   11.6220 C.3     6  LYS6        0.0206
     29  CE         1.7220   -6.8840   10.3750 C.3     6  LYS6        0.1093
     30  NZ         3.0930   -7.2030    9.9670 N.3     6  LYS6       -0.1314
     31  N          2.0490   -3.2790   15.8930 N.am    7  LEU7       -0.1942
     32  CA         1.9410   -2.0740   16.7410 C.3     7  LEU7        0.1978
     33  C          0.9700   -1.0480   16.1190 C.2     7  LEU7        0.3842
     34  O          0.2450   -0.3410   16.8130 O.co2   7  LEU7       -0.2437
     35  CB         3.3080   -1.4240   16.8890 C.3     7  LEU7        0.0333
     36  CG         4.4240   -2.1750   17.5980 C.3     7  LEU7        0.0023
     37  CD1        5.7630   -1.4840   17.3650 C.3     7  LEU7        0.0001
     38  CD2        4.1090   -2.2460   19.1060 C.3     7  LEU7        0.0001
     39  OXT        0.9050   -0.8770   14.8820 O.co2   7  LEU7       -0.2437
@<TRIPOS>BOND
     1    11     9    1
     2     9    10    1
     3     9     8    2
     4     8     7    1
     5    30    29    1
     6    29    28    1
     7     7     6    1
     8     6     5    1
     9    28    27    1
    10    27    26    1
    11     5     2    1
    12     2     1    1
    13     2     3    1
    14    12     3   am
    15    12    13    1
    16    26    23    1
    17    16    13    1
    18     3     4    2
    19    15    14    2
    20    13    14    1
    21    14    17   am
    22    23    22    1
    23    23    24    1
    24    39    33   ar
    25    22    19   am
    26    20    19    2
    27    19    18    1
    28    24    31   am
    29    24    25    2
    30    17    18    1
    31    31    32    1
    32    33    32    1
    33    33    34   ar
    34    18    21    1
    35    32    35    1
    36    35    36    1
    37    37    36    1
    38    36    38    1
