@<TRIPOS>MOLECULE
3cvp_III_B_1.pdb
 39 38 0 0 0
SMALL
GASTEIGER

@<TRIPOS>ATOM
      1  N          2.5750  -21.3600   16.8340 N.3     5  ASN5       -0.1231
      2  CA         3.0920  -21.3920   15.4290 C.3     5  ASN5        0.1694
      3  C          2.9580  -20.0500   14.6880 C.2     5  ASN5        0.2592
      4  O          3.9760  -19.4050   14.3840 O.2     5  ASN5       -0.2718
      5  CB         2.4240  -22.5250   14.6320 C.3     5  ASN5        0.0304
      6  N          1.7160  -19.6310   14.4140 N.am    6  ARG6       -0.1966
      7  CA         1.4360  -18.4440   13.5960 C.3     6  ARG6        0.1728
      8  C          1.8400  -17.1060   14.2330 C.2     6  ARG6        0.2616
      9  O          1.7090  -16.9020   15.4600 O.2     6  ARG6       -0.2715
     10  CB        -0.0360  -18.4190   13.1780 C.3     6  ARG6        0.0334
     11  N          2.3120  -16.1910   13.3860 N.am    7  ALA7       -0.1963
     12  CA         2.7660  -14.8740   13.8270 C.3     7  ALA7        0.1728
     13  C          1.6140  -13.9190   14.1500 C.2     7  ALA7        0.2617
     14  O          0.5900  -13.8930   13.4570 O.2     7  ALA7       -0.2715
     15  CB         3.7030  -14.2450   12.7900 C.3     7  ALA7        0.0334
     16  N          1.8000  -13.1380   15.2090 N.am    8  SER8       -0.1936
     17  CA         0.8350  -12.1280   15.6230 C.3     8  SER8        0.2055
     18  C          1.3510  -10.7220   15.2780 C.2     8  SER8        0.2643
     19  O          2.5630  -10.4880   15.2170 O.2     8  SER8       -0.2714
     20  CB         0.5530  -12.2450   17.1130 C.3     8  SER8        0.2130
     21  OG        -0.0370  -13.4940   17.4230 O.3     8  SER8       -0.2179
     22  N          0.4240   -9.7910   15.0780 N.am    9  LYS9       -0.1963
     23  CA         0.7660   -8.4770   14.5210 C.3     9  LYS9        0.1728
     24  C          0.6370   -7.3580   15.5340 C.2     9  LYS9        0.2617
     25  O         -0.3780   -7.2470   16.2030 O.2     9  LYS9       -0.2715
     26  CB        -0.1450   -8.1550   13.3380 C.3     9  LYS9        0.0311
     27  CG        -0.2050   -9.2260   12.2710 C.3     9  LYS9        0.0038
     28  CD         1.0800   -9.2740   11.4770 C.3     9  LYS9        0.0206
     29  CE         0.8530  -10.0270   10.2070 C.3     9  LYS9        0.1093
     30  NZ         2.0050   -9.9570    9.3030 N.3     9  LYS9       -0.1314
     31  N          1.6590   -6.5160   15.6200 N.am   10  LEU10      -0.1942
     32  CA         1.5950   -5.3170   16.4530 C.3    10  LEU10       0.1978
     33  C          0.6610   -4.2960   15.7950 C.2    10  LEU10       0.3842
     34  O         -0.0540   -3.5280   16.4430 O.co2  10  LEU10      -0.2437
     35  CB         2.9810   -4.7250   16.6180 C.3    10  LEU10       0.0333
     36  CG         4.0390   -5.5660   17.3220 C.3    10  LEU10       0.0023
     37  CD1        5.4030   -4.8910   17.0960 C.3    10  LEU10       0.0001
     38  CD2        3.6870   -5.6450   18.7800 C.3    10  LEU10       0.0001
     39  OXT        0.6000   -4.2600   14.5580 O.co2  10  LEU10      -0.2437
@<TRIPOS>BOND
     1    30    29    1
     2    29    28    1
     3    28    27    1
     4    27    26    1
     5    15    12    1
     6    10     7    1
     7    26    23    1
     8    11    12    1
     9    11     8   am
    10    14    13    2
    11     7     8    1
    12     7     6    1
    13    12    13    1
    14    13    16   am
    15     8     9    2
    16     4     3    2
    17     6     3   am
    18    23    22    1
    19    23    24    1
    20    39    33   ar
    21     5     2    1
    22     3     2    1
    23    22    18   am
    24    16    17    1
    25    19    18    2
    26    18    17    1
    27     2     1    1
    28    24    31   am
    29    24    25    2
    30    31    32    1
    31    17    20    1
    32    33    34   ar
    33    33    32    1
    34    32    35    1
    35    35    36    1
    36    37    36    1
    37    20    21    1
    38    36    38    1
