@<TRIPOS>MOLECULE
3cvv_FO1_A_1.pdb
 26 28 0 0 0
SMALL
GASTEIGER

@<TRIPOS>ATOM
      1  N1        82.0580  -12.4380    2.3110 N.2   522  FO1522     -0.2915
      2  C1        81.8350  -13.7450    2.0170 C.1   522  FO1522      0.3667
      3  O1        80.9080  -14.0740    1.2300 O.2   522  FO1522     -0.1744
      4  N2        82.5760  -14.7230    2.5610 N.2   522  FO1522     -0.2326
      5  C2        83.5700  -14.4570    3.4190 C.1   522  FO1522      0.2212
      6  O2        84.2520  -15.4040    3.9040 O.2   522  FO1522     -0.2084
      7  C3        83.8550  -13.0370    3.7590 C.2   522  FO1522      0.1406
      8  C4        84.8820  -12.7050    4.6440 C.2   522  FO1522      0.0179
      9  C5        85.1360  -11.3600    4.9400 C.ar  522  FO1522      0.0148
     10  C6        86.1600  -10.9890    5.8040 C.ar  522  FO1522      0.0045
     11  C7        86.3560   -9.6320    6.0420 C.ar  522  FO1522      0.0421
     12  C9        85.5080   -8.6980    5.4150 C.ar  522  FO1522      0.1970
     13  O10       85.7270   -7.3910    5.6730 O.3   522  FO1522     -0.2865
     14  C11       84.5420   -9.0500    4.5990 C.ar  522  FO1522      0.0569
     15  C12       84.2850  -10.2990    4.3390 C.ar  522  FO1522      0.0569
     16  N3        83.2830  -10.6750    3.3960 N.pl3 522  FO1522     -0.2585
     17  C13       83.0410  -12.0580    3.1810 C.2   522  FO1522      0.2146
     18  C14       82.1280   -9.7670    3.2020 C.3   522  FO1522      0.1335
     19  C15       82.4550   -9.0630    1.8700 C.3   522  FO1522      0.2048
     20  O3        82.5880   -7.6610    2.1160 O.3   522  FO1522     -0.2185
     21  C16       81.4270   -9.3280    0.7670 C.3   522  FO1522      0.2166
     22  O4        81.4890  -10.6880    0.3400 O.3   522  FO1522     -0.2175
     23  C17       81.6260   -8.4840   -0.4850 C.3   522  FO1522      0.2175
     24  O5        80.4240   -8.5550   -1.2400 O.3   522  FO1522     -0.2175
     25  C18       82.7840   -8.9390   -1.3700 C.3   522  FO1522      0.2175
     26  O6        82.8070   -8.0870   -2.5190 O.3   522  FO1522     -0.2175
@<TRIPOS>BOND
     1    26    25    1
     2    25    23    1
     3    24    23    1
     4    23    21    1
     5    22    21    1
     6    21    19    1
     7     3     2    2
     8    19    20    1
     9    19    18    1
    10     2     1    2
    11     2     4    2
    12     1    17    2
    13     4     5    2
    14    17    16    1
    15    17     7    1
    16    18    16    1
    17    16    15    1
    18     5     7    1
    19     5     6    2
    20     7     8    2
    21    15    14   ar
    22    15     9   ar
    23    14    12   ar
    24     8     9    1
    25     9    10   ar
    26    12    13    1
    27    12    11   ar
    28    10    11   ar
