@<TRIPOS>MOLECULE
3cvw_FO1_A_1.pdb
 26 28 0 0 0
SMALL
GASTEIGER

@<TRIPOS>ATOM
      1  N1         3.1910   12.9400  -42.5280 N.2   1422  FO11422    -0.2915
      2  C1         3.6040   14.2240  -42.6840 C.1   1422  FO11422     0.3667
      3  O1         4.4380   14.5000  -43.5750 O.2   1422  FO11422    -0.1744
      4  N2         3.1290   15.2120  -41.8910 N.2   1422  FO11422    -0.2326
      5  C2         2.2290   14.9470  -40.9220 C.1   1422  FO11422     0.2212
      6  O2         1.7990   15.8700  -40.1970 O.2   1422  FO11422    -0.2084
      7  C3         1.7660   13.5440  -40.7380 C.2   1422  FO11422     0.1406
      8  C4         0.8410   13.2370  -39.7480 C.2   1422  FO11422     0.0179
      9  C5         0.4290   11.9240  -39.6010 C.ar  1422  FO11422     0.0148
     10  C6        -0.4930   11.5600  -38.6310 C.ar  1422  FO11422     0.0045
     11  C7        -0.8470   10.2170  -38.5580 C.ar  1422  FO11422     0.0421
     12  C9        -0.2800    9.2940  -39.4400 C.ar  1422  FO11422     0.1970
     13  O10       -0.6410    7.9830  -39.3520 O.3   1422  FO11422    -0.2865
     14  C11        0.5780    9.6470  -40.3420 C.ar  1422  FO11422     0.0569
     15  C12        0.9800   10.8690  -40.4970 C.ar  1422  FO11422     0.0569
     16  N3         1.9230   11.1910  -41.5090 N.pl3 1422  FO11422    -0.2585
     17  C13        2.2910   12.5630  -41.5840 C.2   1422  FO11422     0.2146
     18  C14        3.1110   10.3210  -41.4530 C.3   1422  FO11422     0.1335
     19  C15        3.0270    9.3940  -42.6630 C.3   1422  FO11422     0.2048
     20  O3         3.0700    8.0310  -42.2190 O.3   1422  FO11422    -0.2185
     21  C16        4.1340    9.6580  -43.6830 C.3   1422  FO11422     0.2166
     22  O4         4.1340   11.0370  -44.0760 O.3   1422  FO11422    -0.2175
     23  C17        3.9920    8.7790  -44.9240 C.3   1422  FO11422     0.2175
     24  O5         5.2470    8.7470  -45.6120 O.3   1422  FO11422    -0.2175
     25  C18        2.9050    9.2630  -45.8820 C.3   1422  FO11422     0.2175
     26  O6         2.6270    8.2420  -46.8470 O.3   1422  FO11422    -0.2175
@<TRIPOS>BOND
     1    26    25    1
     2    25    23    1
     3    24    23    1
     4    23    21    1
     5    22    21    1
     6    21    19    1
     7     3     2    2
     8     2     1    2
     9     2     4    2
    10    19    20    1
    11    19    18    1
    12     1    17    2
    13     4     5    2
    14    17    16    1
    15    17     7    1
    16    16    18    1
    17    16    15    1
    18     5     7    1
    19     5     6    2
    20     7     8    2
    21    15    14   ar
    22    15     9   ar
    23    14    12   ar
    24     8     9    1
    25     9    10   ar
    26    12    13    1
    27    12    11   ar
    28    10    11   ar
