@<TRIPOS>MOLECULE
3cw8_00A_X_1.pdb
 32 35 0 0 0
SMALL
GASTEIGER

@<TRIPOS>ATOM
      1  O2P        3.6200   49.6980  -10.0400 O.3   909  00A909     -0.4273
      2  P          4.4900   48.4790  -10.3690 P.3   909  00A909      0.2725
      3  O1P        3.7240   47.1500  -10.2890 O.2   909  00A909     -0.5081
      4  O3P        5.9250   48.4870   -9.4880 O.3   909  00A909     -0.4070
      5  CC         7.2700   49.1530   -9.6780 C.2   909  00A909      0.3452
      6  C1C        8.5460   48.5300   -9.1430 C.ar  909  00A909      0.0760
      7  C2C        8.5360   47.3030   -8.4470 C.ar  909  00A909      0.0073
      8  C3C        9.7270   46.7140   -7.9460 C.ar  909  00A909      0.0116
      9  C4C       10.9600   47.3570   -8.1400 C.ar  909  00A909      0.0577
     10 CL4A       12.5300   46.6240   -7.5060 Cl    909  00A909     -0.0822
     11  C5C       10.9540   48.6050   -8.8330 C.ar  909  00A909      0.0116
     12  C6C        9.7740   49.1960   -9.3360 C.ar  909  00A909      0.0073
     13  O2         7.4250   50.2440  -10.2630 O.2   909  00A909     -0.2446
     14  O5'        5.0950   48.6060  -11.8730 O.3   909  00A909     -0.3024
     15  C5'        5.5940   49.8480  -12.3610 C.3   909  00A909      0.1823
     16  C4'        6.2740   49.5420  -13.6800 C.3   909  00A909      0.1822
     17  C3'        7.0410   48.2360  -13.7740 C.3   909  00A909      0.2184
     18  O3'        6.2330   47.0800  -14.0640 O.3   909  00A909     -0.2174
     19  C2'        8.0520   48.5050  -14.8590 C.3   909  00A909      0.2570
     20  O2'        7.5000   47.9540  -16.0590 O.3   909  00A909     -0.2130
     21  C1'        8.2300   50.0310  -14.8830 C.3   909  00A909      0.3186
     22  O4'        7.1900   50.5600  -14.0810 O.3   909  00A909     -0.3135
     23  N9         9.4690   50.4730  -14.1720 N.pl3 909  00A909     -0.1439
     24  C4        10.3440   51.3490  -14.6820 C.2   909  00A909      0.3518
     25  C5        11.4000   51.5120  -13.6410 C.2   909  00A909      0.2526
     26  N7        11.0620   50.7330  -12.5740 N.2   909  00A909     -0.2095
     27  C8         9.9150   50.1310  -12.9120 C.3   909  00A909      0.3377
     28  C6        12.4830   52.4310  -14.0130 C.2   909  00A909      0.4393
     29  N6        13.5020   52.6900  -13.2000 N.pl3 909  00A909      0.2180
     30  N1        12.4410   53.0390  -15.2190 N.2   909  00A909      0.0021
     31  C2        11.4390   52.8380  -16.1260 C.3   909  00A909      0.5254
     32  N3        10.4150   52.0200  -15.8720 N.2   909  00A909     -0.0055
@<TRIPOS>BOND
     1    31    32    1
     2    31    30    1
     3    20    19    1
     4    32    24    2
     5    30    28    2
     6    21    19    1
     7    21    23    1
     8    21    22    1
     9    19    17    1
    10    24    23    1
    11    24    25    1
    12    23    27    1
    13    22    16    1
    14    18    17    1
    15    28    25    1
    16    28    29    1
    17    17    16    1
    18    16    15    1
    19    25    26    2
    20    27    26    1
    21    15    14    1
    22    14     2    1
    23     2     3    2
    24     2     1    1
    25     2     4    1
    26    13     5    2
    27     5     4    1
    28     5     6    1
    29    12     6   ar
    30    12    11   ar
    31     6     7   ar
    32    11     9   ar
    33     7     8   ar
    34     9     8   ar
    35     9    10    1
