@<TRIPOS>MOLECULE
3cw9_AMP_A_1.pdb
 23 25 0 0 0
SMALL
GASTEIGER

@<TRIPOS>ATOM
      1  P         32.6350   20.7260   72.0180 P.3   997  AMP997      0.5327
      2  O1P       34.1330   20.8440   71.8750 O.3   997  AMP997     -0.1145
      3  O2P       31.8800   21.9500   71.5790 O.3   997  AMP997     -0.1145
      4  O3P       32.0850   19.4560   71.4210 O.2   997  AMP997     -0.2224
      5  O5'       32.4060   20.5830   73.6360 O.3   997  AMP997     -0.2675
      6  C5'       32.8210   19.3810   74.3070 C.3   997  AMP997      0.1860
      7  C4'       33.5790   19.6580   75.6010 C.3   997  AMP997      0.1823
      8  O4'       32.6500   19.9320   76.6520 O.3   997  AMP997     -0.3135
      9  C3'       34.3400   18.4350   76.1000 C.3   997  AMP997      0.2184
     10  O3'       35.6550   18.3230   75.5540 O.3   997  AMP997     -0.2174
     11  C2'       34.3880   18.6350   77.5990 C.3   997  AMP997      0.2570
     12  O2'       35.4110   19.5750   77.9620 O.3   997  AMP997     -0.2130
     13  C1'       33.0550   19.2990   77.8720 C.3   997  AMP997      0.3186
     14  N9        32.0140   18.3460   78.3630 N.pl3 997  AMP997     -0.1439
     15  C8        30.9350   17.9060   77.6910 C.3   997  AMP997      0.3377
     16  N7        30.1690   17.0760   78.4460 N.2   997  AMP997     -0.2095
     17  C5        30.7780   16.9760   79.6450 C.2   997  AMP997      0.2526
     18  C6        30.5260   16.2650   80.9170 C.2   997  AMP997      0.4393
     19  N6        29.4440   15.4700   81.0780 N.pl3 997  AMP997      0.2180
     20  N1        31.4170   16.4340   81.9220 N.2   997  AMP997      0.0021
     21  C2        32.5060   17.2160   81.7900 C.3   997  AMP997      0.5254
     22  N3        32.7970   17.8910   80.6670 N.2   997  AMP997     -0.0055
     23  C4        31.9850   17.8140   79.5820 C.2   997  AMP997      0.3518
@<TRIPOS>BOND
     1     4     1    2
     2     3     1    1
     3     2     1    1
     4     1     5    1
     5     5     6    1
     6     6     7    1
     7    10     9    1
     8     7     9    1
     9     7     8    1
    10     9    11    1
    11     8    13    1
    12    11    13    1
    13    11    12    1
    14    15    14    1
    15    15    16    1
    16    13    14    1
    17    14    23    1
    18    16    17    2
    19    23    17    1
    20    23    22    2
    21    17    18    1
    22    22    21    1
    23    18    19    1
    24    18    20    2
    25    21    20    1
