@<TRIPOS>MOLECULE
3cwb_HEC_D_1.pdb
 43 50 0 0 0
SMALL
GASTEIGER

@<TRIPOS>ATOM
      1 FE          4.1010  160.9330   66.3030 Fe    501  HEC501      0.0000
      2  CHA        3.0410  158.5170   68.4080 C.2   501  HEC501      0.0000
      3  CHB        5.3240  158.6560   64.2640 C.2   501  HEC501      0.0000
      4  CHC        5.4050  163.3470   64.1740 C.2   501  HEC501      0.0000
      5  CHD        2.9650  163.2270   68.3450 C.2   501  HEC501      0.0000
      6  NA         4.1560  159.0240   66.3630 N.ar  501  HEC501      0.0000
      7  C1A        3.6680  158.1580   67.2830 C.ar  501  HEC501      0.0000
      8  C2A        3.6900  156.8120   66.8280 C.ar  501  HEC501      0.0000
      9  C3A        4.4420  156.8210   65.7740 C.ar  501  HEC501      0.0000
     10  C4A        4.7060  158.2120   65.4430 C.ar  501  HEC501      0.0000
     11  CMA        4.7550  155.5350   65.0300 C.3   501  HEC501      0.0000
     12  CAA        2.8930  155.5890   67.1770 C.3   501  HEC501      0.0000
     13  CBA        2.4890  155.2730   68.5820 C.3   501  HEC501      0.0000
     14  CGA        1.8770  153.8910   68.6580 C.2   501  HEC501      0.0000
     15  O1A        1.6280  153.3980   69.7770 O.co2 501  HEC501      0.0000
     16  O2A        1.6410  153.2830   67.5920 O.co2 501  HEC501      0.0000
     17  NB         5.0620  161.0610   64.5260 N.2   501  HEC501      0.0000
     18  C1B        5.4960  159.9810   63.8060 C.2   501  HEC501      0.0000
     19  C2B        6.2000  160.3900   62.5860 C.2   501  HEC501      0.0000
     20  C3B        6.2310  161.6830   62.5810 C.2   501  HEC501      0.0000
     21  C4B        5.5330  162.1050   63.7620 C.2   501  HEC501      0.0000
     22  CMB        6.9400  159.5520   61.5670 C.3   501  HEC501      0.0000
     23  CAB        7.1250  162.5600   61.7560 C.3   501  HEC501      0.0000
     24  CBB        6.9360  162.2730   60.2810 C.3   501  HEC501      0.0000
     25  NC         4.1330  162.8520   66.2330 N.ar  501  HEC501      0.0000
     26  C1C        4.7640  163.7240   65.3320 C.ar  501  HEC501      0.0000
     27  C2C        4.7550  165.1200   65.7970 C.ar  501  HEC501      0.0000
     28  C3C        4.0330  165.0740   66.9260 C.ar  501  HEC501      0.0000
     29  C4C        3.6190  163.6710   67.1890 C.ar  501  HEC501      0.0000
     30  CMC        5.4760  166.3700   65.2670 C.3   501  HEC501      0.0000
     31  CAC        3.7720  166.1130   68.0320 C.3   501  HEC501      0.0000
     32  CBC        2.6220  166.8850   67.3090 C.3   501  HEC501      0.0000
     33  ND         3.1530  160.8960   67.9710 N.2   501  HEC501      0.0000
     34  C1D        2.7390  161.9530   68.7210 C.2   501  HEC501      0.0000
     35  C2D        1.9390  161.4790   69.8830 C.2   501  HEC501      0.0000
     36  C3D        1.9310  160.1300   69.8720 C.2   501  HEC501      0.0000
     37  C4D        2.7390  159.7930   68.7090 C.2   501  HEC501      0.0000
     38  CMD        1.1990  162.2450   70.9480 C.3   501  HEC501      0.0000
     39  CAD        1.3020  159.2100   70.9060 C.3   501  HEC501      0.0000
     40  CBD       -0.0560  158.6550   70.5220 C.3   501  HEC501      0.0000
     41  CGD       -0.7780  157.9830   71.6910 C.2   501  HEC501      0.0000
     42  O1D       -0.1370  157.1750   72.4150 O.co2 501  HEC501      0.0000
     43  O2D       -1.9900  158.2550   71.8840 O.co2 501  HEC501      0.0000
@<TRIPOS>BOND
     1    24    23    1
     2    22    19    1
     3    23    20    1
     4    20    19    2
     5    20    21    1
     6    19    18    1
     7    21     4    2
     8    21    17    1
     9    18     3    1
    10    18    17    2
    11     4    26    1
    12     3    10    2
    13    17     1    1
    14    11     9    1
    15    30    27    1
    16    26    27   ar
    17    26    25   ar
    18    10     9   ar
    19    10     6   ar
    20     9     8   ar
    21    27    28   ar
    22    25     1    1
    23    25    29   ar
    24     1     6    1
    25     1    33    1
    26     6     7   ar
    27     8    12    1
    28     8     7   ar
    29    28    29   ar
    30    28    31    1
    31    12    13    1
    32    29     5    1
    33     7     2    2
    34    32    31    1
    35    16    14   ar
    36    33    37    2
    37    33    34    1
    38     5    34    2
    39     2    37    1
    40    13    14    1
    41    14    15   ar
    42    37    36    1
    43    34    35    1
    44    36    35    2
    45    36    39    1
    46    35    38    1
    47    40    39    1
    48    40    41    1
    49    41    43   ar
    50    41    42   ar
