@<TRIPOS>MOLECULE
3cwb_HEM_C_1.pdb
 43 50 0 0 0
SMALL
GASTEIGER

@<TRIPOS>ATOM
      1  CHA       21.4700  137.5780   77.6390 C.2   501  HEM501      0.0000
      2  CHB       20.5320  132.9430   77.2280 C.2   501  HEM501      0.0000
      3  CHC       24.9510  132.0370   78.7490 C.2   501  HEM501      0.0000
      4  CHD       25.8120  136.6220   79.1380 C.2   501  HEM501      0.0000
      5  C1A       20.8570  136.4060   77.3740 C.ar  501  HEM501      0.0000
      6  C2A       19.4970  136.3130   77.0170 C.ar  501  HEM501      0.0000
      7  C3A       19.1880  135.0250   77.0470 C.ar  501  HEM501      0.0000
      8  C4A       20.4410  134.3220   77.2560 C.ar  501  HEM501      0.0000
      9  CMA       17.7790  134.3900   76.9120 C.3   501  HEM501      0.0000
     10  CAA       18.5800  137.4340   76.6820 C.3   501  HEM501      0.0000
     11  CBA       18.8770  137.6240   75.2100 C.3   501  HEM501      0.0000
     12  CGA       18.1220  138.8000   74.6010 C.2   501  HEM501      0.0000
     13  O1A       18.3420  139.9520   75.0620 O.co2 501  HEM501      0.0000
     14  O2A       17.3130  138.5680   73.6610 O.co2 501  HEM501      0.0000
     15  C1B       21.6690  132.2620   77.5250 C.2   501  HEM501      0.0000
     16  C2B       21.8020  130.7580   77.6580 C.2   501  HEM501      0.0000
     17  C3B       23.1020  130.5350   77.8820 C.2   501  HEM501      0.0000
     18  C4B       23.7140  131.8530   78.1590 C.2   501  HEM501      0.0000
     19  CMB       20.8080  129.6020   77.5960 C.3   501  HEM501      0.0000
     20  CAB       23.6510  129.3070   78.0260 C.3   501  HEM501      0.0000
     21  CBB       23.7230  128.9330   79.4790 C.3   501  HEM501      0.0000
     22  C1C       25.5290  133.2680   79.0900 C.ar  501  HEM501      0.0000
     23  C2C       26.8190  133.3110   79.6850 C.ar  501  HEM501      0.0000
     24  C3C       27.1050  134.6190   79.7060 C.ar  501  HEM501      0.0000
     25  C4C       25.9640  135.3240   79.1750 C.ar  501  HEM501      0.0000
     26  CMC       27.6680  132.0710   79.9680 C.3   501  HEM501      0.0000
     27  CAC       28.3000  135.1240   80.1280 C.3   501  HEM501      0.0000
     28  CBC       28.6280  134.7920   81.5910 C.3   501  HEM501      0.0000
     29  C1D       24.6940  137.2900   78.8090 C.2   501  HEM501      0.0000
     30  C2D       24.5820  138.7540   78.6790 C.2   501  HEM501      0.0000
     31  C3D       23.3550  138.9990   78.3360 C.2   501  HEM501      0.0000
     32  C4D       22.7330  137.7190   78.1510 C.2   501  HEM501      0.0000
     33  CMD       25.6200  139.8950   78.7650 C.3   501  HEM501      0.0000
     34  CAD       22.8350  140.4180   78.2750 C.3   501  HEM501      0.0000
     35  CBD       22.9560  141.1510   76.9550 C.3   501  HEM501      0.0000
     36  CGD       21.9020  140.7000   75.9720 C.2   501  HEM501      0.0000
     37  O1D       20.7190  140.5970   76.3760 O.co2 501  HEM501      0.0000
     38  O2D       22.2500  140.4530   74.7980 O.co2 501  HEM501      0.0000
     39  NA        21.4530  135.1930   77.5550 N.ar  501  HEM501      0.0000
     40  NB        22.8590  132.9340   77.8880 N.2   501  HEM501      0.0000
     41  NC        25.0030  134.5080   78.8100 N.ar  501  HEM501      0.0000
     42  ND        23.5760  136.6790   78.4380 N.2   501  HEM501      0.0000
     43 FE         23.2800  134.8500   78.1500 Fe    501  HEM501      0.0000
@<TRIPOS>BOND
     1    14    12   ar
     2    12    13   ar
     3    12    11    1
     4    38    36   ar
     5    11    10    1
     6    36    37   ar
     7    36    35    1
     8    10     6    1
     9     9     7    1
    10    35    34    1
    11     6     7   ar
    12     6     5   ar
    13     7     8   ar
    14     2     8    2
    15     2    15    1
    16     8    39   ar
    17     5    39   ar
    18     5     1    2
    19    15    16    1
    20    15    40    2
    21    39    43    1
    22    19    16    1
    23     1    32    1
    24    16    17    2
    25    17    20    1
    26    17    18    1
    27    40    43    1
    28    40    18    1
    29    20    21    1
    30    43    42    1
    31    43    41    1
    32    32    31    1
    33    32    42    2
    34    18     3    2
    35    34    31    1
    36    31    30    2
    37    42    29    1
    38    30    33    1
    39    30    29    1
    40     3    22    1
    41    29     4    2
    42    41    22   ar
    43    41    25   ar
    44    22    23   ar
    45     4    25    1
    46    25    24   ar
    47    23    24   ar
    48    23    26    1
    49    24    27    1
    50    27    28    1
