@<TRIPOS>MOLECULE
3cwb_ICX_C_1.pdb
 30 31 0 0 0
SMALL
GASTEIGER

@<TRIPOS>ATOM
      1  C5        11.4650  129.2850   83.9300 C.ar  2001  ICX2001     0.0055
      2  C4        10.4050  129.1310   83.0460 C.ar  2001  ICX2001    -0.0035
      3  C3         9.1450  128.6880   83.4840 C.ar  2001  ICX2001    -0.0178
      4  C7         8.0080  128.5370   82.5260 C.3   2001  ICX2001     0.0526
      5  C8         7.0480  129.7000   82.6080 C.ar  2001  ICX2001    -0.0178
      6  C9         7.3980  130.9370   81.9900 C.ar  2001  ICX2001    -0.0038
      7  C10        6.5360  132.0710   82.0380 C.ar  2001  ICX2001     0.0043
      8  C11        5.2840  131.9850   82.7180 C.ar  2001  ICX2001     0.0554
      9  C12        4.9240  130.7500   83.3430 C.ar  2001  ICX2001     0.0043
     10  C13        5.8010  129.6260   83.2860 C.ar  2001  ICX2001    -0.0038
     11  C23        4.3280  133.1400   82.7960 C.2   2001  ICX2001     0.2690
     12  O24        3.1910  132.9840   83.2890 O.2   2001  ICX2001    -0.2680
     13  N25        4.7600  134.3560   82.3020 N.am  2001  ICX2001    -0.1745
     14  C26        3.9520  135.4470   82.3400 C.2   2001  ICX2001     0.0844
     15  C27        4.3170  136.6870   82.0630 C.2   2001  ICX2001    -0.0082
     16  C28        5.6360  137.2130   81.6480 C.3   2001  ICX2001     0.0279
     17  C29        5.7800  137.2030   80.1640 C.3   2001  ICX2001     0.0143
     18  C30        7.2360  137.0920   79.7020 C.3   2001  ICX2001     0.0872
     19  C31        7.9340  135.8890   80.2410 C.2   2001  ICX2001     0.2419
     20  O32        7.3850  134.9100   80.7860 O.2   2001  ICX2001    -0.2733
     21  N33        9.2680  136.0290   80.0520 N.am  2001  ICX2001    -0.1933
     22  C34       10.2240  135.0470   80.4480 C.3   2001  ICX2001     0.2240
     23  C35       10.7370  134.3520   79.2280 C.2   2001  ICX2001     0.3395
     24  O36       10.0450  133.9530   78.2960 O.2   2001  ICX2001    -0.2481
     25  O37       12.0880  134.2560   79.3530 O.3   2001  ICX2001    -0.4432
     26  C38       12.7390  133.6150   78.2680 C.3   2001  ICX2001     0.2557
     27  C2         8.9820  128.4080   84.8670 C.ar  2001  ICX2001    -0.0035
     28  C1        10.0480  128.5620   85.7880 C.ar  2001  ICX2001     0.0055
     29  C6        11.3050  129.0190   85.2950 C.ar  2001  ICX2001     0.0300
     30  I1        12.9050  129.2720   86.5910 I     2001  ICX2001    -0.0425
@<TRIPOS>BOND
     1    26    25    1
     2    24    23    2
     3    23    25    1
     4    23    22    1
     5    18    17    1
     6    18    19    1
     7    21    19   am
     8    21    22    1
     9    17    16    1
    10    19    20    2
    11    16    15    1
    12     6     7   ar
    13     6     5   ar
    14     7     8   ar
    15    15    14    2
    16    13    14    1
    17    13    11   am
    18     4     5    1
    19     4     3    1
    20     5    10   ar
    21     8    11    1
    22     8     9   ar
    23    11    12    2
    24     2     3   ar
    25     2     1   ar
    26    10     9   ar
    27     3    27   ar
    28     1    29   ar
    29    27    28   ar
    30    29    28   ar
    31    29    30    1
