@<TRIPOS>MOLECULE
3cwb_UQ_C_1.pdb
 19 19 0 0 0
SMALL
GASTEIGER

@<TRIPOS>ATOM
      1  C1        28.6830  111.1720   71.4230 C.2   2002  UQ2002      0.2285
      2  C2        28.3650  109.6760   71.7280 C.2   2002  UQ2002      0.2140
      3  C3        28.8930  109.0500   72.8650 C.2   2002  UQ2002      0.2140
      4  C4        29.8080  109.8520   73.8390 C.2   2002  UQ2002      0.2282
      5  C5        30.1440  111.3540   73.5460 C.2   2002  UQ2002      0.0198
      6  C6        29.6060  111.9930   72.3860 C.2   2002  UQ2002      0.0235
      7  CM5       31.0790  112.0690   74.5730 C.3   2002  UQ2002      0.0343
      8  CM3       29.5450  106.6670   72.6550 C.3   2002  UQ2002      0.2528
      9  CM2       28.1790  108.4870   69.6020 C.3   2002  UQ2002      0.2528
     10  C7        29.8610  113.5030   71.9400 C.3   2002  UQ2002      0.0548
     11  C8        30.1490  114.6170   72.9490 C.2   2002  UQ2002     -0.0298
     12  C9        30.8010  115.7900   72.7070 C.2   2002  UQ2002     -0.0478
     13  C10       31.3170  116.0910   71.3060 C.3   2002  UQ2002      0.0260
     14  C11       31.0690  116.8720   73.7390 C.3   2002  UQ2002      0.0217
     15  C12       32.4480  116.8100   74.4360 C.3   2002  UQ2002      0.0047
     16  O2        27.5250  108.9670   70.8150 O.2   2002  UQ2002     -0.4652
     17  O3        28.6080  107.6690   73.1580 O.2   2002  UQ2002     -0.4652
     18  O4        30.2690  109.2860   74.8420 O.2   2002  UQ2002     -0.2836
     19  O1        28.1980  111.7020   70.4000 O.2   2002  UQ2002     -0.2835
@<TRIPOS>BOND
     1     9    16    1
     2    19     1    2
     3    16     2    1
     4    13    12    1
     5     1     2    1
     6     1     6    1
     7     2     3    2
     8    10     6    1
     9    10    11    1
    10     6     5    2
    11     8    17    1
    12    12    11    2
    13    12    14    1
    14     3    17    1
    15     3     4    1
    16     5     4    1
    17     5     7    1
    18    14    15    1
    19     4    18    2
