@<TRIPOS>MOLECULE
3cwd_LNA_A_1.pdb
 23 22 0 0 0
SMALL
GASTEIGER

@<TRIPOS>ATOM
      1  O20      -33.3630   20.9120    3.1080 O.co2   1  LNA1       -0.2457
      2  C1       -33.4580   19.7430    3.5310 C.2     1  LNA1        0.3649
      3  O19      -32.5290   19.1160    4.0500 O.co2   1  LNA1       -0.2457
      4  C2       -34.7680   19.0400    3.4000 C.3     1  LNA1        0.1141
      5  C3       -34.8740   18.5260    1.9930 C.3     1  LNA1        0.0118
      6  C4       -35.7350   17.2950    1.9450 C.3     1  LNA1        0.0006
      7  C5       -35.3580   16.5600    0.6810 C.3     1  LNA1        0.0000
      8  C6       -34.0730   17.1490    0.1570 C.3     1  LNA1        0.0003
      9  C7       -34.0950   17.2830   -1.3350 C.3     1  LNA1        0.0047
     10  C8       -33.8400   18.7300   -1.6240 C.3     1  LNA1        0.0274
     11  C9       -35.1820   19.2560   -2.0230 C.2     1  LNA1       -0.0065
     12  C10      -35.4410   19.9240   -3.1420 C.2     1  LNA1        0.1162
     13  N21      -36.6240   20.2400   -3.2720 N.pl3   1  LNA1        0.0532
     14  O22      -37.4180   19.9490   -2.4400 O.2     1  LNA1       -0.1264
     15  O23      -36.9810   20.8360   -4.2390 O.2     1  LNA1       -0.1264
     16  C11      -34.3640   20.4790   -4.1250 C.3     1  LNA1        0.0505
     17  C12      -34.9630   21.0500   -5.4210 C.3     1  LNA1        0.0064
     18  C13      -33.9470   21.4680   -6.2250 C.3     1  LNA1        0.0004
     19  C14      -32.5430   21.4150   -5.5990 C.3     1  LNA1        0.0000
     20  C15      -31.7740   22.7430   -5.5140 C.3     1  LNA1        0.0000
     21  C16      -32.3190   23.7110   -4.4640 C.3     1  LNA1        0.0000
     22  C17      -32.5200   25.1540   -4.9510 C.3     1  LNA1        0.0000
     23  C18      -33.9560   25.5290   -5.1940 C.3     1  LNA1        0.0000
@<TRIPOS>BOND
     1    18    19    1
     2    18    17    1
     3    19    20    1
     4    20    21    1
     5    17    16    1
     6    23    22    1
     7    22    21    1
     8    15    13    2
     9    16    12    1
    10    13    12    1
    11    13    14    2
    12    12    11    2
    13    11    10    1
    14    10     9    1
    15     9     8    1
    16     8     7    1
    17     7     6    1
    18     6     5    1
    19     5     4    1
    20     1     2   ar
    21     4     2    1
    22     2     3   ar
