@<TRIPOS>MOLECULE
3cwd_LNB_A_1.pdb
 23 22 0 0 0
SMALL
GASTEIGER

@<TRIPOS>ATOM
      1  O20      -32.6600   18.9260    3.9460 O.co2 478  LNB478     -0.2457
      2  C1       -33.6460   19.4020    3.3730 C.2   478  LNB478      0.3649
      3  O19      -33.7040   20.6200    3.1470 O.co2 478  LNB478     -0.2457
      4  C2       -34.7800   18.4950    2.9500 C.3   478  LNB478      0.1141
      5  C3       -34.8770   18.4170    1.4370 C.3   478  LNB478      0.0118
      6  C4       -34.9620   17.0040    0.8890 C.3   478  LNB478      0.0006
      7  C5       -34.2790   16.8500   -0.4650 C.3   478  LNB478      0.0000
      8  C6       -33.8960   18.1700   -1.0720 C.3   478  LNB478      0.0003
      9  C7       -34.8350   18.5170   -2.2060 C.3   478  LNB478      0.0047
     10  C8       -35.5360   19.8600   -2.0010 C.3   478  LNB478      0.0257
     11  C9       -36.6880   20.0340   -2.9480 C.2   478  LNB478     -0.0303
     12  C10      -36.3990   20.5750   -4.1170 C.2   478  LNB478     -0.0242
     13  C11      -34.9620   20.9680   -4.4060 C.3   478  LNB478      0.0761
     14  C12      -34.6950   21.3370   -5.8540 C.2   478  LNB478      0.1206
     15  N21      -35.7060   21.5620   -6.6570 N.pl3 478  LNB478      0.0536
     16  O22      -35.5440   21.8340   -7.7880 O.2   478  LNB478     -0.1264
     17  O23      -36.8350   21.4970   -6.2810 O.2   478  LNB478     -0.1264
     18  C13      -33.4720   21.4470   -6.3900 C.2   478  LNB478     -0.0062
     19  C14      -32.1690   21.2340   -5.6530 C.3   478  LNB478      0.0274
     20  C15      -31.8040   22.3550   -4.6800 C.3   478  LNB478      0.0047
     21  C16      -31.8540   23.7350   -5.3000 C.3   478  LNB478      0.0003
     22  C17      -32.7540   24.7000   -4.5260 C.3   478  LNB478      0.0000
     23  C18      -33.3810   25.7500   -5.4080 C.3   478  LNB478      0.0000
@<TRIPOS>BOND
     1    16    15    2
     2    15    17    2
     3    15    14    1
     4    18    14    2
     5    18    19    1
     6    14    13    1
     7    19    20    1
     8    23    22    1
     9    21    20    1
    10    21    22    1
    11    13    12    1
    12    12    11    2
    13    11    10    1
    14     9    10    1
    15     9     8    1
    16     8     7    1
    17     7     6    1
    18     6     5    1
    19     5     4    1
    20     4     2    1
    21     3     2   ar
    22     2     1   ar
