@<TRIPOS>MOLECULE
3cwe_825_A_1.pdb
 30 32 0 0 0
SMALL
GASTEIGER

@<TRIPOS>ATOM
      1  O57       25.9240   25.6070   -1.1750 O.2   784  825784     -0.2910
      2  C56       24.7520   25.2270   -1.1720 C.2   784  825784      0.1770
      3  C55       23.6780   26.0580   -1.8370 C.ar  784  825784      0.0350
      4  C62       22.3520   25.6170   -1.8830 C.ar  784  825784      0.0029
      5  C61       21.3750   26.4110   -2.4930 C.ar  784  825784      0.0001
      6  C60       21.7310   27.6400   -3.0410 C.ar  784  825784      0.0000
      7  C59       23.0410   28.0870   -3.0060 C.ar  784  825784      0.0001
      8  C58       24.0170   27.2970   -2.3960 C.ar  784  825784      0.0029
      9  C20       24.4050   23.9120   -0.5330 C.3   784  825784      0.0884
     10  C4        24.5770   22.8060   -1.5290 C.ar  784  825784     -0.0149
     11  C3        23.4550   22.0810   -1.9470 C.ar  784  825784     -0.0038
     12  C2        23.5840   21.0410   -2.8760 C.ar  784  825784     -0.0003
     13  C5        25.8500   22.5050   -2.0550 C.ar  784  825784     -0.0038
     14  C6        25.9790   21.4630   -2.9810 C.ar  784  825784     -0.0003
     15  C1        24.8520   20.7370   -3.3850 C.ar  784  825784     -0.0000
     16  C44       25.2720   23.7090    0.7360 C.3   784  825784      0.0384
     17  C36       24.7680   22.5300    1.5390 C.ar  784  825784     -0.0209
     18  C37       25.3050   21.2450    1.3140 C.ar  784  825784      0.0023
     19  C38       24.8550   20.1410    2.0210 C.ar  784  825784      0.0358
     20 BR1        25.5940   18.5180    1.6320 Br    784  825784     -0.0491
     21  C39       23.8120   20.3580    3.0760 C.ar  784  825784      0.0506
     22  C40       23.2880   21.6520    3.2650 C.ar  784  825784      0.0016
     23  C35       23.7830   22.7190    2.5130 C.ar  784  825784     -0.0044
     24  C45       23.1990   19.2440    3.8870 C.3   784  825784      0.3253
     25  F46       23.1450   18.1350    3.1500 F     784  825784     -0.1920
     26  F47       21.9310   19.6050    4.1080 F     784  825784     -0.1920
     27  P48       23.9550   18.8920    5.5260 P.3   784  825784      0.1831
     28  O49       23.9090   20.2060    6.2500 O.3   784  825784     -0.3533
     29  O50       25.3530   18.4060    5.2760 O.2   784  825784     -0.4543
     30  O51       23.0390   17.8140    6.0620 O.3   784  825784     -0.3533
@<TRIPOS>BOND
     1    15    14   ar
     2    15    12   ar
     3     6     7   ar
     4     6     5   ar
     5     7     8   ar
     6    14    13   ar
     7    12    11   ar
     8     5     4   ar
     9     8     3   ar
    10    13    10   ar
    11    11    10   ar
    12     4     3   ar
    13     3     2    1
    14    10     9    1
    15     1     2    2
    16     2     9    1
    17     9    16    1
    18    16    17    1
    19    18    17   ar
    20    18    19   ar
    21    17    23   ar
    22    20    19    1
    23    19    21   ar
    24    23    22   ar
    25    21    22   ar
    26    21    24    1
    27    25    24    1
    28    24    26    1
    29    24    27    1
    30    29    27    2
    31    27    30    1
    32    27    28    1
