@<TRIPOS>MOLECULE
3cwj_321_A_1.pdb
 35 38 0 0 0
SMALL
GASTEIGER

@<TRIPOS>ATOM
      1  O31       96.5110    7.0590   61.9250 O.2   1001  3211001    -0.1528
      2  S35       97.0080    8.4050   62.1440 S.O2  1001  3211001     0.0750
      3  O30       96.9420    9.0150   63.4540 O.2   1001  3211001    -0.1528
      4  C19       98.7340    8.4720   61.7140 C.3   1001  3211001     0.2016
      5  N26       96.2890    9.4970   61.0230 N.pl3 1001  3211001    -0.1009
      6  C8        96.2290    9.2790   59.6070 C.2   1001  3211001     0.0882
      7  C3        95.6680   10.3150   58.8560 C.2   1001  3211001    -0.0005
      8  C5        96.6880    8.1140   58.9620 C.2   1001  3211001     0.0383
      9  C9        96.5820    8.0070   57.5620 C.2   1001  3211001     0.1330
     10  S34       97.1450    6.5410   56.7240 S.O2  1001  3211001     0.0177
     11  O28       96.2700    5.4570   57.1220 O.2   1001  3211001    -0.1681
     12  O29       98.5790    6.4320   56.9120 O.2   1001  3211001    -0.1681
     13  C11       96.8500    6.8070   55.0480 C.3   1001  3211001     0.2146
     14  C14       96.2750    7.9470   54.6230 C.2   1001  3211001     0.1406
     15  N24       95.8900    8.9960   55.4260 N.2   1001  3211001    -0.4069
     16  C7        96.0150    9.0540   56.8120 C.2   1001  3211001     0.1300
     17  C2        95.5640   10.2060   57.4690 C.3   1001  3211001     0.0876
     18  C13       96.0530    8.1330   53.2040 C.ar  1001  3211001     0.1250
     19  C15       96.6560    7.4100   52.2340 C.ar  1001  3211001     0.2221
     20  O32       97.3750    6.2520   52.4760 O.3   1001  3211001    -0.2846
     21  C16       95.1310    9.2490   52.7820 C.ar  1001  3211001     0.2817
     22  O27       94.4730    9.8750   53.6280 O.2   1001  3211001    -0.2653
     23  N25       95.0750    9.5260   51.4160 N.ar  1001  3211001    -0.2164
     24  C21       94.3680   10.7040   50.9280 C.3   1001  3211001     0.1307
     25  C20       92.8780   10.4470   50.6920 C.3   1001  3211001     0.0265
     26  C22       92.5170    9.1910   49.8640 C.3   1001  3211001     0.0020
     27  C18       91.0430    8.8000   49.9780 C.3   1001  3211001     0.0001
     28  C17       92.8740    9.3670   48.3810 C.3   1001  3211001     0.0001
     29  N23       95.8970    8.9430   50.4920 N.ar  1001  3211001    -0.1631
     30  C12       96.5630    7.8820   50.8290 C.ar  1001  3211001     0.1459
     31  C10       97.4570    7.2760   49.8390 C.ar  1001  3211001     0.0520
     32  C4        97.9510    5.9920   49.7800 C.ar  1001  3211001     0.0087
     33  S33       98.0300    8.2470   48.5570 S.2   1001  3211001    -0.0848
     34  C6        98.9400    6.9530   47.9100 C.ar  1001  3211001     0.0355
     35  C1        98.8050    5.8080   48.6590 C.ar  1001  3211001     0.0075
@<TRIPOS>BOND
     1    34    33   ar
     2    34    35   ar
     3    28    26    1
     4    33    31   ar
     5    35    32   ar
     6    32    31   ar
     7    31    30    1
     8    26    27    1
     9    26    25    1
    10    29    30   ar
    11    29    23   ar
    12    25    24    1
    13    30    19   ar
    14    24    23    1
    15    23    21   ar
    16    19    20    1
    17    19    18   ar
    18    21    18   ar
    19    21    22    2
    20    18    14    1
    21    14    13    1
    22    14    15    2
    23    13    10    1
    24    15    16    2
    25    10    12    2
    26    10    11    2
    27    10     9    1
    28    16    17    1
    29    16     9    1
    30    17     7    1
    31     9     8    2
    32     7     6    2
    33     8     6    1
    34     6     5    1
    35     5     2    1
    36     4     2    1
    37     1     2    2
    38     2     3    2
