@<TRIPOS>MOLECULE
3cwk_REA_A_1.pdb
 22 22 0 0 0
SMALL
GASTEIGER

@<TRIPOS>ATOM
      1  C1        22.0920   27.8830   16.4930 C.3   300  REA300      0.0183
      2  C2        20.9680   28.5570   15.6480 C.3   300  REA300      0.0044
      3  C3        20.2340   27.6050   14.6950 C.3   300  REA300      0.0047
      4  C4        19.5760   26.4760   15.4410 C.3   300  REA300      0.0217
      5  C5        20.4920   25.9110   16.5100 C.2   300  REA300     -0.0479
      6  C6        21.6070   26.5590   17.0100 C.2   300  REA300     -0.0307
      7  C7        22.4990   25.9570   18.0310 C.2   300  REA300     -0.0052
      8  C8        22.0180   25.3630   19.2100 C.2   300  REA300     -0.0049
      9  C9        22.8780   24.6790   20.1590 C.2   300  REA300     -0.0261
     10  C10       22.1580   24.0250   21.2330 C.2   300  REA300     -0.0300
     11  C11       22.8650   23.3470   22.2870 C.3   300  REA300      0.0300
     12  C12       21.9490   22.7730   23.2670 C.3   300  REA300      0.0269
     13  C13       22.4290   21.9920   24.3450 C.2   300  REA300     -0.0370
     14  C14       21.4150   21.6930   25.2830 C.2   300  REA300      0.0777
     15  C15       21.6120   20.8450   26.4310 C.2   300  REA300      0.3873
     16  C16       22.4820   28.7450   17.6950 C.3   300  REA300      0.0043
     17  C17       23.3800   27.6340   15.6920 C.3   300  REA300      0.0043
     18  C18       20.0660   24.5640   16.9830 C.3   300  REA300      0.0260
     19  C19       24.3620   24.6900   20.0420 C.3   300  REA300      0.0307
     20  C20       23.8480   21.6100   24.3900 C.3   300  REA300      0.0266
     21  O1        22.4980   19.9380   26.3950 O.co2 300  REA300     -0.2406
     22  O2        20.8260   21.0520   27.4230 O.co2 300  REA300     -0.2406
@<TRIPOS>BOND
     1     3     4    1
     2     3     2    1
     3     4     5    1
     4     2     1    1
     5    17     1    1
     6     1     6    1
     7     1    16    1
     8     5    18    1
     9     5     6    2
    10     6     7    1
    11     7     8    2
    12     8     9    1
    13    19     9    1
    14     9    10    2
    15    10    11    1
    16    11    12    1
    17    12    13    1
    18    13    20    1
    19    13    14    2
    20    14    15    1
    21    21    15   ar
    22    15    22   ar
