@<TRIPOS>MOLECULE
3cwm_CIT_A_1.pdb
 13 12 0 0 0
SMALL
GASTEIGER

@<TRIPOS>ATOM
      1  C1        -9.0520   19.6740   59.9650 C.2   500  CIT500      0.3680
      2  O1        -8.4010   20.7140   60.3540 O.co2 500  CIT500     -0.2455
      3  O2        -9.6990   19.6460   58.8930 O.co2 500  CIT500     -0.2455
      4  C2        -9.0560   18.3860   60.7420 C.3   500  CIT500      0.1560
      5  C3       -10.0720   18.1980   61.8700 C.3   500  CIT500      0.2402
      6  O7       -11.4120   18.5960   61.5850 O.3   500  CIT500     -0.2129
      7  C4        -9.7310   18.9380   63.1580 C.3   500  CIT500      0.1560
      8  C5        -9.9980   20.4270   63.2710 C.2   500  CIT500      0.3680
      9  O3        -9.4920   21.2540   62.4850 O.co2 500  CIT500     -0.2455
     10  O4       -10.7080   20.8770   64.1970 O.co2 500  CIT500     -0.2455
     11  C6       -10.1100   16.6860   62.0940 C.2   500  CIT500      0.3927
     12  O5       -11.0520   16.2380   62.7730 O.co2 500  CIT500     -0.2429
     13  O6        -9.2630   15.8590   61.6280 O.co2 500  CIT500     -0.2429
@<TRIPOS>BOND
     1     3     1   ar
     2     1     2   ar
     3     1     4    1
     4     4     5    1
     5     6     5    1
     6    13    11   ar
     7     5    11    1
     8     5     7    1
     9    11    12   ar
    10     9     8   ar
    11     7     8    1
    12     8    10   ar
