@<TRIPOS>MOLECULE
3cwq_ADP_A_1.pdb
 27 29 0 0 0
SMALL
GASTEIGER

@<TRIPOS>ATOM
      1  PB        62.6810   28.6490   74.2050 P.3   301  ADP301      0.5373
      2  O1B       64.0880   28.2900   73.8490 O.3   301  ADP301     -0.1143
      3  O2B       61.9170   28.8930   72.8500 O.2   301  ADP301     -0.2221
      4  O3B       62.8390   29.7800   75.1170 O.3   301  ADP301     -0.1143
      5  PA        62.9370   27.2810   76.7730 P.3   301  ADP301      0.2231
      6  O1A       63.8610   26.1010   76.5870 O.2   301  ADP301     -0.5169
      7  O2A       63.4970   28.4480   77.5500 O.3   301  ADP301     -0.4370
      8  O3A       62.1590   27.6970   75.3490 O.3   301  ADP301     -0.2261
      9  O5'       61.6560   26.5710   77.4580 O.3   301  ADP301     -0.3111
     10  C5'       61.2480   27.1410   78.6920 C.3   301  ADP301      0.1813
     11  C4'       60.8070   26.1220   79.7420 C.3   301  ADP301      0.1821
     12  O4'       60.2800   24.9250   79.1580 O.3   301  ADP301     -0.3135
     13  C3'       62.0420   25.7320   80.5360 C.3   301  ADP301      0.2184
     14  O3'       61.8350   26.0750   81.9190 O.3   301  ADP301     -0.2174
     15  C2'       62.1280   24.2390   80.5050 C.3   301  ADP301      0.2570
     16  O2'       61.8900   23.7620   81.8550 O.3   301  ADP301     -0.2130
     17  C1'       60.8830   23.7840   79.7840 C.3   301  ADP301      0.3186
     18  N9        61.2730   22.6960   78.8840 N.pl3 301  ADP301     -0.1439
     19  C8        61.9280   22.8000   77.7230 C.3   301  ADP301      0.3377
     20  N7        62.0270   21.5700   77.1910 N.2   301  ADP301     -0.2095
     21  C5        61.4520   20.6720   77.9860 C.2   301  ADP301      0.2526
     22  C6        61.2550   19.2400   78.0050 C.2   301  ADP301      0.4393
     23  N6        61.7280   18.4580   77.0220 N.pl3 301  ADP301      0.2180
     24  N1        60.6210   18.6870   79.0520 N.2   301  ADP301      0.0021
     25  C2        60.1880   19.4230   80.0530 C.3   301  ADP301      0.5254
     26  N3        60.3340   20.7420   80.0870 N.2   301  ADP301     -0.0055
     27  C4        60.9710   21.4120   79.1120 C.2   301  ADP301      0.3518
@<TRIPOS>BOND
     1     3     1    2
     2     2     1    1
     3     1     4    1
     4     1     8    1
     5     8     5    1
     6     6     5    2
     7     5     9    1
     8     5     7    1
     9    23    22    1
    10    20    19    1
    11    20    21    2
    12     9    10    1
    13    19    18    1
    14    21    22    1
    15    21    27    1
    16    22    24    2
    17    10    11    1
    18    18    27    1
    19    18    17    1
    20    24    25    1
    21    27    26    2
    22    12    11    1
    23    12    17    1
    24    11    13    1
    25    17    15    1
    26    25    26    1
    27    15    13    1
    28    15    16    1
    29    13    14    1
