@<TRIPOS>MOLECULE
3cww_III_D_1.pdb
 21 22 0 0 0
SMALL
GASTEIGER

@<TRIPOS>ATOM
      1  N        -60.9990   99.2600   31.4600 N.3     1  ALA1       -0.1231
      2  CA       -60.9900   97.8790   31.9650 C.3     1  ALA1        0.1679
      3  C        -62.1750   97.6290   32.9190 C.2     1  ALA1        0.2434
      4  O        -62.6590   98.5520   33.5550 O.2     1  ALA1       -0.2733
      5  CB       -59.6780   97.5950   32.6810 C.3     1  ALA1        0.0304
      6  N        -62.6570   96.3730   33.0110 N.am    2  PRO2       -0.2718
      7  CA       -63.6100   96.0150   34.0740 C.3     2  PRO2        0.1520
      8  C        -62.8480   95.7350   35.3540 C.2     2  PRO2        0.2440
      9  O        -61.6950   95.3120   35.2420 O.2     2  PRO2       -0.2731
     10  CB       -64.2340   94.7010   33.5690 C.3     2  PRO2        0.0310
     11  CG       -63.8440   94.5870   32.1520 C.3     2  PRO2        0.0237
     12  CD       -62.5060   95.2810   32.0420 C.3     2  PRO2        0.0939
     13  N        -63.4590   95.9440   36.5440 N.am    3  PRO3       -0.2716
     14  CA       -62.6620   95.7570   37.7620 C.3     3  PRO3        0.1535
     15  C        -62.4470   94.2720   37.9520 C.2     3  PRO3        0.2595
     16  O        -63.3430   93.5080   37.6050 O.2     3  PRO3       -0.2716
     17  CB       -63.5630   96.2990   38.8910 C.3     3  PRO3        0.0310
     18  CG       -64.8470   96.7020   38.2600 C.3     3  PRO3        0.0237
     19  CD       -64.8840   96.1130   36.8610 C.3     3  PRO3        0.0939
     20  N        -61.2870   93.8750   38.4670 N.am    4  ALA4       -0.2021
     21  CA       -60.9570   92.4630   38.6290 C.3     4  ALA4        0.1386
@<TRIPOS>BOND
     1     1     2    1
     2     2     5    1
     3     2     3    1
     4    12    11    1
     5    12     6    1
     6    11    10    1
     7     3     6   am
     8     3     4    2
     9     6     7    1
    10    10     7    1
    11     7     8    1
    12     9     8    2
    13     8    13   am
    14    13    19    1
    15    13    14    1
    16    19    18    1
    17    16    15    2
    18    14    15    1
    19    14    17    1
    20    15    20   am
    21    18    17    1
    22    20    21    1
