@<TRIPOS>MOLECULE
3cwz_GTP_A_1.pdb
 32 34 0 0 0
SMALL
GASTEIGER

@<TRIPOS>ATOM
      1  PG         9.7100   59.2660  140.5020 P.3   4200  GTP4200     0.5373
      2  O1G       10.1640   59.5620  141.8710 O.3   4200  GTP4200    -0.1143
      3  O2G        8.2290   59.0550  140.5740 O.3   4200  GTP4200    -0.1143
      4  O3G       10.3690   58.0320  139.9090 O.2   4200  GTP4200    -0.2221
      5  O3B       10.0940   60.5960  139.6580 O.3   4200  GTP4200    -0.2258
      6  PB        11.6060   60.9900  139.2600 P.3   4200  GTP4200     0.2277
      7  O1B       11.9490   62.3260  139.8090 O.3   4200  GTP4200    -0.4368
      8  O2B       12.5680   59.9200  139.7450 O.2   4200  GTP4200    -0.5168
      9  O3A       11.4960   61.0030  137.6980 O.3   4200  GTP4200    -0.2700
     10  PA        12.5750   60.3750  136.6890 P.3   4200  GTP4200     0.2189
     11  O1A       13.8390   61.1440  136.7550 O.2   4200  GTP4200    -0.5170
     12  O2A       12.8070   58.8720  136.9120 O.3   4200  GTP4200    -0.4371
     13  O5'       11.8530   60.7290  135.3660 O.3   4200  GTP4200    -0.3112
     14  C5'       11.9820   59.8510  134.2850 C.3   4200  GTP4200     0.1813
     15  C4'       11.4390   60.5080  133.0490 C.3   4200  GTP4200     0.1799
     16  O4'       11.6080   61.9320  133.1300 O.3   4200  GTP4200    -0.3326
     17  C3'       12.1230   60.0180  131.7960 C.3   4200  GTP4200     0.2158
     18  O3'       11.1760   59.7480  130.7730 O.3   4200  GTP4200    -0.2175
     19  C2'       13.0820   61.1460  131.4480 C.3   4200  GTP4200     0.2310
     20  O2'       13.3870   61.2140  130.0800 O.3   4200  GTP4200    -0.2158
     21  C1'       12.3630   62.3710  131.9950 C.3   4200  GTP4200     0.2293
     22  N9        13.3920   63.3970  132.3440 N.pl3 4200  GTP4200    -0.2354
     23  C8        14.0920   63.5730  133.5500 C.3   4200  GTP4200     0.2246
     24  N7        14.9370   64.6420  133.4290 N.2   4200  GTP4200    -0.2322
     25  C5        14.8020   65.1620  132.1730 C.2   4200  GTP4200     0.2182
     26  C6        15.4030   66.2620  131.4690 C.1   4200  GTP4200     0.2372
     27  O6        16.2650   66.9990  132.0010 O.2   4200  GTP4200    -0.2069
     28  N1        15.0040   66.5140  130.1390 N.2   4200  GTP4200    -0.2485
     29  C2        14.0500   65.7410  129.4780 C.1   4200  GTP4200     0.2531
     30  N2        13.6810   65.9950  128.2130 N.pl3 4200  GTP4200    -0.0226
     31  N3        13.4620   64.6650  130.1660 N.2   4200  GTP4200    -0.3074
     32  C4        13.8260   64.3800  131.4800 C.2   4200  GTP4200     0.2300
@<TRIPOS>BOND
     1    30    29    1
     2    29    28    2
     3    29    31    2
     4    20    19    1
     5    28    26    2
     6    31    32    2
     7    18    17    1
     8    19    17    1
     9    19    21    1
    10    26    27    2
    11    26    25    1
    12    32    25    1
    13    32    22    1
    14    17    15    1
    15    21    22    1
    16    21    16    1
    17    25    24    2
    18    22    23    1
    19    15    16    1
    20    15    14    1
    21    24    23    1
    22    14    13    1
    23    13    10    1
    24    10    11    2
    25    10    12    1
    26    10     9    1
    27     9     6    1
    28     6     5    1
    29     6     8    2
    30     6     7    1
    31     5     1    1
    32     4     1    2
    33     1     3    1
    34     1     2    1
