@<TRIPOS>MOLECULE
3cx4_ADP_A_1.pdb
 27 29 0 0 0
SMALL
GASTEIGER

@<TRIPOS>ATOM
      1  PB         5.9520  -41.4120  -37.1300 P.3   500  ADP500      0.5373
      2  O1B        5.3500  -42.4950  -37.9810 O.2   500  ADP500     -0.2221
      3  O2B        5.2830  -40.0430  -37.0470 O.3   500  ADP500     -0.1143
      4  O3B        7.4810  -41.2540  -37.5600 O.3   500  ADP500     -0.1143
      5  PA         7.0040  -41.9770  -34.4560 P.3   500  ADP500      0.2231
      6  O1A        8.2740  -42.6620  -34.8570 O.2   500  ADP500     -0.5169
      7  O2A        6.2940  -42.4810  -33.2240 O.3   500  ADP500     -0.4370
      8  O3A        5.9100  -42.0410  -35.6270 O.3   500  ADP500     -0.2261
      9  O5'        7.3040  -40.4090  -34.2330 O.3   500  ADP500     -0.3111
     10  C5'        6.2700  -39.4330  -34.0900 C.3   500  ADP500      0.1813
     11  C4'        6.8960  -38.1830  -33.4700 C.3   500  ADP500      0.1821
     12  O4'        6.0480  -37.0750  -33.7330 O.3   500  ADP500     -0.3135
     13  C3'        6.9870  -38.2490  -31.9540 C.3   500  ADP500      0.2184
     14  O3'        8.0260  -37.3720  -31.4960 O.3   500  ADP500     -0.2174
     15  C2'        5.6470  -37.6900  -31.5160 C.3   500  ADP500      0.2570
     16  O2'        5.6510  -37.1940  -30.1700 O.3   500  ADP500     -0.2130
     17  C1'        5.4680  -36.5750  -32.5270 C.3   500  ADP500      0.3186
     18  N9         4.0520  -36.2230  -32.7620 N.pl3 500  ADP500     -0.1439
     19  C8         3.1740  -36.9170  -33.5080 C.3   500  ADP500      0.3377
     20  N7         1.9810  -36.2700  -33.5020 N.2   500  ADP500     -0.2095
     21  C5         2.1350  -35.1610  -32.7500 C.2   500  ADP500      0.2526
     22  C6         1.2750  -34.1250  -32.3780 C.2   500  ADP500      0.4393
     23  N6        -0.0040  -34.1430  -32.8240 N.pl3 500  ADP500      0.2180
     24  N1         1.7360  -33.1140  -31.5870 N.2   500  ADP500      0.0021
     25  C2         3.0120  -33.1160  -31.1590 C.3   500  ADP500      0.5254
     26  N3         3.8550  -34.1080  -31.4830 N.2   500  ADP500     -0.0055
     27  C4         3.4460  -35.1290  -32.2900 C.2   500  ADP500      0.3518
@<TRIPOS>BOND
     1     2     1    2
     2     4     1    1
     3     1     3    1
     4     1     8    1
     5     8     5    1
     6     6     5    2
     7     5     9    1
     8     5     7    1
     9     9    10    1
    10    10    11    1
    11    12    11    1
    12    12    17    1
    13    19    20    1
    14    19    18    1
    15    20    21    2
    16    11    13    1
    17    23    22    1
    18    18    17    1
    19    18    27    1
    20    21    22    1
    21    21    27    1
    22    17    15    1
    23    22    24    2
    24    27    26    2
    25    13    15    1
    26    13    14    1
    27    24    25    1
    28    15    16    1
    29    26    25    1
