@<TRIPOS>MOLECULE
3cx4_GLC_A_10.pdb
 11 11 0 0 0
SMALL
GASTEIGER

@<TRIPOS>ATOM
      1  C1         5.7040  -55.0940  -63.8780 C.3   513  GLC513      0.1777
      2  C2         5.9950  -53.6700  -63.4050 C.3   513  GLC513      0.2141
      3  C3         7.0060  -53.6640  -62.2370 C.3   513  GLC513      0.2173
      4  C4         6.6350  -54.6620  -61.1300 C.3   513  GLC513      0.2142
      5  C5         6.1680  -55.9930  -61.7700 C.3   513  GLC513      0.1810
      6  C6         5.7230  -57.0160  -60.7280 C.3   513  GLC513      0.2141
      7  O2         6.5470  -52.9370  -64.4700 O.3   513  GLC513     -0.2176
      8  O3         7.2080  -52.3580  -61.7190 O.3   513  GLC513     -0.2175
      9  O4         7.8070  -54.9170  -60.3680 O.3   513  GLC513     -0.2176
     10  O5         5.1600  -55.7860  -62.7710 O.3   513  GLC513     -0.3481
     11  O6         4.5550  -56.5300  -60.1060 O.3   513  GLC513     -0.2176
@<TRIPOS>BOND
     1     7     2    1
     2     1     2    1
     3     1    10    1
     4     2     3    1
     5    10     5    1
     6     3     8    1
     7     3     4    1
     8     5     4    1
     9     5     6    1
    10     4     9    1
    11     6    11    1
