@<TRIPOS>MOLECULE
3cx4_250_A_1.pdb
 17 17 0 0 0
SMALL
GASTEIGER

@<TRIPOS>ATOM
      1  O1        -1.5070  -49.9760  -43.6220 O.3   517  250517     -0.3074
      2  S1        -2.4220  -48.8780  -44.0110 S.3   517  250517     -0.1934
      3  O2        -3.6310  -48.9630  -43.1620 O.3   517  250517     -0.3074
      4  O3        -1.7700  -47.5700  -43.8000 O.3   517  250517     -0.3074
      5  C1        -2.8580  -49.0110  -45.6190 C.3   517  250517      0.1394
      6  C2        -1.6700  -49.1590  -46.5770 C.3   517  250517      0.1876
      7  O4        -0.4650  -48.6700  -45.9820 O.3   517  250517     -0.2199
      8  C3        -1.9630  -48.3930  -47.8700 C.3   517  250517      0.1071
      9  N1        -0.6980  -48.0930  -48.5490 N.3   517  250517     -0.2681
     10  C7         0.1270  -49.1380  -49.1260 C.3   517  250517      0.0897
     11  C6         0.9720  -48.4490  -50.2000 C.3   517  250517      0.0897
     12  N2         0.1310  -47.4760  -50.8970 N.3   517  250517     -0.2681
     13  C5        -0.4490  -46.3590  -50.1640 C.3   517  250517      0.0897
     14  C4        -0.2550  -46.7130  -48.6890 C.3   517  250517      0.0897
     15  C8        -0.1210  -47.5940  -52.3300 C.3   517  250517      0.1081
     16  C9        -1.3520  -48.4850  -52.4910 C.3   517  250517      0.1993
     17  O5        -0.9350  -49.8530  -52.6020 O.3   517  250517     -0.2189
@<TRIPOS>BOND
     1    17    16    1
     2    16    15    1
     3    15    12    1
     4    12    11    1
     5    12    13    1
     6    11    10    1
     7    13    14    1
     8    10     9    1
     9    14     9    1
    10     9     8    1
    11     8     6    1
    12     6     7    1
    13     6     5    1
    14     5     2    1
    15     2     4    1
    16     2     1    1
    17     2     3    1
