@<TRIPOS>MOLECULE
3cx5_HEM_C_1.pdb
 43 50 0 0 0
SMALL
GASTEIGER

@<TRIPOS>ATOM
      1 FE         28.3030  -21.1660   57.7950 Fe    4001  HEM4001     0.0000
      2  CHA       28.5630  -24.2390   59.2530 C.2   4001  HEM4001     0.0000
      3  CHB       27.5970  -19.7590   60.8640 C.2   4001  HEM4001     0.0000
      4  CHC       28.0040  -18.0780   56.3430 C.2   4001  HEM4001     0.0000
      5  CHD       28.7680  -22.5670   54.6990 C.2   4001  HEM4001     0.0000
      6  NA        28.1050  -21.8560   59.6870 N.2   4001  HEM4001     0.0000
      7  C1A       28.2570  -23.1630   60.0910 C.2   4001  HEM4001     0.0000
      8  C2A       28.1450  -23.2400   61.5220 C.2   4001  HEM4001     0.0000
      9  C3A       27.8510  -22.0020   61.9690 C.2   4001  HEM4001     0.0000
     10  C4A       27.8080  -21.1350   60.8220 C.2   4001  HEM4001     0.0000
     11  CMA       27.6770  -21.5670   63.4230 C.3   4001  HEM4001     0.0000
     12  CAA       28.4370  -24.4860   62.3250 C.3   4001  HEM4001     0.0000
     13  CBA       29.9250  -24.5800   62.6230 C.3   4001  HEM4001     0.0000
     14  CGA       30.2850  -25.8130   63.4400 C.2   4001  HEM4001     0.0000
     15  O1A       30.9290  -26.7260   62.8930 O.co2 4001  HEM4001     0.0000
     16  O2A       29.9270  -25.8720   64.6280 O.co2 4001  HEM4001     0.0000
     17  NB        27.9750  -19.2800   58.4840 N.ar  4001  HEM4001     0.0000
     18  C1B       27.6810  -18.8930   59.7750 C.ar  4001  HEM4001     0.0000
     19  C2B       27.4460  -17.4710   59.8230 C.ar  4001  HEM4001     0.0000
     20  C3B       27.6380  -16.9970   58.5670 C.ar  4001  HEM4001     0.0000
     21  C4B       27.9000  -18.1300   57.7270 C.ar  4001  HEM4001     0.0000
     22  CMB       27.0710  -16.6800   61.1070 C.3   4001  HEM4001     0.0000
     23  CAB       27.6050  -15.7150   58.0120 C.3   4001  HEM4001     0.0000
     24  CBB       27.0300  -14.5310   58.5390 C.3   4001  HEM4001     0.0000
     25  NC        28.4040  -20.4550   55.8860 N.2   4001  HEM4001     0.0000
     26  C1C       28.2150  -19.1510   55.4860 C.2   4001  HEM4001     0.0000
     27  C2C       28.2020  -19.0710   54.0480 C.2   4001  HEM4001     0.0000
     28  C3C       28.4080  -20.3210   53.5810 C.2   4001  HEM4001     0.0000
     29  C4C       28.5440  -21.1880   54.7310 C.2   4001  HEM4001     0.0000
     30  CMC       28.0010  -17.8230   53.1810 C.3   4001  HEM4001     0.0000
     31  CAC       28.4780  -20.6020   52.2220 C.3   4001  HEM4001     0.0000
     32  CBC       27.8380  -21.8050   51.7830 C.3   4001  HEM4001     0.0000
     33  ND        28.6610  -23.0140   57.1180 N.ar  4001  HEM4001     0.0000
     34  C1D       28.8400  -23.4100   55.8030 C.ar  4001  HEM4001     0.0000
     35  C2D       29.1830  -24.8090   55.7590 C.ar  4001  HEM4001     0.0000
     36  C3D       29.1140  -25.2790   57.0280 C.ar  4001  HEM4001     0.0000
     37  C4D       28.7570  -24.1680   57.8740 C.ar  4001  HEM4001     0.0000
     38  CMD       29.5790  -25.6430   54.5100 C.3   4001  HEM4001     0.0000
     39  CAD       29.3840  -26.7350   57.4160 C.3   4001  HEM4001     0.0000
     40  CBD       30.8180  -27.0290   57.9230 C.3   4001  HEM4001     0.0000
     41  CGD       31.0370  -26.5830   59.3600 C.2   4001  HEM4001     0.0000
     42  O1D       30.3620  -27.1310   60.2530 O.co2 4001  HEM4001     0.0000
     43  O2D       31.8680  -25.6810   59.6080 O.co2 4001  HEM4001     0.0000
@<TRIPOS>BOND
     1    32    31    1
     2    31    28    1
     3    30    27    1
     4    28    27    2
     5    28    29    1
     6    27    26    1
     7    38    35    1
     8     5    29    1
     9     5    34    2
    10    29    25    2
    11    26    25    1
    12    26     4    2
    13    35    34   ar
    14    35    36   ar
    15    34    33   ar
    16    25     1    1
    17     4    21    1
    18    36    39    1
    19    36    37   ar
    20    33     1    1
    21    33    37   ar
    22    39    40    1
    23    21    17   ar
    24    21    20   ar
    25     1    17    1
    26     1     6    1
    27    37     2    2
    28    40    41    1
    29    23    24    1
    30    23    20    1
    31    17    18   ar
    32    20    19   ar
    33     2     7    1
    34    41    43   ar
    35    41    42   ar
    36     6     7    2
    37     6    10    1
    38    18    19   ar
    39    18     3    1
    40    19    22    1
    41     7     8    1
    42    10     3    2
    43    10     9    1
    44     8     9    2
    45     8    12    1
    46     9    11    1
    47    12    13    1
    48    13    14    1
    49    15    14   ar
    50    14    16   ar
