@<TRIPOS>MOLECULE
3cx5_CN5_C_1.pdb
 41 40 0 0 0
SMALL
GASTEIGER

@<TRIPOS>ATOM
      1  P         23.8770    7.7670   43.3240 P.3   4033  CN54033     0.2141
      2  O11       24.7830    6.4600   43.9320 O.3   4033  CN54033    -0.3140
      3  O12       24.9460    8.7320   42.6240 O.3   4033  CN54033    -0.4373
      4  O13       23.1410    8.4220   44.6650 O.3   4033  CN54033    -0.3113
      5  O14       22.6720    7.2700   42.3360 O.2   4033  CN54033    -0.5172
      6  C1        24.0270    5.7000   44.9420 C.3   4033  CN54033     0.1530
      7  C2        24.1870    4.3900   44.2830 C.3   4033  CN54033     0.0799
      8  C3        22.8650    3.6820   44.4520 C.3   4033  CN54033     0.2110
      9  O31       23.0010    2.4430   43.8340 O.3   4033  CN54033    -0.4484
     10  O32       21.4290    1.1350   44.9360 O.2   4033  CN54033    -0.2501
     11  C31       21.8430    1.7100   43.9340 C.2   4033  CN54033     0.3170
     12  C32       21.0460    1.6560   42.5940 C.3   4033  CN54033     0.1096
     13  C33       19.9540    0.5800   42.3090 C.3   4033  CN54033     0.0116
     14  C34       18.6510    1.0630   42.8310 C.3   4033  CN54033     0.0006
     15  C35       17.4010    0.3870   42.2190 C.3   4033  CN54033     0.0000
     16  C36       16.0060    0.3330   42.8900 C.3   4033  CN54033     0.0000
     17  C37       14.9790   -0.2780   41.8720 C.3   4033  CN54033     0.0000
     18  C38       14.9540   -1.8340   42.0410 C.3   4033  CN54033     0.0000
     19  C39       14.3840   -2.6420   40.8290 C.3   4033  CN54033     0.0000
     20  C3A       13.1090   -3.4780   41.1120 C.3   4033  CN54033     0.0000
     21  C3B       11.7870   -2.7030   40.8760 C.3   4033  CN54033     0.0000
     22  C3C       11.0810   -3.0000   39.6050 C.3   4033  CN54033     0.0000
     23  C3D       11.0080   -1.8340   38.5880 C.3   4033  CN54033     0.0000
     24  C3E       11.8990   -1.7080   37.3260 C.3   4033  CN54033     0.0000
     25  C3F       11.2750   -0.8170   36.2050 C.3   4033  CN54033     0.0000
     26  P'        24.7140    8.4000   50.2410 P.3   4033  CN54033     0.2141
     27  O1'       23.4980    7.3340   49.8060 O.3   4033  CN54033    -0.3140
     28  O2'       23.9180    9.6480   50.8780 O.2   4033  CN54033    -0.5172
     29  O3'       25.5240    8.7550   48.8800 O.3   4033  CN54033    -0.3113
     30  O4'       25.8280    7.7750   51.2750 O.3   4033  CN54033    -0.4373
     31  C1'       24.2730    6.2430   49.2510 C.3   4033  CN54033     0.1530
     32  C2'       23.8380    4.9660   48.6810 C.3   4033  CN54033     0.0799
     33  C3'       24.8220    4.1430   49.2870 C.3   4033  CN54033     0.2110
     34  O41       24.5670    2.8000   48.8660 O.3   4033  CN54033    -0.4484
     35  O42       25.6460    3.2520   46.7850 O.2   4033  CN54033    -0.2501
     36  C41       25.3220    2.4760   47.7290 C.2   4033  CN54033     0.3176
     37  C42       25.7590    0.9760   47.7100 C.3   4033  CN54033     0.1212
     38  CA        25.1310    9.4350   47.8300 C.3   4033  CN54033     0.1845
     39  CB        24.7720    8.5550   46.6020 C.3   4033  CN54033     0.2116
     40  OA        25.9330    8.3760   45.6480 O.3   4033  CN54033    -0.2177
     41  CC        23.5310    9.1950   45.8230 C.3   4033  CN54033     0.1845
@<TRIPOS>BOND
     1    25    24    1
     2    24    23    1
     3    23    22    1
     4    22    21    1
     5    19    20    1
     6    19    18    1
     7    21    20    1
     8    17    18    1
     9    17    16    1
    10    15    14    1
    11    15    16    1
    12    13    12    1
    13    13    14    1
    14     5     1    2
    15    12    11    1
    16     3     1    1
    17     1     2    1
    18     1     4    1
    19     9    11    1
    20     9     8    1
    21     2     6    1
    22    11    10    2
    23     7     8    1
    24     7     6    1
    25     4    41    1
    26    40    39    1
    27    41    39    1
    28    39    38    1
    29    35    36    2
    30    37    36    1
    31    36    34    1
    32    38    29    1
    33    32    31    1
    34    32    33    1
    35    34    33    1
    36    29    26    1
    37    31    27    1
    38    27    26    1
    39    26    28    2
    40    26    30    1
