@<TRIPOS>MOLECULE
3cx5_SMA_C_1.pdb
 37 38 0 0 0
SMALL
GASTEIGER

@<TRIPOS>ATOM
      1  C2        17.0310  -21.8170   71.3470 C.ar  4005  SMA4005     0.1220
      2  C3        16.0330  -22.3040   72.1430 C.ar  4005  SMA4005     0.0475
      3  C3M       14.9550  -21.4250   72.6640 C.3   4005  SMA4005     0.0373
      4  C4        15.9980  -23.7270   72.5240 C.ar  4005  SMA4005     0.2002
      5  C4A       17.1130  -24.5400   71.9790 C.ar  4005  SMA4005     0.1105
      6  C5        17.2610  -25.9250   72.2530 C.ar  4005  SMA4005     0.1479
      7  C5M       16.7430  -27.5260   73.9250 C.3   4005  SMA4005     0.2525
      8  C6        18.3250  -26.6710   71.7200 C.ar  4005  SMA4005     0.0774
      9  C7        19.2680  -26.0360   70.8950 C.ar  4005  SMA4005     0.1835
     10  C7M       20.6330  -28.0030   70.7420 C.3   4005  SMA4005     0.2526
     11  C8        19.1630  -24.6610   70.5970 C.ar  4005  SMA4005     0.2636
     12  C8A       18.0800  -23.9290   71.1530 C.ar  4005  SMA4005     0.1925
     13  C9        17.2160  -20.3970   70.9060 C.3   4005  SMA4005     0.0644
     14  C10       16.5680  -20.0190   69.5960 C.3   4005  SMA4005     0.0104
     15  C11       17.1150  -18.6810   69.0970 C.3   4005  SMA4005     0.0278
     16  C12       16.1830  -18.0310   68.0410 C.3   4005  SMA4005     0.1179
     17  C13       15.8620  -18.9450   66.8520 C.3   4005  SMA4005     0.0586
     18  C14       15.1530  -18.1020   65.7630 C.3   4005  SMA4005     0.1395
     19  C15       14.5770  -19.0180   64.7310 C.2   4005  SMA4005     0.0029
     20  C16       14.9470  -19.0760   63.4440 C.2   4005  SMA4005    -0.0022
     21  C17       14.3630  -19.9970   62.4970 C.2   4005  SMA4005    -0.0006
     22  C18       14.7630  -20.0640   61.2140 C.2   4005  SMA4005    -0.0046
     23  C19       14.2230  -20.9830   60.2170 C.2   4005  SMA4005    -0.0261
     24  C20       14.7250  -20.9740   58.9700 C.2   4005  SMA4005    -0.0300
     25  C21       14.2770  -21.8490   57.8720 C.3   4005  SMA4005     0.0304
     26  C22       17.3280  -17.6980   70.2370 C.3   4005  SMA4005     0.0025
     27  C23       14.7390  -16.2720   68.8110 C.3   4005  SMA4005     0.1740
     28  C24       17.1160  -19.6030   66.3050 C.3   4005  SMA4005     0.0054
     29  C25       15.6160  -16.0050   64.6960 C.3   4005  SMA4005     0.1745
     30  C26       13.1310  -21.9030   60.6380 C.3   4005  SMA4005     0.0307
     31  O1        18.0530  -22.5910   70.8340 O.2   4005  SMA4005    -0.4544
     32  O4        15.1090  -24.1960   73.2490 O.2   4005  SMA4005    -0.2866
     33  O5        16.3050  -26.4700   73.0770 O.3   4005  SMA4005    -0.4711
     34  O7        20.3580  -26.6690   70.3170 O.3   4005  SMA4005    -0.4680
     35  O8        20.0590  -23.9810   69.7970 O.3   4005  SMA4005    -0.2800
     36  O12       14.9160  -17.6710   68.6440 O.3   4005  SMA4005    -0.3535
     37  O14       16.1470  -17.2080   65.2300 O.3   4005  SMA4005    -0.3491
@<TRIPOS>BOND
     1    25    24    1
     2    24    23    2
     3    23    30    1
     4    23    22    1
     5    22    21    2
     6    21    20    1
     7    20    19    2
     8    29    37    1
     9    19    18    1
    10    37    18    1
    11    18    17    1
    12    28    17    1
    13    17    16    1
    14    16    36    1
    15    16    15    1
    16    36    27    1
    17    15    14    1
    18    15    26    1
    19    14    13    1
    20    35    11    1
    21    34    10    1
    22    34     9    1
    23    11     9   ar
    24    11    12   ar
    25    31    12   ar
    26    31     1   ar
    27     9     8   ar
    28    13     1    1
    29    12     5   ar
    30     1     2   ar
    31     8     6   ar
    32     5     6   ar
    33     5     4   ar
    34     2     4   ar
    35     2     3    1
    36     6    33    1
    37     4    32    2
    38    33     7    1
