@<TRIPOS>MOLECULE
3cx6_GDP_A_1.pdb
 28 30 0 0 0
SMALL
GASTEIGER

@<TRIPOS>ATOM
      1  PB       -11.5920   -8.7600   15.9260 P.3   775  GDP775      0.5373
      2  O1B      -13.0050   -8.7030   15.4340 O.3   775  GDP775     -0.1143
      3  O2B      -10.6860   -7.9640   15.0250 O.2   775  GDP775     -0.2221
      4  O3B      -11.5020   -8.3150   17.3710 O.3   775  GDP775     -0.1143
      5  O3A      -11.2100  -10.3060   15.9000 O.3   775  GDP775     -0.2261
      6  PA        -9.7430  -10.7370   15.4680 P.3   775  GDP775      0.2231
      7  O1A       -9.5480  -10.6340   13.9770 O.2   775  GDP775     -0.5169
      8  O2A       -8.6940  -10.0300   16.2270 O.3   775  GDP775     -0.4370
      9  O5'       -9.7350  -12.2810   15.9210 O.3   775  GDP775     -0.3111
     10  C5'       -9.8250  -12.7370   17.2770 C.3   775  GDP775      0.1813
     11  C4'       -9.0230  -14.0400   17.3040 C.3   775  GDP775      0.1799
     12  O4'       -9.6700  -15.0670   16.5410 O.3   775  GDP775     -0.3326
     13  C3'       -7.6560  -13.8940   16.6180 C.3   775  GDP775      0.2158
     14  O3'       -6.7290  -14.7160   17.2970 O.3   775  GDP775     -0.2175
     15  C2'       -7.8490  -14.4620   15.2210 C.3   775  GDP775      0.2310
     16  O2'       -6.6580  -14.9670   14.6280 O.3   775  GDP775     -0.2158
     17  C1'       -8.8070  -15.5810   15.5050 C.3   775  GDP775      0.2293
     18  N9        -9.7330  -15.9160   14.3990 N.pl3 775  GDP775     -0.2354
     19  C8       -10.4350  -15.0830   13.5890 C.3   775  GDP775      0.2246
     20  N7       -11.2180  -15.7660   12.7160 N.2   775  GDP775     -0.2322
     21  C5       -11.0300  -17.0810   12.9830 C.2   775  GDP775      0.2182
     22  C6       -11.5250  -18.3940   12.4670 C.1   775  GDP775      0.2372
     23  O6       -12.3630  -18.5240   11.5490 O.2   775  GDP775     -0.2069
     24  N1       -11.0590  -19.4850   13.0380 N.2   775  GDP775     -0.2485
     25  C2       -10.1580  -19.5200   14.0250 C.1   775  GDP775      0.2531
     26  N2        -9.7740  -20.7400   14.4790 N.pl3 775  GDP775     -0.0226
     27  N3        -9.6460  -18.3880   14.5640 N.2   775  GDP775     -0.3074
     28  C4       -10.0580  -17.1690   14.0960 C.2   775  GDP775      0.2300
@<TRIPOS>BOND
     1    23    22    2
     2    22    21    1
     3    22    24    2
     4    20    21    2
     5    20    19    1
     6    21    28    1
     7    24    25    2
     8    19    18    1
     9     7     6    2
    10    25    26    1
    11    25    27    2
    12    28    18    1
    13    28    27    2
    14    18    17    1
    15    16    15    1
    16     3     1    2
    17    15    17    1
    18    15    13    1
    19     2     1    1
    20     6     5    1
    21     6     9    1
    22     6     8    1
    23    17    12    1
    24     5     1    1
    25     9    10    1
    26     1     4    1
    27    12    11    1
    28    13    14    1
    29    13    11    1
    30    10    11    1
