@<TRIPOS>MOLECULE
3cx7_GDP_A_1.pdb
 28 30 0 0 0
SMALL
GASTEIGER

@<TRIPOS>ATOM
      1  PB        11.2180    8.3950   15.8180 P.3   875  GDP875      0.5373
      2  O1B       12.5660    8.5110   15.2890 O.3   875  GDP875     -0.1143
      3  O2B       10.3440    7.5520   15.0070 O.2   875  GDP875     -0.2221
      4  O3B       11.1610    7.9020   17.3160 O.3   875  GDP875     -0.1143
      5  O3A       10.5010    9.7780   15.9530 O.3   875  GDP875     -0.2261
      6  PA         9.1770   10.4190   15.4100 P.3   875  GDP875      0.2231
      7  O1A        9.1420   10.5650   13.9410 O.2   875  GDP875     -0.5169
      8  O2A        8.0090    9.7610   16.1980 O.3   875  GDP875     -0.4370
      9  O5'        9.4140   11.8860   15.9130 O.3   875  GDP875     -0.3111
     10  C5'        9.3410   12.3650   17.2730 C.3   875  GDP875      0.1813
     11  C4'        8.6340   13.6980   17.3740 C.3   875  GDP875      0.1799
     12  O4'        9.4130   14.6820   16.5800 O.3   875  GDP875     -0.3326
     13  C3'        7.2890   13.7250   16.7350 C.3   875  GDP875      0.2158
     14  O3'        6.2730   14.4360   17.4770 O.3   875  GDP875     -0.2175
     15  C2'        7.5500   14.3710   15.3550 C.3   875  GDP875      0.2310
     16  O2'        6.4960   15.1180   14.8630 O.3   875  GDP875     -0.2158
     17  C1'        8.5400   15.4140   15.6850 C.3   875  GDP875      0.2293
     18  N9         9.4010   15.6600   14.5350 N.pl3 875  GDP875     -0.2354
     19  C8        10.0350   14.7370   13.7380 C.3   875  GDP875      0.2246
     20  N7        10.8550   15.3410   12.8110 N.2   875  GDP875     -0.2322
     21  C5        10.7120   16.6970   13.0330 C.2   875  GDP875      0.2182
     22  C6        11.2370   17.9580   12.4220 C.1   875  GDP875      0.2372
     23  O6        12.0950   17.9150   11.5030 O.2   875  GDP875     -0.2069
     24  N1        10.8470   19.1340   12.9850 N.2   875  GDP875     -0.2485
     25  C2         9.9860   19.2370   14.0360 C.1   875  GDP875      0.2531
     26  N2         9.5990   20.4580   14.4370 N.pl3 875  GDP875     -0.0226
     27  N3         9.4160   18.1740   14.6260 N.2   875  GDP875     -0.3074
     28  C4         9.7530   16.9000   14.1670 C.2   875  GDP875      0.2300
@<TRIPOS>BOND
     1    23    22    2
     2    22    24    2
     3    22    21    1
     4    20    21    2
     5    20    19    1
     6    24    25    2
     7    21    28    1
     8    19    18    1
     9     7     6    2
    10    25    26    1
    11    25    27    2
    12    28    18    1
    13    28    27    2
    14    18    17    1
    15    16    15    1
    16     3     1    2
    17     2     1    1
    18    15    17    1
    19    15    13    1
    20     6     9    1
    21     6     5    1
    22     6     8    1
    23    17    12    1
    24     1     5    1
    25     1     4    1
    26     9    10    1
    27    12    11    1
    28    13    11    1
    29    13    14    1
    30    10    11    1
