@<TRIPOS>MOLECULE
3cx8_GSP_A_1.pdb
 32 34 0 0 0
SMALL
GASTEIGER

@<TRIPOS>ATOM
      1  PG        11.6150    6.0280   17.9300 P.3   755  GSP755      0.4340
      2  O3B       11.5760    7.5630   17.4380 O.3   755  GSP755     -0.2405
      3  S1G       11.5040    6.1310   19.7620 S.3   755  GSP755      0.0416
      4  O2G       10.5890    5.2910   17.1900 O.2   755  GSP755     -0.2423
      5  O3G       12.9050    5.3560   17.5570 O.3   755  GSP755     -0.1305
      6  PB        11.5930    8.0890   15.9060 P.3   755  GSP755      0.2262
      7  O1B       12.9400    8.0850   15.3400 O.3   755  GSP755     -0.4369
      8  O2B       10.7330    7.2850   15.0610 O.2   755  GSP755     -0.5168
      9  PA         9.6100   10.2230   15.6530 P.3   755  GSP755      0.2189
     10  O1A        9.3970   10.2170   14.2210 O.2   755  GSP755     -0.5170
     11  O2A        8.6270    9.5230   16.5120 O.3   755  GSP755     -0.4371
     12  O3A       11.0700    9.5930   15.9820 O.3   755  GSP755     -0.2701
     13  O5'        9.8520   11.6960   16.0870 O.3   755  GSP755     -0.3112
     14  C5'        9.7070   12.1620   17.4290 C.3   755  GSP755      0.1813
     15  C4'        9.0620   13.5380   17.4870 C.3   755  GSP755      0.1799
     16  O4'        9.8170   14.4760   16.7080 O.3   755  GSP755     -0.3326
     17  C3'        7.6550   13.4990   16.8500 C.3   755  GSP755      0.2158
     18  O3'        6.8040   14.3610   17.5570 O.3   755  GSP755     -0.2175
     19  C2'        7.8350   14.0910   15.4590 C.3   755  GSP755      0.2310
     20  O2'        6.7290   14.6950   14.8630 O.3   755  GSP755     -0.2158
     21  C1'        8.9140   15.1260   15.7570 C.3   755  GSP755      0.2293
     22  N9         9.7900   15.3880   14.6270 N.pl3 755  GSP755     -0.2354
     23  C8        10.3840   14.4620   13.8000 C.3   755  GSP755      0.2246
     24  N7        11.1580   15.1120   12.9470 N.2   755  GSP755     -0.2322
     25  C5        11.0470   16.4590   13.1570 C.2   755  GSP755      0.2182
     26  C6        11.6150   17.6430   12.6050 C.1   755  GSP755      0.2372
     27  O6        12.4080   17.6560   11.6850 O.2   755  GSP755     -0.2069
     28  N1        11.2880   18.8850   13.1450 N.2   755  GSP755     -0.2485
     29  C2        10.4050   19.0030   14.1900 C.1   755  GSP755      0.2531
     30  N2        10.0360   20.2120   14.6480 N.pl3 755  GSP755     -0.0226
     31  N3         9.8390   17.8630   14.7330 N.2   755  GSP755     -0.3074
     32  C4        10.2050   16.6270   14.2600 C.2   755  GSP755      0.2300
@<TRIPOS>BOND
     1    27    26    2
     2    26    28    2
     3    26    25    1
     4    24    25    2
     5    24    23    1
     6    28    29    2
     7    25    32    1
     8    23    22    1
     9    29    30    1
    10    29    31    2
    11    10     9    2
    12    32    22    1
    13    32    31    2
    14    22    21    1
    15    20    19    1
    16     8     6    2
    17     7     6    1
    18    19    21    1
    19    19    17    1
    20     9    12    1
    21     9    13    1
    22     9    11    1
    23    21    16    1
    24     6    12    1
    25     6     2    1
    26    13    14    1
    27    16    15    1
    28    17    15    1
    29    17    18    1
    30     4     1    2
    31    14    15    1
    32     2     1    1
    33     5     1    1
    34     1     3    1
