@<TRIPOS>MOLECULE
3cx9_LPX_A_1.pdb
 30 29 0 0 0
SMALL
GASTEIGER

@<TRIPOS>ATOM
      1  O7       -35.4210    4.8070  -11.6010 O.2   2001  LPX2001    -0.2501
      2  C6       -35.6910    3.9310  -10.8000 C.2   2001  LPX2001     0.3171
      3  O6       -35.2770    2.5850  -11.1260 O.3   2001  LPX2001    -0.4456
      4  C5       -36.1400    1.5170  -10.7890 C.3   2001  LPX2001     0.2437
      5  C4       -35.5930    0.2200  -11.3620 C.3   2001  LPX2001     0.2252
      6  O5       -34.2390    0.4190  -11.7650 O.3   2001  LPX2001    -0.2164
      7  C3       -36.3600   -0.2430  -12.5770 C.3   2001  LPX2001     0.1857
      8  O1       -35.4600   -0.3420  -13.6600 O.3   2001  LPX2001    -0.3112
      9  P1       -35.8160    0.1040  -15.1680 P.3   2001  LPX2001     0.2141
     10  O3       -35.6090   -1.0510  -16.1590 O.2   2001  LPX2001    -0.5172
     11  O2       -34.6810    1.2140  -15.4690 O.3   2001  LPX2001    -0.3125
     12  C1       -34.9800    2.3030  -16.3390 C.3   2001  LPX2001     0.1696
     13  C2       -33.6880    2.8050  -16.9570 C.3   2001  LPX2001     0.1417
     14  N1       -33.1750    1.7950  -17.8640 N.3   2001  LPX2001    -0.1286
     15  O4       -37.1620    0.8070  -15.1290 O.3   2001  LPX2001    -0.4373
     16  C7       -36.4440    4.2630   -9.5260 C.3   2001  LPX2001     0.1096
     17  C8       -36.9570    5.7100   -9.5640 C.3   2001  LPX2001     0.0116
     18  C9       -36.0250    6.7690   -8.9820 C.3   2001  LPX2001     0.0006
     19  C10      -34.5840    6.3180   -8.8040 C.3   2001  LPX2001     0.0000
     20  C11      -34.1040    6.6610   -7.4240 C.3   2001  LPX2001     0.0000
     21  C12      -33.1630    7.8380   -7.4880 C.3   2001  LPX2001     0.0000
     22  C13      -31.8530    7.4570   -6.8370 C.3   2001  LPX2001     0.0000
     23  C14      -30.6410    7.5710   -7.7410 C.3   2001  LPX2001     0.0000
     24  C15      -30.1820    6.1720   -8.1550 C.3   2001  LPX2001     0.0000
     25  C16      -28.8070    6.1590   -8.8370 C.3   2001  LPX2001     0.0000
     26  C17      -28.5010    5.1270   -9.8960 C.3   2001  LPX2001     0.0000
     27  C18      -29.7530    4.3900  -10.3530 C.3   2001  LPX2001     0.0000
     28  C19      -29.5220    2.8810  -10.3110 C.3   2001  LPX2001     0.0000
     29  C20      -30.7760    2.1280   -9.9010 C.3   2001  LPX2001     0.0000
     30  C21      -31.8390    2.9860   -9.2150 C.3   2001  LPX2001     0.0000
@<TRIPOS>BOND
     1    14    13    1
     2    13    12    1
     3    12    11    1
     4    10     9    2
     5    11     9    1
     6     9    15    1
     7     9     8    1
     8     8     7    1
     9     7     5    1
    10     6     5    1
    11     1     2    2
    12     5     4    1
    13     3     2    1
    14     3     4    1
    15     2    16    1
    16    27    28    1
    17    27    26    1
    18    28    29    1
    19    29    30    1
    20    26    25    1
    21    17    16    1
    22    17    18    1
    23    18    19    1
    24    25    24    1
    25    19    20    1
    26    24    23    1
    27    23    22    1
    28    21    20    1
    29    21    22    1
