@<TRIPOS>MOLECULE
3cx9_MYR_A_2.pdb
 16 15 0 0 0
SMALL
GASTEIGER

@<TRIPOS>ATOM
      1  C1       -12.7330    0.1700   -9.6760 C.2   1003  MYR1003     0.3649
      2  O1       -12.4560    0.1220   -8.4920 O.co2 1003  MYR1003    -0.2457
      3  O2       -12.6250   -0.8190  -10.4280 O.co2 1003  MYR1003    -0.2457
      4  C2       -13.1930    1.5210  -10.1090 C.3   1003  MYR1003     0.1141
      5  C3       -13.5130    1.5340  -11.5900 C.3   1003  MYR1003     0.0118
      6  C4       -12.5390    2.4050  -12.3760 C.3   1003  MYR1003     0.0006
      7  C5       -11.3970    1.5650  -12.9300 C.3   1003  MYR1003     0.0000
      8  C6       -10.1100    2.3790  -12.8610 C.3   1003  MYR1003     0.0000
      9  C7        -9.1460    2.1510  -14.0110 C.3   1003  MYR1003     0.0000
     10  C8        -9.8750    2.2550  -15.3360 C.3   1003  MYR1003     0.0003
     11  C9        -8.9920    2.8670  -16.4190 C.3   1003  MYR1003     0.0047
     12  C10       -9.6790    4.1020  -16.9960 C.3   1003  MYR1003     0.0257
     13  C11       -8.7450    4.8710  -17.8950 C.2   1003  MYR1003    -0.0307
     14  C12       -8.8320    4.5510  -19.3670 C.2   1003  MYR1003    -0.0307
     15  C13       -9.8750    3.5310  -19.8190 C.3   1003  MYR1003     0.0257
     16  C14       -9.1900    2.2420  -20.2630 C.3   1003  MYR1003     0.0050
@<TRIPOS>BOND
     1    16    15    1
     2    15    14    1
     3    14    13    2
     4    13    12    1
     5    12    11    1
     6    11    10    1
     7    10     9    1
     8     9     8    1
     9     7     8    1
    10     7     6    1
    11     6     5    1
    12     5     4    1
    13     3     1   ar
    14     4     1    1
    15     1     2   ar
