@<TRIPOS>MOLECULE
3cxa_TRE_A_1.pdb
 23 24 0 0 0
SMALL
GASTEIGER

@<TRIPOS>ATOM
      1  C1        54.0580   41.2500   39.5310 C.3   172  TRE172      0.2713
      2  C2        55.5520   41.2430   39.2560 C.3   172  TRE172      0.2406
      3  C3        55.6850   40.8270   37.7610 C.3   172  TRE172      0.2198
      4  C4        55.0500   39.4570   37.5330 C.3   172  TRE172      0.2144
      5  C5        53.5310   39.5650   37.9250 C.3   172  TRE172      0.1835
      6  C6        52.8700   38.2410   37.7520 C.3   172  TRE172      0.2142
      7  O1        53.3550   42.1650   38.5860 O.3   172  TRE172     -0.3016
      8  O2        56.1010   42.5940   39.4320 O.3   172  TRE172     -0.2149
      9  O3        57.1410   40.7980   37.4180 O.3   172  TRE172     -0.2174
     10  O4        55.1900   39.1370   36.1410 O.3   172  TRE172     -0.2176
     11  O5        53.4320   39.9320   39.3640 O.3   172  TRE172     -0.3256
     12  O6        51.4750   38.3980   38.1120 O.3   172  TRE172     -0.2176
     13  C1P       51.9040   42.1000   38.9410 C.3   172  TRE172      0.2713
     14  C2P       51.0880   43.0070   38.0320 C.3   172  TRE172      0.2406
     15  C3P       51.7210   44.4190   38.2130 C.3   172  TRE172      0.2198
     16  C4P       51.6430   44.8610   39.7140 C.3   172  TRE172      0.2144
     17  C5P       52.4490   43.8250   40.5350 C.3   172  TRE172      0.1835
     18  C6P       52.3720   44.2020   41.9780 C.3   172  TRE172      0.2142
     19  O2P       51.2330   42.5820   36.6370 O.3   172  TRE172     -0.2149
     20  O3P       50.9790   45.3730   37.3500 O.3   172  TRE172     -0.2174
     21  O4P       52.2350   46.1470   39.8410 O.3   172  TRE172     -0.2176
     22  O5P       51.8170   42.4850   40.3550 O.3   172  TRE172     -0.3256
     23  O6P       53.1290   43.2150   42.7100 O.3   172  TRE172     -0.2176
@<TRIPOS>BOND
     1    10     4    1
     2    19    14    1
     3    20    15    1
     4     9     3    1
     5     4     3    1
     6     4     5    1
     7     6     5    1
     8     6    12    1
     9     3     2    1
    10     5    11    1
    11    14    15    1
    12    14    13    1
    13    15    16    1
    14     7    13    1
    15     7     1    1
    16    13    22    1
    17     2     8    1
    18     2     1    1
    19    11     1    1
    20    16    21    1
    21    16    17    1
    22    22    17    1
    23    17    18    1
    24    18    23    1
