@<TRIPOS>MOLECULE
3cxh_HEM_C_1.pdb
 43 50 0 0 0
SMALL
GASTEIGER

@<TRIPOS>ATOM
      1 FE         26.9650  -22.1890   56.6760 Fe    4001  HEM4001     0.0000
      2  CHA       26.9820  -25.3490   57.9360 C.2   4001  HEM4001     0.0000
      3  CHB       26.5010  -20.9470   59.8500 C.2   4001  HEM4001     0.0000
      4  CHC       27.0160  -18.9850   55.4440 C.2   4001  HEM4001     0.0000
      5  CHD       27.4200  -23.4210   53.5390 C.2   4001  HEM4001     0.0000
      6  NA        26.6980  -22.9920   58.5010 N.2   4001  HEM4001     0.0000
      7  C1A       26.7640  -24.3220   58.8340 C.2   4001  HEM4001     0.0000
      8  C2A       26.5790  -24.4940   60.2520 C.2   4001  HEM4001     0.0000
      9  C3A       26.3250  -23.2870   60.7670 C.2   4001  HEM4001     0.0000
     10  C4A       26.5110  -22.3300   59.6980 C.2   4001  HEM4001     0.0000
     11  CMA       25.9610  -23.0230   62.2040 C.3   4001  HEM4001     0.0000
     12  CAA       26.7530  -25.7560   61.0180 C.3   4001  HEM4001     0.0000
     13  CBA       28.2160  -25.9570   61.4190 C.3   4001  HEM4001     0.0000
     14  CGA       28.4440  -27.3260   62.0090 C.2   4001  HEM4001     0.0000
     15  O1A       28.8940  -28.2130   61.2670 O.co2 4001  HEM4001     0.0000
     16  O2A       28.1430  -27.5290   63.2030 O.co2 4001  HEM4001     0.0000
     17  NB        26.8500  -20.3440   57.4860 N.ar  4001  HEM4001     0.0000
     18  C1B       26.6640  -20.0330   58.8200 C.ar  4001  HEM4001     0.0000
     19  C2B       26.5650  -18.6140   58.9870 C.ar  4001  HEM4001     0.0000
     20  C3B       26.7150  -18.0560   57.7660 C.ar  4001  HEM4001     0.0000
     21  C4B       26.8740  -19.1360   56.8210 C.ar  4001  HEM4001     0.0000
     22  CMB       26.2460  -17.8840   60.2900 C.3   4001  HEM4001     0.0000
     23  CAB       26.5890  -16.6910   57.6340 C.3   4001  HEM4001     0.0000
     24  CBB       27.1910  -15.9160   56.6250 C.3   4001  HEM4001     0.0000
     25  NC        27.1960  -21.3790   54.8560 N.2   4001  HEM4001     0.0000
     26  C1C       27.1580  -20.0320   54.5290 C.2   4001  HEM4001     0.0000
     27  C2C       27.2290  -19.8750   53.0930 C.2   4001  HEM4001     0.0000
     28  C3C       27.2760  -21.1200   52.5640 C.2   4001  HEM4001     0.0000
     29  C4C       27.3100  -22.0490   53.6640 C.2   4001  HEM4001     0.0000
     30  CMC       27.1850  -18.5660   52.2330 C.3   4001  HEM4001     0.0000
     31  CAC       27.3040  -21.3940   51.2160 C.3   4001  HEM4001     0.0000
     32  CBC       26.5830  -22.4680   50.6130 C.3   4001  HEM4001     0.0000
     33  ND        27.1850  -24.0060   55.9040 N.ar  4001  HEM4001     0.0000
     34  C1D       27.3820  -24.3260   54.5800 C.ar  4001  HEM4001     0.0000
     35  C2D       27.5240  -25.7490   54.4320 C.ar  4001  HEM4001     0.0000
     36  C3D       27.4030  -26.2910   55.6650 C.ar  4001  HEM4001     0.0000
     37  C4D       27.1750  -25.2060   56.5760 C.ar  4001  HEM4001     0.0000
     38  CMD       27.7160  -26.4680   53.1150 C.3   4001  HEM4001     0.0000
     39  CAD       27.5140  -27.7970   55.9850 C.3   4001  HEM4001     0.0000
     40  CBD       28.9290  -28.2640   56.3150 C.3   4001  HEM4001     0.0000
     41  CGD       29.3420  -27.8670   57.7170 C.2   4001  HEM4001     0.0000
     42  O1D       28.8700  -28.5120   58.6620 O.co2 4001  HEM4001     0.0000
     43  O2D       30.1210  -26.9060   57.8860 O.co2 4001  HEM4001     0.0000
@<TRIPOS>BOND
     1    32    31    1
     2    31    28    1
     3    30    27    1
     4    28    27    2
     5    28    29    1
     6    27    26    1
     7    38    35    1
     8     5    29    1
     9     5    34    2
    10    29    25    2
    11    35    34   ar
    12    35    36   ar
    13    26    25    1
    14    26     4    2
    15    34    33   ar
    16    25     1    1
    17     4    21    1
    18    36    39    1
    19    36    37   ar
    20    33    37   ar
    21    33     1    1
    22    39    40    1
    23    40    41    1
    24    37     2    2
    25    24    23    1
    26     1    17    1
    27     1     6    1
    28    21    17   ar
    29    21    20   ar
    30    17    18   ar
    31    23    20    1
    32    41    43   ar
    33    41    42   ar
    34    20    19   ar
    35     2     7    1
    36     6     7    2
    37     6    10    1
    38    18    19   ar
    39    18     3    1
    40     7     8    1
    41    19    22    1
    42    10     3    2
    43    10     9    1
    44     8     9    2
    45     8    12    1
    46     9    11    1
    47    12    13    1
    48    15    14   ar
    49    13    14    1
    50    14    16   ar
