@<TRIPOS>MOLECULE
3cxh_SMA_C_1.pdb
 37 38 0 0 0
SMALL
GASTEIGER

@<TRIPOS>ATOM
      1  C2        15.6630  -22.7000   70.0640 C.ar  4005  SMA4005     0.1220
      2  C3        14.6410  -23.2200   70.8150 C.ar  4005  SMA4005     0.0475
      3  C3M       13.5910  -22.3610   71.4000 C.3   4005  SMA4005     0.0373
      4  C4        14.5470  -24.6650   71.0790 C.ar  4005  SMA4005     0.2002
      5  C4A       15.6170  -25.4770   70.4820 C.ar  4005  SMA4005     0.1105
      6  C5        15.6860  -26.8890   70.6490 C.ar  4005  SMA4005     0.1479
      7  C5M       15.0230  -28.6930   72.0440 C.3   4005  SMA4005     0.2525
      8  C6        16.7000  -27.6460   70.0730 C.ar  4005  SMA4005     0.0774
      9  C7        17.6790  -27.0190   69.3080 C.ar  4005  SMA4005     0.1835
     10  C7M       18.9520  -29.0500   69.1260 C.3   4005  SMA4005     0.2526
     11  C8        17.6620  -25.6060   69.1120 C.ar  4005  SMA4005     0.2636
     12  C8A       16.6210  -24.8540   69.7130 C.ar  4005  SMA4005     0.1925
     13  C9        15.8960  -21.2360   69.7410 C.3   4005  SMA4005     0.0644
     14  C10       15.2580  -20.7220   68.4640 C.3   4005  SMA4005     0.0104
     15  C11       15.9840  -19.4620   67.9600 C.3   4005  SMA4005     0.0278
     16  C12       15.1270  -18.6660   66.9450 C.3   4005  SMA4005     0.1179
     17  C13       14.7010  -19.4880   65.7250 C.3   4005  SMA4005     0.0586
     18  C14       13.9920  -18.5510   64.7260 C.3   4005  SMA4005     0.1395
     19  C15       13.3100  -19.3700   63.6670 C.2   4005  SMA4005     0.0029
     20  C16       13.6760  -19.4250   62.3780 C.2   4005  SMA4005    -0.0022
     21  C17       12.9990  -20.2300   61.3720 C.2   4005  SMA4005    -0.0006
     22  C18       13.4550  -20.2840   60.1090 C.2   4005  SMA4005    -0.0046
     23  C19       12.8830  -21.0410   58.9990 C.2   4005  SMA4005    -0.0261
     24  C20       13.4210  -20.8900   57.7630 C.2   4005  SMA4005    -0.0300
     25  C21       12.9730  -21.5690   56.5360 C.3   4005  SMA4005     0.0304
     26  C22       16.3700  -18.5360   69.1030 C.3   4005  SMA4005     0.0025
     27  C23       13.7760  -16.8020   67.6120 C.3   4005  SMA4005     0.1740
     28  C24       15.8870  -20.1780   65.0740 C.3   4005  SMA4005     0.0054
     29  C25       14.6070  -16.3440   64.0210 C.3   4005  SMA4005     0.1745
     30  C26       11.7370  -21.9370   59.2800 C.3   4005  SMA4005     0.0307
     31  O1        16.6710  -23.4840   69.4920 O.2   4005  SMA4005    -0.4544
     32  O4        13.6410  -25.1520   71.7570 O.2   4005  SMA4005    -0.2866
     33  O5        14.7040  -27.4450   71.4110 O.3   4005  SMA4005    -0.4711
     34  O7        18.7240  -27.6990   68.6960 O.3   4005  SMA4005    -0.4680
     35  O8        18.5910  -24.9140   68.3730 O.3   4005  SMA4005    -0.2800
     36  O12       13.9140  -18.2120   67.5730 O.3   4005  SMA4005    -0.3535
     37  O14       15.0110  -17.6980   64.1960 O.3   4005  SMA4005    -0.3491
@<TRIPOS>BOND
     1    25    24    1
     2    24    23    2
     3    23    30    1
     4    23    22    1
     5    22    21    2
     6    21    20    1
     7    20    19    2
     8    19    18    1
     9    29    37    1
    10    37    18    1
    11    18    17    1
    12    28    17    1
    13    17    16    1
    14    16    36    1
    15    16    15    1
    16    36    27    1
    17    15    14    1
    18    15    26    1
    19    35    11    1
    20    14    13    1
    21    34    10    1
    22    34     9    1
    23    11     9   ar
    24    11    12   ar
    25     9     8   ar
    26    31    12   ar
    27    31     1   ar
    28    12     5   ar
    29    13     1    1
    30     1     2   ar
    31     8     6   ar
    32     5     6   ar
    33     5     4   ar
    34     6    33    1
    35     2     4   ar
    36     2     3    1
    37     4    32    2
    38    33     7    1
