@<TRIPOS>MOLECULE
3cxi_VIT_A_1.pdb
 31 32 0 0 0
SMALL
GASTEIGER

@<TRIPOS>ATOM
      1  C1        19.2800   26.1700   24.8010 C.3   306  VIT306      0.0000
      2  C2        24.2730   37.5370   28.2180 C.ar  306  VIT306      0.0196
      3  C3        22.8490   37.0320   27.8650 C.ar  306  VIT306      0.0326
      4  C4        22.3300   36.9310   26.4460 C.ar  306  VIT306      0.1341
      5  C5        23.2520   37.3380   25.3020 C.ar  306  VIT306      0.0112
      6  C6        24.7420   37.8700   25.6080 C.ar  306  VIT306      0.0157
      7  C7        25.2230   37.9580   27.0850 C.ar  306  VIT306      0.1876
      8  C8        24.7690   37.6290   29.7160 C.3   306  VIT306      0.0345
      9  O1        20.9200   36.4330   26.1450 O.3   306  VIT306     -0.4786
     10  C9        19.9210   35.9880   27.2870 C.3   306  VIT306      0.1556
     11  C10       21.9140   36.6080   29.0120 C.2   306  VIT306      0.0016
     12  C11       20.4230   36.0730   28.7200 C.2   306  VIT306      0.0132
     13  C12       22.6860   37.2100   23.8560 C.3   306  VIT306      0.0340
     14  C13       25.7560   38.3140   24.5020 C.3   306  VIT306      0.0341
     15  O2        26.5300   38.4250   27.3810 O.3   306  VIT306     -0.2873
     16  C14       18.7680   36.7900   27.6730 C.3   306  VIT306      0.0486
     17  C15       19.5800   34.5040   27.0760 C.3   306  VIT306      0.0700
     18  C16       18.1490   33.9580   26.9050 C.2   306  VIT306     -0.0268
     19  C17       17.9080   32.6760   26.0070 C.2   306  VIT306     -0.0309
     20  C18       19.0530   31.8610   25.2380 C.3   306  VIT306      0.0217
     21  C19       20.1570   31.3730   26.1300 C.3   306  VIT306      0.0047
     22  C20       18.3630   30.6750   24.4780 C.3   306  VIT306      0.0043
     23  C21       18.8050   29.2060   24.6760 C.3   306  VIT306      0.0003
     24  C22       17.9860   28.2800   23.8500 C.3   306  VIT306      0.0000
     25  C23       18.2040   26.7030   23.8720 C.3   306  VIT306      0.0000
     26  C24       16.9020   25.8420   24.2140 C.3   306  VIT306      0.0000
     27  C25       15.5370   26.4410   24.5080 C.3   306  VIT306      0.0000
     28  C26       14.4980   26.6390   23.3210 C.3   306  VIT306      0.0000
     29  C27       13.3960   25.4870   23.1330 C.3   306  VIT306      0.0000
     30  C28       12.4180   25.8190   21.9930 C.3   306  VIT306      0.0000
     31  C29       14.0090   24.0880   22.7280 C.3   306  VIT306      0.0000
@<TRIPOS>BOND
     1    30    29    1
     2    31    29    1
     3    29    28    1
     4    28    27    1
     5    24    25    1
     6    24    23    1
     7    13     5    1
     8    25    26    1
     9    25     1    1
    10    26    27    1
    11    22    23    1
    12    22    20    1
    13    14     6    1
    14    20    19    1
    15    20    21    1
    16     5     6   ar
    17     5     4   ar
    18     6     7   ar
    19    19    18    2
    20     9     4    1
    21     9    10    1
    22     4     3   ar
    23    18    17    1
    24    17    10    1
    25     7    15    1
    26     7     2   ar
    27    10    16    1
    28    10    12    1
    29     3     2   ar
    30     3    11    1
    31     2     8    1
    32    12    11    2
