@<TRIPOS>MOLECULE
3cxo_3LR_A_1.pdb
 11 10 0 0 0
SMALL
GASTEIGER

@<TRIPOS>ATOM
      1  O1A       15.9700   26.3590   86.7010 O.co2 501  3LR501     -0.2428
      2  C1        16.0970   25.2730   86.0930 C.2   501  3LR501      0.3947
      3  O1B       15.1640   24.5240   85.7230 O.co2 501  3LR501     -0.2428
      4  C2        17.5480   24.8510   85.7830 C.3   501  3LR501      0.2566
      5  O2        17.5880   23.5290   85.1960 O.3   501  3LR501     -0.2108
      6  C3        18.3690   24.9120   87.0760 C.3   501  3LR501      0.0802
      7  C4        19.6660   24.1120   87.0100 C.3   501  3LR501      0.1852
      8  O4        20.7630   25.0200   86.8930 O.3   501  3LR501     -0.2203
      9  C5        19.8800   23.2190   88.2440 C.3   501  3LR501      0.1823
     10  C6        20.0710   23.9330   89.5930 C.3   501  3LR501      0.0382
     11  O5        21.0020   22.3930   87.9950 O.3   501  3LR501     -0.2204
@<TRIPOS>BOND
     1     5     4    1
     2     3     2   ar
     3     4     2    1
     4     4     6    1
     5     2     1   ar
     6     8     7    1
     7     7     6    1
     8     7     9    1
     9    11     9    1
    10     9    10    1
