@<TRIPOS>MOLECULE
3cxo_1N5_B_1.pdb
 12 11 0 0 0
SMALL
GASTEIGER

@<TRIPOS>ATOM
      1  C1        26.0980   14.6960   50.1390 C.2   502  1N5502      0.3947
      2  C2        25.7380   16.1680   50.4340 C.3   502  1N5502      0.2565
      3  C3        25.8360   16.9880   49.1270 C.3   502  1N5502      0.0775
      4  O4        26.3510   19.2560   49.7990 O.3   502  1N5502     -0.2230
      5  C7        22.5470   18.2980   47.3810 C.3   502  1N5502      0.1822
      6  C4        25.3130   18.4220   49.2970 C.3   502  1N5502      0.1552
      7  C5        24.8650   18.9490   47.9570 C.3   502  1N5502      0.0357
      8  C6        23.4130   19.3870   47.9890 C.3   502  1N5502      0.0381
      9  O2        24.4230   16.2760   51.0030 O.3   502  1N5502     -0.2108
     10  O7        21.1850   18.6920   47.4130 O.3   502  1N5502     -0.2204
     11  O1A       25.2710   13.8200   50.4970 O.co2 502  1N5502     -0.2428
     12  O1B       27.1970   14.4650   49.5670 O.co2 502  1N5502     -0.2428
@<TRIPOS>BOND
     1     5    10    1
     2     5     8    1
     3     7     8    1
     4     7     6    1
     5     3     6    1
     6     3     2    1
     7     6     4    1
     8    12     1   ar
     9     1     2    1
    10     1    11   ar
    11     2     9    1
