@<TRIPOS>MOLECULE
3cxq_GLP_A_1.pdb
 16 16 0 0 0
SMALL
GASTEIGER

@<TRIPOS>ATOM
      1  C1       -13.8220  -10.1240   -9.5190 C.3   185  GLP185      0.2893
      2  C2       -12.3080  -10.0620   -9.2910 C.3   185  GLP185      0.1836
      3  C3       -11.8590   -8.7460   -8.6550 C.3   185  GLP185      0.2071
      4  C4       -12.4570   -7.5530   -9.3920 C.3   185  GLP185      0.2132
      5  C5       -13.9790   -7.6950   -9.4210 C.3   185  GLP185      0.1807
      6  C6       -14.6040   -6.5400  -10.1880 C.3   185  GLP185      0.1859
      7  O1       -14.4680  -10.3630   -8.2730 O.3   185  GLP185     -0.1882
      8  N2       -11.8820  -11.1590   -8.4460 N.3   185  GLP185     -0.1247
      9  O3       -10.4290   -8.6670   -8.6680 O.3   185  GLP185     -0.2186
     10  O4       -12.0680   -6.3440   -8.7360 O.3   185  GLP185     -0.2176
     11  O5       -14.3460   -8.9140  -10.0880 O.3   185  GLP185     -0.3245
     12  O6       -15.9850   -6.5180   -9.8700 O.3   185  GLP185     -0.2675
     13  P        -16.7080   -5.1560   -9.4040 P.3   185  GLP185      0.5327
     14  O1P      -16.7070   -4.3590  -10.6840 O.2   185  GLP185     -0.2224
     15  O2P      -15.8730   -4.5850   -8.2850 O.3   185  GLP185     -0.1145
     16  O3P      -18.0570   -5.6220   -8.9540 O.3   185  GLP185     -0.1145
@<TRIPOS>BOND
     1    14    13    2
     2     6    12    1
     3     6     5    1
     4    11     1    1
     5    11     5    1
     6    12    13    1
     7     1     2    1
     8     1     7    1
     9     5     4    1
    10    13    16    1
    11    13    15    1
    12     4    10    1
    13     4     3    1
    14     2     3    1
    15     2     8    1
    16     9     3    1
