@<TRIPOS>MOLECULE
3cxv_HEM_A_1.pdb
 43 50 0 0 0
SMALL
GASTEIGER

@<TRIPOS>ATOM
      1 FE         -6.1350   24.8070    7.5540 Fe    462  HEM462      0.0000
      2  CHA       -4.2780   23.7190    4.8700 C.2   462  HEM462      0.0000
      3  CHB       -3.7420   23.5140    9.6480 C.2   462  HEM462      0.0000
      4  CHC       -7.8270   26.0820   10.1730 C.2   462  HEM462      0.0000
      5  CHD       -8.8360   25.3860    5.5380 C.2   462  HEM462      0.0000
      6  NA        -4.3580   23.7980    7.3140 N.2   462  HEM462      0.0000
      7  C1A       -3.7630   23.4680    6.1100 C.2   462  HEM462      0.0000
      8  C2A       -2.5080   22.7960    6.3790 C.2   462  HEM462      0.0000
      9  C3A       -2.3610   22.7300    7.6990 C.2   462  HEM462      0.0000
     10  C4A       -3.5080   23.3710    8.3090 C.2   462  HEM462      0.0000
     11  CMA       -1.1920   22.0920    8.4670 C.3   462  HEM462      0.0000
     12  CAA       -1.5280   22.2700    5.3120 C.3   462  HEM462      0.0000
     13  CBA       -2.0040   21.0150    4.5840 C.3   462  HEM462      0.0000
     14  CGA       -0.8630   20.4720    3.7470 C.2   462  HEM462      0.0000
     15  O1A        0.0480   21.2540    3.3610 O.co2 462  HEM462      0.0000
     16  O2A       -0.8330   19.2290    3.4900 O.co2 462  HEM462      0.0000
     17  NB        -5.8780   24.7290    9.5240 N.ar  462  HEM462      0.0000
     18  C1B       -4.7700   24.2410   10.1910 C.ar  462  HEM462      0.0000
     19  C2B       -4.8770   24.6300   11.5820 C.ar  462  HEM462      0.0000
     20  C3B       -6.0170   25.3340   11.7330 C.ar  462  HEM462      0.0000
     21  C4B       -6.6520   25.4170   10.4360 C.ar  462  HEM462      0.0000
     22  CMB       -3.8330   24.2440   12.6550 C.3   462  HEM462      0.0000
     23  CAB       -6.5950   25.9820   13.0100 C.2   462  HEM462      0.0000
     24  CBB       -5.8550   26.2520   14.0920 C.2   462  HEM462      0.0000
     25  NC        -8.0340   25.5230    7.8300 N.2   462  HEM462      0.0000
     26  C1C       -8.4340   26.1950    8.9490 C.2   462  HEM462      0.0000
     27  C2C       -9.6040   26.9840    8.6290 C.2   462  HEM462      0.0000
     28  C3C       -9.8920   26.7800    7.3320 C.2   462  HEM462      0.0000
     29  C4C       -8.9040   25.8610    6.8160 C.2   462  HEM462      0.0000
     30  CMC      -10.3350   27.8900    9.6420 C.3   462  HEM462      0.0000
     31  CAC      -11.0140   27.3910    6.4610 C.2   462  HEM462      0.0000
     32  CBC      -12.0910   27.9860    6.9880 C.2   462  HEM462      0.0000
     33  ND        -6.4780   24.5960    5.5390 N.ar  462  HEM462      0.0000
     34  C1D       -7.7290   24.8260    4.9480 C.ar  462  HEM462      0.0000
     35  C2D       -7.6860   24.4240    3.5720 C.ar  462  HEM462      0.0000
     36  C3D       -6.2670   23.8970    3.3510 C.ar  462  HEM462      0.0000
     37  C4D       -5.5930   24.0490    4.6170 C.ar  462  HEM462      0.0000
     38  CMD       -8.8600   24.5020    2.5790 C.3   462  HEM462      0.0000
     39  CAD       -5.6640   23.3230    2.0590 C.3   462  HEM462      0.0000
     40  CBD       -4.6410   24.2980    1.4970 C.3   462  HEM462      0.0000
     41  CGD       -4.0780   23.7720    0.1840 C.2   462  HEM462      0.0000
     42  O1D       -3.4370   24.5740   -0.5370 O.co2 462  HEM462      0.0000
     43  O2D       -4.2590   22.5700   -0.1580 O.co2 462  HEM462      0.0000
@<TRIPOS>BOND
     1    42    41   ar
     2    43    41   ar
     3    41    40    1
     4    40    39    1
     5    39    36    1
     6    38    35    1
     7    36    35   ar
     8    36    37   ar
     9    15    14   ar
    10    16    14   ar
    11    35    34   ar
    12    14    13    1
    13    13    12    1
    14    37     2    2
    15    37    33   ar
    16     2     7    1
    17    34     5    2
    18    34    33   ar
    19    12     8    1
    20     5    29    1
    21    33     1    1
    22     7     8    1
    23     7     6    2
    24     8     9    2
    25    31    32    2
    26    31    28    1
    27    29    28    1
    28    29    25    2
    29     6     1    1
    30     6    10    1
    31    28    27    2
    32     1    25    1
    33     1    17    1
    34     9    10    1
    35     9    11    1
    36    25    26    1
    37    10     3    2
    38    27    26    1
    39    27    30    1
    40    26     4    2
    41    17    18   ar
    42    17    21   ar
    43     3    18    1
    44     4    21    1
    45    18    19   ar
    46    21    20   ar
    47    19    20   ar
    48    19    22    1
    49    20    23    1
    50    23    24    2
