@<TRIPOS>MOLECULE
3cxw_7CP_A_1.pdb
 25 28 0 0 0
SMALL
GASTEIGER

@<TRIPOS>ATOM
      1  C1L       34.0670   49.1240   15.4580 C.3   501  7CP501      0.0420
      2  C1J       34.9250   49.4460   16.7290 C.3   501  7CP501      0.0741
      3  N1W       35.9070   50.4560   16.3740 N.3   501  7CP501     -0.2714
      4  C1A       36.8050   50.9640   17.4300 C.3   501  7CP501      0.0896
      5  C1K       35.0320   51.6640   16.1270 C.3   501  7CP501      0.0741
      6  C1M       34.0140   51.5310   14.9460 C.3   501  7CP501      0.0420
      7  C1Y       33.1450   50.3110   15.0900 C.3   501  7CP501      0.1150
      8  N1N       32.3120   50.4590   16.2990 N.2   501  7CP501     -0.2038
      9  C1O       31.3080   49.5560   16.5490 C.1   501  7CP501      0.1661
     10  O1D       30.6520   49.7260   17.5660 O.2   501  7CP501     -0.2208
     11  C1R       30.8110   48.7370   15.5320 C.ar  501  7CP501      0.1412
     12  N1X       29.8730   47.7880   15.5400 N.ar  501  7CP501     -0.3158
     13  C1B       29.2190   47.2900   16.7740 C.3   501  7CP501      0.1311
     14  C1U       29.6530   47.3240   14.2920 C.ar  501  7CP501      0.0717
     15  C1Q       28.8150   46.3430   13.7600 C.ar  501  7CP501      0.0839
     16 CL1F       27.8000   45.3640   14.7610 Cl    501  7CP501     -0.0799
     17  C1P       28.8120   46.0980   12.4020 C.ar  501  7CP501      0.0696
     18 CL1E       27.7730   44.8880   11.7690 Cl    501  7CP501     -0.0813
     19  C1H       29.6210   46.8250   11.5400 C.ar  501  7CP501      0.0123
     20  C1I       30.4620   47.7880   12.0610 C.ar  501  7CP501      0.0021
     21  C1T       30.4950   48.0310   13.4250 C.ar  501  7CP501      0.0159
     22  C1S       31.2270   48.9430   14.1940 C.ar  501  7CP501      0.0220
     23  C1V       32.2910   50.0000   13.8350 C.3   501  7CP501      0.1370
     24  C1G       31.6470   51.1790   13.2740 C.1   501  7CP501      0.0786
     25  N1C       31.0630   52.0560   12.8710 N.1   501  7CP501     -0.1955
@<TRIPOS>BOND
     1    19    20   ar
     2    19    17   ar
     3    18    17    1
     4    20    21   ar
     5    17    15   ar
     6    25    24    3
     7    24    23    1
     8    21    22   ar
     9    21    14   ar
    10    15    14   ar
    11    15    16    1
    12    23    22    1
    13    23     7    1
    14    22    11   ar
    15    14    12   ar
    16     6     7    1
    17     6     5    1
    18     7     1    1
    19     7     8    1
    20     1     2    1
    21    11    12   ar
    22    11     9    1
    23    12    13    1
    24     5     3    1
    25     8     9    2
    26     3     2    1
    27     3     4    1
    28     9    10    2
