@<TRIPOS>MOLECULE
3cxx_HEM_A_1.pdb
 43 50 0 0 0
SMALL
GASTEIGER

@<TRIPOS>ATOM
      1 FE         -6.0740   24.7060    7.5710 Fe    462  HEM462      0.0000
      2  CHA       -4.3960   23.5340    4.8530 C.2   462  HEM462      0.0000
      3  CHB       -3.7170   23.4370    9.6290 C.2   462  HEM462      0.0000
      4  CHC       -7.6360   26.2510   10.2750 C.2   462  HEM462      0.0000
      5  CHD       -8.9040   25.2890    5.6610 C.2   462  HEM462      0.0000
      6  NA        -4.3450   23.6690    7.2770 N.2   462  HEM462      0.0000
      7  C1A       -3.8080   23.3260    6.0760 C.2   462  HEM462      0.0000
      8  C2A       -2.5180   22.7220    6.3040 C.2   462  HEM462      0.0000
      9  C3A       -2.3290   22.6980    7.6340 C.2   462  HEM462      0.0000
     10  C4A       -3.4840   23.2860    8.2790 C.2   462  HEM462      0.0000
     11  CMA       -1.1200   22.1000    8.3660 C.3   462  HEM462      0.0000
     12  CAA       -1.5720   22.1920    5.2040 C.3   462  HEM462      0.0000
     13  CBA       -2.0440   20.9200    4.4850 C.3   462  HEM462      0.0000
     14  CGA       -0.9390   20.4380    3.5660 C.2   462  HEM462      0.0000
     15  O1A       -0.0540   21.2770    3.2280 O.co2 462  HEM462      0.0000
     16  O2A       -0.8970   19.2170    3.2010 O.co2 462  HEM462      0.0000
     17  NB        -5.7650   24.8130    9.6030 N.ar  462  HEM462      0.0000
     18  C1B       -4.6980   24.2200   10.2280 C.ar  462  HEM462      0.0000
     19  C2B       -4.7780   24.5740   11.6280 C.ar  462  HEM462      0.0000
     20  C3B       -5.8520   25.3650   11.8350 C.ar  462  HEM462      0.0000
     21  C4B       -6.5060   25.5130   10.5500 C.ar  462  HEM462      0.0000
     22  CMB       -3.7480   24.1020   12.6660 C.3   462  HEM462      0.0000
     23  CAB       -6.3500   26.0200   13.1550 C.2   462  HEM462      0.0000
     24  CBB       -5.5230   26.2950   14.1830 C.2   462  HEM462      0.0000
     25  NC        -7.9220   25.5790    7.9350 N.2   462  HEM462      0.0000
     26  C1C       -8.3340   26.2220    9.0810 C.2   462  HEM462      0.0000
     27  C2C       -9.6080   26.8610    8.7970 C.2   462  HEM462      0.0000
     28  C3C       -9.9740   26.5690    7.5260 C.2   462  HEM462      0.0000
     29  C4C       -8.9110   25.7870    6.9510 C.2   462  HEM462      0.0000
     30  CMC      -10.3670   27.6850    9.8530 C.3   462  HEM462      0.0000
     31  CAC      -11.2210   26.9870    6.6940 C.2   462  HEM462      0.0000
     32  CBC      -12.1780   27.8410    7.1090 C.2   462  HEM462      0.0000
     33  ND        -6.5780   24.4340    5.5900 N.ar  462  HEM462      0.0000
     34  C1D       -7.8220   24.7000    5.0310 C.ar  462  HEM462      0.0000
     35  C2D       -7.7990   24.2610    3.6490 C.ar  462  HEM462      0.0000
     36  C3D       -6.3910   23.7060    3.4010 C.ar  462  HEM462      0.0000
     37  C4D       -5.7060   23.8740    4.6540 C.ar  462  HEM462      0.0000
     38  CMD       -8.9600   24.3300    2.6460 C.3   462  HEM462      0.0000
     39  CAD       -5.7900   23.1090    2.1150 C.3   462  HEM462      0.0000
     40  CBD       -4.8040   24.1200    1.5180 C.3   462  HEM462      0.0000
     41  CGD       -4.2330   23.6610    0.1860 C.2   462  HEM462      0.0000
     42  O1D       -3.6300   24.5320   -0.5020 O.co2 462  HEM462      0.0000
     43  O2D       -4.3730   22.4580   -0.2090 O.co2 462  HEM462      0.0000
@<TRIPOS>BOND
     1    42    41   ar
     2    43    41   ar
     3    41    40    1
     4    40    39    1
     5    39    36    1
     6    38    35    1
     7    16    14   ar
     8    15    14   ar
     9    36    35   ar
    10    36    37   ar
    11    14    13    1
    12    35    34   ar
    13    13    12    1
    14    37     2    2
    15    37    33   ar
    16     2     7    1
    17    34    33   ar
    18    34     5    2
    19    12     8    1
    20    33     1    1
    21     5    29    1
    22     7     8    1
    23     7     6    2
    24     8     9    2
    25    31    32    2
    26    31    28    1
    27    29    28    1
    28    29    25    2
    29     6     1    1
    30     6    10    1
    31    28    27    2
    32     1    25    1
    33     1    17    1
    34     9    10    1
    35     9    11    1
    36    25    26    1
    37    10     3    2
    38    27    26    1
    39    27    30    1
    40    26     4    2
    41    17    18   ar
    42    17    21   ar
    43     3    18    1
    44    18    19   ar
    45     4    21    1
    46    21    20   ar
    47    19    20   ar
    48    19    22    1
    49    20    23    1
    50    23    24    2
