@<TRIPOS>MOLECULE
3cxy_HEM_A_1.pdb
 43 50 0 0 0
SMALL
GASTEIGER

@<TRIPOS>ATOM
      1 FE         -6.1500   25.0330    7.6050 Fe    462  HEM462      0.0000
      2  CHA       -4.3380   23.9830    4.9000 C.2   462  HEM462      0.0000
      3  CHB       -3.8160   23.6730    9.7330 C.2   462  HEM462      0.0000
      4  CHC       -7.8750   26.2960   10.2710 C.2   462  HEM462      0.0000
      5  CHD       -8.8300   25.8210    5.5770 C.2   462  HEM462      0.0000
      6  NA        -4.4140   24.0020    7.3460 N.2   462  HEM462      0.0000
      7  C1A       -3.8140   23.6930    6.1430 C.2   462  HEM462      0.0000
      8  C2A       -2.5600   23.0310    6.4230 C.2   462  HEM462      0.0000
      9  C3A       -2.4290   22.9440    7.7620 C.2   462  HEM462      0.0000
     10  C4A       -3.5890   23.5560    8.3760 C.2   462  HEM462      0.0000
     11  CMA       -1.2690   22.2860    8.5150 C.3   462  HEM462      0.0000
     12  CAA       -1.5700   22.5200    5.3640 C.3   462  HEM462      0.0000
     13  CBA       -1.9960   21.1880    4.7540 C.3   462  HEM462      0.0000
     14  CGA       -0.9520   20.6740    3.7970 C.2   462  HEM462      0.0000
     15  O1A       -0.0590   21.4660    3.3550 O.co2 462  HEM462      0.0000
     16  O2A       -0.9940   19.4510    3.4310 O.co2 462  HEM462      0.0000
     17  NB        -5.9320   24.9370    9.6200 N.ar  462  HEM462      0.0000
     18  C1B       -4.8580   24.3950   10.2940 C.ar  462  HEM462      0.0000
     19  C2B       -5.0060   24.7020   11.7010 C.ar  462  HEM462      0.0000
     20  C3B       -6.1290   25.4170   11.8400 C.ar  462  HEM462      0.0000
     21  C4B       -6.7250   25.6040   10.5340 C.ar  462  HEM462      0.0000
     22  CMB       -4.0230   24.2450   12.7990 C.3   462  HEM462      0.0000
     23  CAB       -6.7300   26.0190   13.1200 C.2   462  HEM462      0.0000
     24  CBB       -5.9560   26.4150   14.1230 C.2   462  HEM462      0.0000
     25  NC        -7.9970   25.8550    7.8940 N.2   462  HEM462      0.0000
     26  C1C       -8.4720   26.4140    9.0460 C.2   462  HEM462      0.0000
     27  C2C       -9.7060   27.1170    8.7640 C.2   462  HEM462      0.0000
     28  C3C       -9.9470   26.9610    7.4520 C.2   462  HEM462      0.0000
     29  C4C       -8.8940   26.1740    6.8910 C.2   462  HEM462      0.0000
     30  CMC      -10.5510   27.9110    9.7820 C.3   462  HEM462      0.0000
     31  CAC      -11.1160   27.5130    6.6020 C.2   462  HEM462      0.0000
     32  CBC      -12.2070   28.0390    7.1480 C.2   462  HEM462      0.0000
     33  ND        -6.5000   24.9620    5.5780 N.ar  462  HEM462      0.0000
     34  C1D       -7.7370   25.2380    4.9870 C.ar  462  HEM462      0.0000
     35  C2D       -7.7280   24.8340    3.6110 C.ar  462  HEM462      0.0000
     36  C3D       -6.3310   24.2680    3.3900 C.ar  462  HEM462      0.0000
     37  C4D       -5.6370   24.3750    4.6570 C.ar  462  HEM462      0.0000
     38  CMD       -8.8910   24.9610    2.6050 C.3   462  HEM462      0.0000
     39  CAD       -5.7800   23.6660    2.0870 C.3   462  HEM462      0.0000
     40  CBD       -4.7280   24.5680    1.4650 C.3   462  HEM462      0.0000
     41  CGD       -4.1980   23.9220    0.2040 C.2   462  HEM462      0.0000
     42  O1D       -3.6660   24.6780   -0.6360 O.co2 462  HEM462      0.0000
     43  O2D       -4.2950   22.6780    0.0200 O.co2 462  HEM462      0.0000
@<TRIPOS>BOND
     1    42    41   ar
     2    43    41   ar
     3    41    40    1
     4    40    39    1
     5    39    36    1
     6    38    35    1
     7    15    14   ar
     8    36    35   ar
     9    36    37   ar
    10    16    14   ar
    11    35    34   ar
    12    14    13    1
    13    37     2    2
    14    37    33   ar
    15    13    12    1
    16     2     7    1
    17    34     5    2
    18    34    33   ar
    19    12     8    1
    20     5    29    1
    21    33     1    1
    22     7     8    1
    23     7     6    2
    24     8     9    2
    25    31    32    2
    26    31    28    1
    27    29    28    1
    28    29    25    2
    29     6     1    1
    30     6    10    1
    31    28    27    2
    32     1    25    1
    33     1    17    1
    34     9    10    1
    35     9    11    1
    36    25    26    1
    37    10     3    2
    38    27    26    1
    39    27    30    1
    40    26     4    2
    41    17    18   ar
    42    17    21   ar
    43     3    18    1
    44     4    21    1
    45    18    19   ar
    46    21    20   ar
    47    19    20   ar
    48    19    22    1
    49    20    23    1
    50    23    24    2
