@<TRIPOS>MOLECULE
3cxz_HEM_A_1.pdb
 43 50 0 0 0
SMALL
GASTEIGER

@<TRIPOS>ATOM
      1  CHA       -4.6880   23.5960    4.9660 C.2   462  HEM462      0.0000
      2  CHB       -3.9040   23.6650    9.7030 C.2   462  HEM462      0.0000
      3  CHC       -7.9310   26.2600   10.2840 C.2   462  HEM462      0.0000
      4  CHD       -9.1050   25.4610    5.7150 C.2   462  HEM462      0.0000
      5  C1A       -4.0770   23.4430    6.1790 C.2   462  HEM462      0.0000
      6  C2A       -2.8130   22.8100    6.4110 C.2   462  HEM462      0.0000
      7  C3A       -2.6060   22.7980    7.7080 C.2   462  HEM462      0.0000
      8  C4A       -3.7180   23.4540    8.3470 C.2   462  HEM462      0.0000
      9  CMA       -1.4000   22.2030    8.4420 C.3   462  HEM462      0.0000
     10  CAA       -1.8660   22.2830    5.3310 C.3   462  HEM462      0.0000
     11  CBA       -2.1850   20.9220    4.7450 C.3   462  HEM462      0.0000
     12  CGA       -1.0760   20.4390    3.8370 C.2   462  HEM462      0.0000
     13  O1A       -0.1840   21.2360    3.4200 O.co2 462  HEM462      0.0000
     14  O2A       -1.0690   19.2270    3.4970 O.co2 462  HEM462      0.0000
     15  C1B       -4.9390   24.3660   10.2850 C.ar  462  HEM462      0.0000
     16  C2B       -5.0730   24.6440   11.6980 C.ar  462  HEM462      0.0000
     17  C3B       -6.1920   25.3580   11.8610 C.ar  462  HEM462      0.0000
     18  C4B       -6.7880   25.5480   10.5650 C.ar  462  HEM462      0.0000
     19  CMB       -4.0750   24.1980   12.7690 C.3   462  HEM462      0.0000
     20  CAB       -6.8210   25.9390   13.1360 C.2   462  HEM462      0.0000
     21  CBB       -6.1200   26.4700   14.1400 C.2   462  HEM462      0.0000
     22  C1C       -8.5790   26.3760    9.0830 C.2   462  HEM462      0.0000
     23  C2C       -9.7720   27.1450    8.7960 C.2   462  HEM462      0.0000
     24  C3C      -10.1040   26.8840    7.5220 C.2   462  HEM462      0.0000
     25  C4C       -9.1290   25.9700    6.9870 C.2   462  HEM462      0.0000
     26  CMC      -10.4650   28.0550    9.8140 C.3   462  HEM462      0.0000
     27  CAC      -11.2570   27.4270    6.6490 C.2   462  HEM462      0.0000
     28  CBC      -12.3220   28.0790    7.1240 C.2   462  HEM462      0.0000
     29  C1D       -8.0580   24.8050    5.1380 C.ar  462  HEM462      0.0000
     30  C2D       -8.0980   24.2960    3.8090 C.ar  462  HEM462      0.0000
     31  C3D       -6.7310   23.7350    3.5730 C.ar  462  HEM462      0.0000
     32  C4D       -6.0050   23.9480    4.7800 C.ar  462  HEM462      0.0000
     33  CMD       -9.2740   24.3440    2.8380 C.3   462  HEM462      0.0000
     34  CAD       -6.2050   23.0520    2.3170 C.3   462  HEM462      0.0000
     35  CBD       -5.3140   24.0400    1.5960 C.3   462  HEM462      0.0000
     36  CGD       -4.7170   23.4170    0.3530 C.2   462  HEM462      0.0000
     37  O1D       -3.9910   24.1460   -0.3570 O.co2 462  HEM462      0.0000
     38  O2D       -4.9730   22.2210    0.0300 O.co2 462  HEM462      0.0000
     39  NA        -4.6240   23.8350    7.3800 N.2   462  HEM462      0.0000
     40  NB        -6.0210   24.9030    9.6210 N.ar  462  HEM462      0.0000
     41  NC        -8.1980   25.6900    7.9630 N.2   462  HEM462      0.0000
     42  ND        -6.8140   24.5740    5.7120 N.ar  462  HEM462      0.0000
     43 FE         -6.3410   24.8850    7.6390 Fe    462  HEM462      0.0000
@<TRIPOS>BOND
     1    37    36   ar
     2    38    36   ar
     3    36    35    1
     4    35    34    1
     5    34    31    1
     6    33    30    1
     7    13    12   ar
     8    14    12   ar
     9    31    30   ar
    10    31    32   ar
    11    30    29   ar
    12    12    11    1
    13    11    10    1
    14    32     1    2
    15    32    42   ar
    16     1     5    1
    17    29    42   ar
    18    29     4    2
    19    10     6    1
    20    42    43    1
    21     4    25    1
    22     5     6    1
    23     5    39    2
    24     6     7    2
    25    27    28    2
    26    27    24    1
    27    25    24    1
    28    25    41    2
    29    39    43    1
    30    39     8    1
    31    24    23    2
    32    43    41    1
    33    43    40    1
    34     7     8    1
    35     7     9    1
    36    41    22    1
    37     8     2    2
    38    23    22    1
    39    23    26    1
    40    22     3    2
    41    40    15   ar
    42    40    18   ar
    43     2    15    1
    44     3    18    1
    45    15    16   ar
    46    18    17   ar
    47    16    17   ar
    48    16    19    1
    49    17    20    1
    50    20    21    2
