@<TRIPOS>MOLECULE
3cy0_HEM_A_1.pdb
 43 50 0 0 0
SMALL
GASTEIGER

@<TRIPOS>ATOM
      1  CHA       -4.7740   23.5140    5.1200 C.2   462  HEM462      0.0000
      2  CHB       -3.8100   23.7210    9.8300 C.2   462  HEM462      0.0000
      3  CHC       -7.8270   26.3740   10.4740 C.2   462  HEM462      0.0000
      4  CHD       -9.1550   25.5410    5.8620 C.2   462  HEM462      0.0000
      5  C1A       -4.1280   23.4130    6.3240 C.2   462  HEM462      0.0000
      6  C2A       -2.7850   22.9060    6.5070 C.2   462  HEM462      0.0000
      7  C3A       -2.5300   22.9780    7.8160 C.2   462  HEM462      0.0000
      8  C4A       -3.6930   23.4850    8.4920 C.2   462  HEM462      0.0000
      9  CMA       -1.2170   22.4610    8.4330 C.3   462  HEM462      0.0000
     10  CAA       -1.7830   22.3660    5.4310 C.3   462  HEM462      0.0000
     11  CBA       -2.0660   20.9510    4.9200 C.3   462  HEM462      0.0000
     12  CGA       -1.0370   20.5130    3.8960 C.2   462  HEM462      0.0000
     13  O1A       -0.1320   21.3370    3.5110 O.co2 462  HEM462      0.0000
     14  O2A       -1.0650   19.3030    3.4690 O.co2 462  HEM462      0.0000
     15  C1B       -4.8080   24.4550   10.4420 C.ar  462  HEM462      0.0000
     16  C2B       -4.8690   24.8380   11.8270 C.ar  462  HEM462      0.0000
     17  C3B       -5.9990   25.5550   12.0100 C.ar  462  HEM462      0.0000
     18  C4B       -6.6570   25.6830   10.7350 C.ar  462  HEM462      0.0000
     19  CMB       -3.8340   24.3940   12.8720 C.3   462  HEM462      0.0000
     20  CAB       -6.5510   26.1860   13.2970 C.2   462  HEM462      0.0000
     21  CBB       -5.7180   26.4360   14.3160 C.2   462  HEM462      0.0000
     22  C1C       -8.4650   26.4270    9.2720 C.2   462  HEM462      0.0000
     23  C2C       -9.6440   27.2120    8.9800 C.2   462  HEM462      0.0000
     24  C3C      -10.0010   26.9460    7.7080 C.2   462  HEM462      0.0000
     25  C4C       -9.0610   26.0320    7.1550 C.2   462  HEM462      0.0000
     26  CMC      -10.3450   28.1830    9.9730 C.3   462  HEM462      0.0000
     27  CAC      -11.1310   27.5080    6.8140 C.2   462  HEM462      0.0000
     28  CBC      -12.1320   28.2800    7.2380 C.2   462  HEM462      0.0000
     29  C1D       -8.1320   24.8920    5.2440 C.ar  462  HEM462      0.0000
     30  C2D       -8.1220   24.4260    3.8640 C.ar  462  HEM462      0.0000
     31  C3D       -6.7510   23.7920    3.6560 C.ar  462  HEM462      0.0000
     32  C4D       -6.0730   23.9340    4.9230 C.ar  462  HEM462      0.0000
     33  CMD       -9.2370   24.5420    2.8070 C.3   462  HEM462      0.0000
     34  CAD       -6.1640   23.1450    2.3830 C.3   462  HEM462      0.0000
     35  CBD       -5.0900   24.0710    1.7900 C.3   462  HEM462      0.0000
     36  CGD       -4.5750   23.6100    0.4330 C.2   462  HEM462      0.0000
     37  O1D       -3.9690   24.4500   -0.3020 O.co2 462  HEM462      0.0000
     38  O2D       -4.7530   22.4130    0.0590 O.co2 462  HEM462      0.0000
     39  NA        -4.6710   23.7950    7.5370 N.2   462  HEM462      0.0000
     40  NB        -5.8890   24.9970    9.8230 N.ar  462  HEM462      0.0000
     41  NC        -8.0910   25.7050    8.1250 N.2   462  HEM462      0.0000
     42  ND        -6.9230   24.5530    5.8400 N.ar  462  HEM462      0.0000
     43 FE         -6.2900   24.9540    7.7820 Fe    462  HEM462      0.0000
@<TRIPOS>BOND
     1    37    36   ar
     2    38    36   ar
     3    36    35    1
     4    35    34    1
     5    34    31    1
     6    33    30    1
     7    14    12   ar
     8    13    12   ar
     9    31    30   ar
    10    31    32   ar
    11    30    29   ar
    12    12    11    1
    13    11    10    1
    14    32     1    2
    15    32    42   ar
    16     1     5    1
    17    29    42   ar
    18    29     4    2
    19    10     6    1
    20    42    43    1
    21     4    25    1
    22     5     6    1
    23     5    39    2
    24     6     7    2
    25    27    28    2
    26    27    24    1
    27    25    24    1
    28    25    41    2
    29    39    43    1
    30    39     8    1
    31    24    23    2
    32    43    41    1
    33    43    40    1
    34     7     9    1
    35     7     8    1
    36    41    22    1
    37     8     2    2
    38    23    22    1
    39    23    26    1
    40    22     3    2
    41    40    15   ar
    42    40    18   ar
    43     2    15    1
    44    15    16   ar
    45     3    18    1
    46    18    17   ar
    47    16    17   ar
    48    16    19    1
    49    17    20    1
    50    20    21    2
