@<TRIPOS>MOLECULE
3cy1_HEM_A_1.pdb
 43 50 0 0 0
SMALL
GASTEIGER

@<TRIPOS>ATOM
      1  CHA       -4.6990   23.6210    4.8740 C.2   462  HEM462      0.0000
      2  CHB       -3.9530   23.7010    9.6150 C.2   462  HEM462      0.0000
      3  CHC       -7.9880   26.3340   10.1500 C.2   462  HEM462      0.0000
      4  CHD       -9.1490   25.4900    5.5590 C.2   462  HEM462      0.0000
      5  C1A       -4.0930   23.4750    6.1000 C.2   462  HEM462      0.0000
      6  C2A       -2.7920   22.9100    6.3400 C.2   462  HEM462      0.0000
      7  C3A       -2.6050   22.9220    7.6530 C.2   462  HEM462      0.0000
      8  C4A       -3.7660   23.4950    8.2720 C.2   462  HEM462      0.0000
      9  CMA       -1.3580   22.4040    8.3740 C.3   462  HEM462      0.0000
     10  CAA       -1.8020   22.3940    5.2800 C.3   462  HEM462      0.0000
     11  CBA       -2.1680   21.0140    4.7280 C.3   462  HEM462      0.0000
     12  CGA       -1.1540   20.5170    3.7300 C.2   462  HEM462      0.0000
     13  O1A       -0.2580   21.3100    3.2950 O.co2 462  HEM462      0.0000
     14  O2A       -1.1670   19.2860    3.3710 O.co2 462  HEM462      0.0000
     15  C1B       -4.9720   24.4360   10.1880 C.ar  462  HEM462      0.0000
     16  C2B       -5.0950   24.8170   11.5880 C.ar  462  HEM462      0.0000
     17  C3B       -6.2210   25.5410   11.7130 C.ar  462  HEM462      0.0000
     18  C4B       -6.8410   25.6430   10.4160 C.ar  462  HEM462      0.0000
     19  CMB       -4.0880   24.4330   12.6900 C.3   462  HEM462      0.0000
     20  CAB       -6.8630   26.2140   12.9320 C.2   462  HEM462      0.0000
     21  CBB       -6.1420   26.4260   14.0350 C.2   462  HEM462      0.0000
     22  C1C       -8.6320   26.4130    8.9490 C.2   462  HEM462      0.0000
     23  C2C       -9.8620   27.0980    8.6630 C.2   462  HEM462      0.0000
     24  C3C      -10.1870   26.8340    7.3780 C.2   462  HEM462      0.0000
     25  C4C       -9.1560   25.9830    6.8350 C.2   462  HEM462      0.0000
     26  CMC      -10.6120   27.9990    9.6570 C.3   462  HEM462      0.0000
     27  CAC      -11.3340   27.3180    6.4800 C.2   462  HEM462      0.0000
     28  CBC      -12.3670   28.0650    6.8480 C.2   462  HEM462      0.0000
     29  C1D       -8.1060   24.8500    4.9570 C.ar  462  HEM462      0.0000
     30  C2D       -8.0730   24.4120    3.5750 C.ar  462  HEM462      0.0000
     31  C3D       -6.6910   23.8360    3.3740 C.ar  462  HEM462      0.0000
     32  C4D       -6.0170   23.9870    4.6410 C.ar  462  HEM462      0.0000
     33  CMD       -9.2250   24.5070    2.5670 C.3   462  HEM462      0.0000
     34  CAD       -6.1210   23.2190    2.0960 C.3   462  HEM462      0.0000
     35  CBD       -5.0980   24.1730    1.5080 C.3   462  HEM462      0.0000
     36  CGD       -4.5750   23.5750    0.2040 C.2   462  HEM462      0.0000
     37  O1D       -3.9560   24.3390   -0.5700 O.co2 462  HEM462      0.0000
     38  O2D       -4.8070   22.3680   -0.0880 O.co2 462  HEM462      0.0000
     39  NA        -4.6680   23.8240    7.3030 N.2   462  HEM462      0.0000
     40  NB        -6.0360   24.9450    9.5420 N.ar  462  HEM462      0.0000
     41  NC        -8.2160   25.7300    7.8210 N.2   462  HEM462      0.0000
     42  ND        -6.8960   24.5900    5.5460 N.ar  462  HEM462      0.0000
     43 FE         -6.3720   24.9260    7.5420 Fe    462  HEM462      0.0000
@<TRIPOS>BOND
     1    37    36   ar
     2    38    36   ar
     3    36    35    1
     4    35    34    1
     5    34    31    1
     6    33    30    1
     7    13    12   ar
     8    14    12   ar
     9    31    30   ar
    10    31    32   ar
    11    30    29   ar
    12    12    11    1
    13    32     1    2
    14    32    42   ar
    15    11    10    1
    16     1     5    1
    17    29    42   ar
    18    29     4    2
    19    10     6    1
    20    42    43    1
    21     4    25    1
    22     5     6    1
    23     5    39    2
    24     6     7    2
    25    27    28    2
    26    27    24    1
    27    25    24    1
    28    25    41    2
    29    39    43    1
    30    39     8    1
    31    24    23    2
    32    43    41    1
    33    43    40    1
    34     7     8    1
    35     7     9    1
    36    41    22    1
    37     8     2    2
    38    23    22    1
    39    23    26    1
    40    22     3    2
    41    40    15   ar
    42    40    18   ar
    43     2    15    1
    44     3    18    1
    45    15    16   ar
    46    18    17   ar
    47    16    17   ar
    48    16    19    1
    49    17    20    1
    50    20    21    2
