@<TRIPOS>MOLECULE
3cy2_MB9_A_1.pdb
 23 26 0 0 0
SMALL
GASTEIGER

@<TRIPOS>ATOM
      1  C1K      -15.2530   33.8740   -0.9240 C.3   501  MB9501      0.0435
      2  C1I      -14.2000   33.6230   -2.0040 C.3   501  MB9501      0.0907
      3  N1M      -13.4230   34.8480   -2.3740 N.3   501  MB9501     -0.2179
      4  C1J      -14.2590   36.0250   -2.6530 C.3   501  MB9501      0.0907
      5  C1L      -15.2080   36.3140   -1.4960 C.3   501  MB9501      0.0435
      6  C1W      -16.0930   35.0950   -1.1610 C.3   501  MB9501      0.1151
      7  N1N      -16.8920   34.8570   -2.3860 N.2   501  MB9501     -0.2038
      8  C1O      -17.9550   35.6860   -2.6860 C.1   501  MB9501      0.1661
      9  O1C      -18.5440   35.4660   -3.7410 O.2   501  MB9501     -0.2208
     10  C1Q      -18.5060   36.5040   -1.7050 C.ar  501  MB9501      0.1411
     11  N1V      -19.4870   37.4110   -1.7260 N.ar  501  MB9501     -0.3165
     12  C1A      -20.1970   37.8450   -2.9460 C.3   501  MB9501      0.1311
     13  C1T      -19.7150   37.9170   -0.5110 C.ar  501  MB9501      0.0611
     14  C1H      -20.5910   38.9050   -0.0520 C.ar  501  MB9501      0.0286
     15  C1P      -20.5930   39.2020    1.3070 C.ar  501  MB9501      0.0591
     16 CL1D      -21.7020   40.4050    1.8770 Cl    501  MB9501     -0.0822
     17  C1F      -19.7360   38.5580    2.2070 C.ar  501  MB9501      0.0115
     18  C1G      -18.8340   37.6140    1.7360 C.ar  501  MB9501      0.0021
     19  C1S      -18.8260   37.2980    0.3820 C.ar  501  MB9501      0.0150
     20  C1R      -18.0600   36.4020   -0.3700 C.ar  501  MB9501      0.0219
     21  C1U      -16.9520   35.4290    0.0470 C.3   501  MB9501      0.1370
     22  C1E      -17.5610   34.2210    0.6310 C.1   501  MB9501      0.0786
     23  N1B      -18.0560   33.2890    1.0380 N.1   501  MB9501     -0.1955
@<TRIPOS>BOND
     1     9     8    2
     2    12    11    1
     3     8     7    2
     4     8    10    1
     5     4     3    1
     6     4     5    1
     7     7     6    1
     8     3     2    1
     9     2     1    1
    10    11    10   ar
    11    11    13   ar
    12    10    20   ar
    13     5     6    1
    14     6     1    1
    15     6    21    1
    16    13    14   ar
    17    13    19   ar
    18    20    21    1
    19    20    19   ar
    20    14    15   ar
    21    21    22    1
    22    19    18   ar
    23    22    23    3
    24    15    16    1
    25    15    17   ar
    26    18    17   ar
