@<TRIPOS>MOLECULE
3cy3_JN5_A_1.pdb
 27 30 0 0 0
SMALL
GASTEIGER

@<TRIPOS>ATOM
      1  C1W      -20.4040   39.4460   -2.1720 C.ar  501  JN5501     -0.0011
      2  C1X      -21.5700   40.1380   -1.8920 C.ar  501  JN5501      0.0204
      3  C1Y      -22.4500   40.3910   -2.9360 C.ar  501  JN5501      0.0989
      4  N1Z      -22.1720   39.9710   -4.1680 N.ar  501  JN5501     -0.2426
      5  C2A      -21.0510   39.3090   -4.4670 C.ar  501  JN5501      0.0946
      6  C1V      -20.1350   39.0400   -3.4680 C.ar  501  JN5501     -0.0012
      7  C1U      -18.8560   38.2960   -3.7540 C.3   501  JN5501      0.0522
      8  C1T      -19.0280   36.7920   -3.7360 C.3   501  JN5501      0.1300
      9  N1S      -17.7660   36.1900   -4.1410 N.pl3 501  JN5501     -0.1617
     10  C2       -16.9490   35.5930   -3.2600 C.1   501  JN5501      0.1649
     11  N3       -17.3290   35.4920   -1.9730 N.2   501  JN5501     -0.3393
     12  N1       -15.7540   35.1070   -3.6780 N.2   501  JN5501     -0.1686
     13  C6       -14.9370   34.4990   -2.8280 C.2   501  JN5501      0.1141
     14  C5       -15.3140   34.3720   -1.4910 C.2   501  JN5501      0.0515
     15  C4       -16.5390   34.8840   -1.0660 C.2   501  JN5501      0.1444
     16  C1J      -16.9280   34.8130    0.2760 C.3   501  JN5501      0.2019
     17  C1K      -16.2260   33.9310    1.1390 C.1   501  JN5501      0.0872
     18  N1L      -15.6530   33.1870    1.7640 N.1   501  JN5501     -0.1950
     19  C1I      -17.8450   35.7200    0.7770 C.2   501  JN5501      0.1553
     20  N1G      -18.0100   36.0060    2.1330 N.2   501  JN5501     -0.4017
     21  C1E      -18.9890   36.9790    2.3850 C.2   501  JN5501      0.1234
     22  C1C      -19.4230   37.5090    3.6060 C.2   501  JN5501      0.0287
     23  C1A      -20.4030   38.5010    3.6240 C.2   501  JN5501      0.0020
     24  C1B      -20.9960   38.9530    2.4340 C.2   501  JN5501     -0.0032
     25  C1D      -20.5890   38.4210    1.2010 C.2   501  JN5501     -0.0082
     26  C1F      -19.5820   37.4420    1.1940 C.3   501  JN5501      0.1279
     27  S1H      -18.9530   36.6930   -0.2060 S.3   501  JN5501     -0.0745
@<TRIPOS>BOND
     1     5     4   ar
     2     5     6   ar
     3     4     3   ar
     4     9     8    1
     5     9    10    1
     6     7     8    1
     7     7     6    1
     8    12    10    2
     9    12    13    1
    10     6     1   ar
    11    10    11    2
    12     3     2   ar
    13    13    14    2
    14     1     2   ar
    15    11    15    2
    16    14    15    1
    17    15    16    1
    18    27    19    1
    19    27    26    1
    20    16    19    1
    21    16    17    1
    22    19    20    2
    23    17    18    3
    24    26    25    1
    25    26    21    1
    26    25    24    2
    27    20    21    2
    28    21    22    1
    29    24    23    1
    30    22    23    2
