@<TRIPOS>MOLECULE
3cy5_HEM_A_1.pdb
 43 50 0 0 0
SMALL
GASTEIGER

@<TRIPOS>ATOM
      1 FE         27.1590   26.6380   56.9460 Fe    142  HEM142      0.0000
      2  CHA       27.0230   25.5290   60.2550 C.2   142  HEM142      0.0000
      3  CHB       28.3800   23.5370   56.0540 C.2   142  HEM142      0.0000
      4  CHC       27.0760   27.6120   53.7450 C.2   142  HEM142      0.0000
      5  CHD       26.1960   29.7610   58.0140 C.2   142  HEM142      0.0000
      6  NA        27.5990   24.8520   57.9740 N.ar  142  HEM142      0.0000
      7  C1A       27.5270   24.6490   59.3270 C.ar  142  HEM142      0.0000
      8  C2A       28.0620   23.3490   59.6280 C.ar  142  HEM142      0.0000
      9  C3A       28.4430   22.7760   58.4840 C.ar  142  HEM142      0.0000
     10  C4A       28.1580   23.7200   57.4140 C.ar  142  HEM142      0.0000
     11  CMA       29.0810   21.3670   58.3690 C.3   142  HEM142      0.0000
     12  CAA       28.1720   22.7510   61.0410 C.3   142  HEM142      0.0000
     13  CBA       26.9370   21.8950   61.2840 C.3   142  HEM142      0.0000
     14  CGA       27.1000   21.1270   62.5650 C.2   142  HEM142      0.0000
     15  O1A       28.0330   20.2770   62.6630 O.co2 142  HEM142      0.0000
     16  O2A       26.2800   21.3540   63.4880 O.co2 142  HEM142      0.0000
     17  NB        27.6360   25.7240   55.2240 N.2   142  HEM142      0.0000
     18  C1B       28.1300   24.4510   55.0480 C.2   142  HEM142      0.0000
     19  C2B       28.3470   24.2440   53.6220 C.2   142  HEM142      0.0000
     20  C3B       28.0080   25.3810   52.9850 C.2   142  HEM142      0.0000
     21  C4B       27.5470   26.3340   53.9810 C.2   142  HEM142      0.0000
     22  CMB       28.8930   22.9270   52.9910 C.3   142  HEM142      0.0000
     23  CAB       28.0340   25.6390   51.4710 C.2   142  HEM142      0.0000
     24  CBB       29.1030   25.3410   50.7280 C.2   142  HEM142      0.0000
     25  NC        26.6640   28.3210   56.0630 N.ar  142  HEM142      0.0000
     26  C1C       26.7930   28.5630   54.7020 C.ar  142  HEM142      0.0000
     27  C2C       26.5620   29.9740   54.4730 C.ar  142  HEM142      0.0000
     28  C3C       26.3350   30.5590   55.6670 C.ar  142  HEM142      0.0000
     29  C4C       26.3860   29.5320   56.6790 C.ar  142  HEM142      0.0000
     30  CMC       26.6120   30.6660   53.0870 C.3   142  HEM142      0.0000
     31  CAC       26.0560   32.0500   55.9840 C.2   142  HEM142      0.0000
     32  CBC       26.8010   33.0230   55.4320 C.2   142  HEM142      0.0000
     33  ND        26.6680   27.4950   58.8250 N.2   142  HEM142      0.0000
     34  C1D       26.3220   28.8350   59.0100 C.2   142  HEM142      0.0000
     35  C2D       26.1050   29.1060   60.4250 C.2   142  HEM142      0.0000
     36  C3D       26.3650   27.7750   61.1230 C.2   142  HEM142      0.0000
     37  C4D       26.7090   26.8470   60.0570 C.2   142  HEM142      0.0000
     38  CMD       25.7260   30.4470   61.1000 C.3   142  HEM142      0.0000
     39  CAD       26.2910   27.5020   62.6450 C.3   142  HEM142      0.0000
     40  CBD       27.7060   27.5410   63.2190 C.3   142  HEM142      0.0000
     41  CGD       27.7090   27.6300   64.7240 C.2   142  HEM142      0.0000
     42  O1D       26.6660   27.9830   65.3150 O.co2 142  HEM142      0.0000
     43  O2D       28.7570   27.3720   65.3610 O.co2 142  HEM142      0.0000
@<TRIPOS>BOND
     1    24    23    2
     2    23    20    1
     3    20    19    2
     4    20    21    1
     5    22    19    1
     6    30    27    1
     7    19    18    1
     8     4    21    2
     9     4    26    1
    10    21    17    1
    11    27    26   ar
    12    27    28   ar
    13    26    25   ar
    14    18    17    2
    15    18     3    1
    16    17     1    1
    17    32    31    2
    18    28    31    1
    19    28    29   ar
    20     3    10    2
    21    25    29   ar
    22    25     1    1
    23    29     5    1
    24     1     6    1
    25     1    33    1
    26    10     6   ar
    27    10     9   ar
    28     6     7   ar
    29     5    34    2
    30    11     9    1
    31     9     8   ar
    32    33    34    1
    33    33    37    2
    34    34    35    1
    35     7     8   ar
    36     7     2    2
    37     8    12    1
    38    37     2    1
    39    37    36    1
    40    35    38    1
    41    35    36    2
    42    12    13    1
    43    36    39    1
    44    13    14    1
    45    14    15   ar
    46    14    16   ar
    47    39    40    1
    48    40    41    1
    49    41    42   ar
    50    41    43   ar
