@<TRIPOS>MOLECULE
3cyh_SER_A_1.pdb
 10 9 0 0 0
SMALL
GASTEIGER

@<TRIPOS>ATOM
      1  N         18.7880    9.0820    4.3960 N.4   201  SER201      0.3882
      2  CA        19.3510   10.2150    3.6950 C.3   201  SER201      0.0307
      3  C         18.7610   11.4380    4.4130 C.2   201  SER201      0.1876
      4  O         17.6580   11.2770    4.9740 O.2   201  SER201     -0.2905
      5  CB        18.9460   10.1410    2.1920 C.3   201  SER201      0.1230
      6  OG        17.5960    9.7620    1.9160 O.3   201  SER201     -0.3838
      7  H1        17.7500    9.1980    4.3700 H     201  SER201     -0.0885
      8  H2        19.0820    8.1820    4.0040 H     201  SER201     -0.0885
      9  H         19.1240    9.1780    5.3800 H     201  SER201     -0.0885
     10  HG        17.5280    8.8680    1.5560 H     201  SER201      0.2104
@<TRIPOS>BOND
     1    10     6    1
     2     6     5    1
     3     5     2    1
     4     2     1    1
     5     2     3    1
     6     8     1    1
     7     7     1    1
     8     1     9    1
     9     3     4    2
