@<TRIPOS>MOLECULE
3cyi_ATP_A_1.pdb
 31 33 0 0 0
SMALL
GASTEIGER

@<TRIPOS>ATOM
      1  PG        21.6300   -8.3300   -1.6830 P.3     1  ATP1        0.5373
      2  O1G       21.3690   -8.7820   -3.0890 O.2     1  ATP1       -0.2221
      3  O2G       22.6660   -9.1550   -0.9490 O.3     1  ATP1       -0.1143
      4  O3G       21.8860   -6.8140   -1.6840 O.3     1  ATP1       -0.1143
      5  PB        19.0040   -9.3190   -1.2610 P.3     1  ATP1        0.2277
      6  O1B       18.0720   -9.4380   -0.0870 O.3     1  ATP1       -0.4368
      7  O2B       19.5050  -10.5780   -1.9540 O.2     1  ATP1       -0.5168
      8  O3B       20.2200   -8.3860   -0.8670 O.3     1  ATP1       -0.2258
      9  PA        17.7970   -8.9700   -3.8380 P.3     1  ATP1        0.2189
     10  O1A       18.8990   -9.7490   -4.4980 O.3     1  ATP1       -0.4371
     11  O2A       17.2190   -7.7620   -4.5340 O.2     1  ATP1       -0.5170
     12  O3A       18.2450   -8.4440   -2.3740 O.3     1  ATP1       -0.2700
     13  O5'       16.6470  -10.0420   -3.4940 O.3     1  ATP1       -0.3112
     14  C5'       15.4130   -9.6900   -2.9000 C.3     1  ATP1        0.1813
     15  C4'       14.3430  -10.7300   -3.2230 C.3     1  ATP1        0.1821
     16  O4'       13.1350  -10.3200   -2.5660 O.3     1  ATP1       -0.3135
     17  C3'       14.0180  -10.7570   -4.7210 C.3     1  ATP1        0.2184
     18  O3'       13.6040  -12.0940   -5.0640 O.3     1  ATP1       -0.2174
     19  C2'       12.8370   -9.8200   -4.8810 C.3     1  ATP1        0.2570
     20  O2'       11.9510  -10.2580   -5.9320 O.3     1  ATP1       -0.2130
     21  C1'       12.1340  -10.0180   -3.5560 C.3     1  ATP1        0.3186
     22  N9        11.3330   -8.9010   -3.0500 N.pl3   1  ATP1       -0.1439
     23  C8        10.0650   -9.0380   -2.6290 C.3     1  ATP1        0.3377
     24  N7         9.5830   -7.8640   -2.1740 N.2     1  ATP1       -0.2095
     25  C5        10.5560   -6.9510   -2.3330 C.2     1  ATP1        0.2526
     26  C6        10.6900   -5.5120   -2.0430 C.2     1  ATP1        0.4393
     27  N6         9.6520   -4.8470   -1.5090 N.pl3   1  ATP1        0.2180
     28  N1        11.8620   -4.9090   -2.3470 N.2     1  ATP1        0.0021
     29  C2        12.8980   -5.5990   -2.8650 C.3     1  ATP1        0.5254
     30  N3        12.8450   -6.9280   -3.1400 N.2     1  ATP1       -0.0055
     31  C4        11.7180   -7.6390   -2.8920 C.2     1  ATP1        0.3518
@<TRIPOS>BOND
     1    20    19    1
     2    18    17    1
     3    19    17    1
     4    19    21    1
     5    17    15    1
     6    11     9    2
     7    10     9    1
     8     9    13    1
     9     9    12    1
    10    21    22    1
    11    21    16    1
    12    13    14    1
    13    15    14    1
    14    15    16    1
    15    30    31    2
    16    30    29    1
    17     2     1    2
    18    22    31    1
    19    22    23    1
    20    31    25    1
    21    29    28    1
    22    23    24    1
    23    12     5    1
    24    28    26    2
    25    25    24    2
    26    25    26    1
    27    26    27    1
    28     7     5    2
    29     4     1    1
    30     1     3    1
    31     1     8    1
    32     5     8    1
    33     5     6    1
