@<TRIPOS>MOLECULE
3cyl_VIT_A_1.pdb
 31 32 0 0 0
SMALL
GASTEIGER

@<TRIPOS>ATOM
      1  C1         1.5090   -7.4700    2.0350 C.3   306  VIT306      0.0047
      2  C2         9.7990    2.9900    6.8160 C.ar  306  VIT306      0.0196
      3  C3         8.3950    2.4190    6.4400 C.ar  306  VIT306      0.0326
      4  C4         7.9420    2.2160    5.0270 C.ar  306  VIT306      0.1341
      5  C5         8.8990    2.5710    3.9000 C.ar  306  VIT306      0.0112
      6  C6        10.3570    3.1560    4.2130 C.ar  306  VIT306      0.0157
      7  C7        10.7740    3.3570    5.6930 C.ar  306  VIT306      0.1876
      8  C8        10.2510    3.2020    8.3290 C.3   306  VIT306      0.0345
      9  O1         6.5520    1.6640    4.6940 O.3   306  VIT306     -0.4789
     10  C9         5.5050    1.2690    5.7710 C.3   306  VIT306      0.1516
     11  C10        7.4090    2.0330    7.5510 C.2   306  VIT306      0.0016
     12  C11        5.9350    1.4400    7.2210 C.2   306  VIT306      0.0129
     13  C12        8.3790    2.3320    2.4660 C.3   306  VIT306      0.0340
     14  C13       11.4060    3.5480    3.1060 C.3   306  VIT306      0.0341
     15  O2        12.0430    3.8710    6.0080 O.3   306  VIT306     -0.2873
     16  C14        4.3610    2.1130    6.0290 C.3   306  VIT306      0.0483
     17  C15        5.3260   -0.2470    5.7530 C.3   306  VIT306      0.0443
     18  C16        3.9360   -0.9500    5.8250 C.3   306  VIT306      0.0039
     19  C17        3.6680   -2.1920    4.8600 C.3   306  VIT306      0.0001
     20  C18        4.8370   -3.1030    4.2780 C.3   306  VIT306      0.0000
     21  C19        5.8080   -3.6440    5.2970 C.3   306  VIT306      0.0000
     22  C20        4.2170   -4.2420    3.3670 C.3   306  VIT306      0.0000
     23  C21        4.6200   -5.7360    3.5320 C.3   306  VIT306      0.0003
     24  C22        3.9440   -6.6430    2.5970 C.3   306  VIT306      0.0043
     25  C23        2.6930   -7.5480    2.9970 C.3   306  VIT306      0.0217
     26  C24        3.0450   -9.1000    3.1210 C.2   306  VIT306     -0.0310
     27  C25        2.0010  -10.1540    3.4820 C.2   306  VIT306     -0.0307
     28  C26        2.5370  -11.6060    3.8270 C.3   306  VIT306      0.0257
     29  C27        2.4520  -12.6810    2.6560 C.3   306  VIT306      0.0043
     30  C28        2.9830  -14.0330    3.1330 C.3   306  VIT306      0.0003
     31  C29        0.9940  -12.9630    2.1580 C.3   306  VIT306      0.0003
@<TRIPOS>BOND
     1     1    25    1
     2    31    29    1
     3    13     5    1
     4    24    25    1
     5    24    23    1
     6    29    30    1
     7    29    28    1
     8    25    26    1
     9    14     6    1
    10    26    27    2
    11    22    23    1
    12    22    20    1
    13    27    28    1
    14     5     6   ar
    15     5     4   ar
    16     6     7   ar
    17    20    19    1
    18    20    21    1
    19     9     4    1
    20     9    10    1
    21    19    18    1
    22     4     3   ar
    23     7    15    1
    24     7     2   ar
    25    17    10    1
    26    17    18    1
    27    10    16    1
    28    10    12    1
    29     3     2   ar
    30     3    11    1
    31     2     8    1
    32    12    11    2
