@<TRIPOS>MOLECULE
3cyq_AMU_D_1.pdb
 20 20 0 0 0
SMALL
GASTEIGER

@<TRIPOS>ATOM
      1  C1        42.3840  -19.9840   10.1170 C.3     5  AMU5        0.2916
      2  C2        42.5710  -19.4490    8.6930 C.3     5  AMU5        0.1839
      3  C3        41.5360  -20.0000    7.7240 C.3     5  AMU5        0.1735
      4  C4        41.2580  -21.4960    7.8870 C.3     5  AMU5        0.2103
      5  C5        41.2810  -21.9510    9.3480 C.3     5  AMU5        0.1834
      6  C6        41.3990  -23.4520    9.4990 C.3     5  AMU5        0.2142
      7  C7        43.3650  -17.2280    7.9020 C.2     5  AMU5        0.2420
      8  C8        44.5030  -17.8740    7.1440 C.3     5  AMU5        0.0964
      9  C9        41.0200  -19.2560    5.5200 C.3     5  AMU5        0.2178
     10  C10       41.4670  -17.9090    5.0620 C.2     5  AMU5        0.3913
     11  C11       40.8430  -20.1350    4.2950 C.3     5  AMU5        0.0444
     12  O1        43.4400  -19.6070   11.0120 O.3     5  AMU5       -0.1879
     13  O3        42.0180  -19.7780    6.3960 O.3     5  AMU5       -0.3429
     14  O4        39.9980  -21.7710    7.2540 O.3     5  AMU5       -0.2178
     15  O5        42.3840  -21.4100   10.0680 O.3     5  AMU5       -0.3242
     16  O6        40.1560  -24.0100    9.0670 O.3     5  AMU5       -0.2176
     17  O7        43.2170  -16.0130    7.8860 O.2     5  AMU5       -0.2733
     18  O10       42.3620  -17.8900    4.1930 O.co2   5  AMU5       -0.2430
     19  O11       40.9390  -16.8890    5.5530 O.co2   5  AMU5       -0.2430
     20  N2        42.5080  -18.0010    8.5970 N.am    5  AMU5       -0.1993
@<TRIPOS>BOND
     1    18    10   ar
     2    11     9    1
     3    10     9    1
     4    10    19   ar
     5     9    13    1
     6    13     3    1
     7     8     7    1
     8    14     4    1
     9     3     4    1
    10     3     2    1
    11    17     7    2
    12     4     5    1
    13     7    20   am
    14    20     2    1
    15     2     1    1
    16    16     6    1
    17     5     6    1
    18     5    15    1
    19    15     1    1
    20     1    12    1
