@<TRIPOS>MOLECULE
3cyr_HEM_A_1.pdb
 43 50 0 0 0
SMALL
GASTEIGER

@<TRIPOS>ATOM
      1 FE         15.8120   53.5260   43.9560 Fe    201  HEM201      0.0000
      2  CHA       15.7370   51.0210   46.2850 C.2   201  HEM201      0.0000
      3  CHB       15.8390   55.8780   46.4200 C.2   201  HEM201      0.0000
      4  CHC       16.2710   56.0200   41.6000 C.2   201  HEM201      0.0000
      5  CHD       15.1760   51.2770   41.4730 C.2   201  HEM201      0.0000
      6  NA        15.8580   53.4600   45.9690 N.2   201  HEM201      0.0000
      7  C1A       15.7620   52.3140   46.7400 C.2   201  HEM201      0.0000
      8  C2A       15.7240   52.7170   48.1410 C.2   201  HEM201      0.0000
      9  C3A       15.6800   54.0460   48.1720 C.2   201  HEM201      0.0000
     10  C4A       15.8100   54.5450   46.8070 C.2   201  HEM201      0.0000
     11  CMA       15.4860   54.9630   49.4040 C.3   201  HEM201      0.0000
     12  CAA       15.6240   51.7180   49.3290 C.3   201  HEM201      0.0000
     13  CBA       14.2180   51.1490   49.5830 C.3   201  HEM201      0.0000
     14  CGA       13.9720   50.5300   50.9330 C.2   201  HEM201      0.0000
     15  O1A       12.9290   50.8870   51.5600 O.co2 201  HEM201      0.0000
     16  O2A       14.8040   49.6740   51.3330 O.co2 201  HEM201      0.0000
     17  NB        16.0380   55.5410   43.9900 N.ar  201  HEM201      0.0000
     18  C1B       15.9520   56.3570   45.1190 C.ar  201  HEM201      0.0000
     19  C2B       16.0520   57.7390   44.7170 C.ar  201  HEM201      0.0000
     20  C3B       16.1790   57.8320   43.3930 C.ar  201  HEM201      0.0000
     21  C4B       16.2050   56.4290   42.9240 C.ar  201  HEM201      0.0000
     22  CMB       16.0020   58.8780   45.7910 C.3   201  HEM201      0.0000
     23  CAB       16.5120   59.0090   42.4720 C.3   201  HEM201      0.0000
     24  CBB       17.7140   59.6860   42.8170 C.3   201  HEM201      0.0000
     25  NC        15.8080   53.6040   41.9530 N.2   201  HEM201      0.0000
     26  C1C       16.0180   54.7170   41.1670 C.2   201  HEM201      0.0000
     27  C2C       15.8920   54.3230   39.7870 C.2   201  HEM201      0.0000
     28  C3C       15.4700   53.0650   39.6940 C.2   201  HEM201      0.0000
     29  C4C       15.4740   52.5430   41.0620 C.2   201  HEM201      0.0000
     30  CMC       16.1430   55.3240   38.6020 C.3   201  HEM201      0.0000
     31  CAC       15.1570   52.2180   38.4560 C.3   201  HEM201      0.0000
     32  CBC       16.2300   52.1790   37.4800 C.3   201  HEM201      0.0000
     33  ND        15.5160   51.5370   43.8910 N.ar  201  HEM201      0.0000
     34  C1D       15.2680   50.7420   42.7480 C.ar  201  HEM201      0.0000
     35  C2D       15.0730   49.3730   43.1420 C.ar  201  HEM201      0.0000
     36  C3D       15.2300   49.3060   44.4970 C.ar  201  HEM201      0.0000
     37  C4D       15.5150   50.6270   44.9610 C.ar  201  HEM201      0.0000
     38  CMD       14.6770   48.1950   42.2430 C.3   201  HEM201      0.0000
     39  CAD       15.1020   48.0180   45.3600 C.3   201  HEM201      0.0000
     40  CBD       13.6540   47.7780   45.8860 C.3   201  HEM201      0.0000
     41  CGD       13.3910   46.4180   46.4840 C.2   201  HEM201      0.0000
     42  O1D       14.3060   45.8230   47.0380 O.co2 201  HEM201      0.0000
     43  O2D       12.2310   45.9270   46.2950 O.co2 201  HEM201      0.0000
@<TRIPOS>BOND
     1    32    31    1
     2    31    28    1
     3    30    27    1
     4    28    27    2
     5    28    29    1
     6    27    26    1
     7    29     5    1
     8    29    25    2
     9    26     4    2
    10    26    25    1
    11     5    34    2
    12     4    21    1
    13    25     1    1
    14    38    35    1
    15    23    24    1
    16    23    20    1
    17    34    35   ar
    18    34    33   ar
    19    21    20   ar
    20    21    17   ar
    21    35    36   ar
    22    20    19   ar
    23    33     1    1
    24    33    37   ar
    25     1    17    1
    26     1     6    1
    27    17    18   ar
    28    36    37   ar
    29    36    39    1
    30    19    18   ar
    31    19    22    1
    32    37     2    2
    33    18     3    1
    34    39    40    1
    35    40    41    1
    36     6     7    2
    37     6    10    1
    38     2     7    1
    39    43    41   ar
    40     3    10    2
    41    41    42   ar
    42     7     8    1
    43    10     9    1
    44     8     9    2
    45     8    12    1
    46     9    11    1
    47    12    13    1
    48    13    14    1
    49    14    16   ar
    50    14    15   ar
