@<TRIPOS>MOLECULE
3cyt_HEM_I_1.pdb
 43 50 0 0 0
SMALL
GASTEIGER

@<TRIPOS>ATOM
      1 FE         29.4430   23.3960    0.1090 Fe    104  HEM104      0.0000
      2  CHA       30.7830   23.4570   -3.0270 C.2   104  HEM104      0.0000
      3  CHB       31.2440   20.6540    0.8910 C.2   104  HEM104      0.0000
      4  CHC       28.2620   23.4600    3.3390 C.2   104  HEM104      0.0000
      5  CHD       27.3330   25.9990   -0.5870 C.2   104  HEM104      0.0000
      6  NA        30.7760   22.2620   -0.9020 N.2   104  HEM104      0.0000
      7  C1A       31.2700   22.4740   -2.1860 C.2   104  HEM104      0.0000
      8  C2A       32.2220   21.4910   -2.4710 C.2   104  HEM104      0.0000
      9  C3A       32.2850   20.6900   -1.3330 C.2   104  HEM104      0.0000
     10  C4A       31.4360   21.2030   -0.3760 C.2   104  HEM104      0.0000
     11  CMA       33.1940   19.5120   -1.1320 C.3   104  HEM104      0.0000
     12  CAA       33.0290   21.3180   -3.7650 C.3   104  HEM104      0.0000
     13  CBA       32.2550   20.5840   -4.8550 C.3   104  HEM104      0.0000
     14  CGA       33.1190   20.3470   -6.1020 C.2   104  HEM104      0.0000
     15  O1A       32.7370   19.5640   -7.0060 O.co2 104  HEM104      0.0000
     16  O2A       34.3950   20.6980   -6.0150 O.co2 104  HEM104      0.0000
     17  NB        29.6100   22.1570    1.7880 N.ar  104  HEM104      0.0000
     18  C1B       30.3740   21.0730    1.8700 C.ar  104  HEM104      0.0000
     19  C2B       30.2300   20.5060    3.1280 C.ar  104  HEM104      0.0000
     20  C3B       29.4160   21.3690    3.8200 C.ar  104  HEM104      0.0000
     21  C4B       29.0370   22.3870    2.9680 C.ar  104  HEM104      0.0000
     22  CMB       30.9250   19.2620    3.6490 C.3   104  HEM104      0.0000
     23  CAB       29.1050   21.3410    5.2660 C.3   104  HEM104      0.0000
     24  CBB       30.3430   21.7240    6.0440 C.3   104  HEM104      0.0000
     25  NC        28.1550   24.6440    1.2500 N.2   104  HEM104      0.0000
     26  C1C       27.8270   24.4970    2.5500 C.2   104  HEM104      0.0000
     27  C2C       26.8500   25.4590    2.9060 C.2   104  HEM104      0.0000
     28  C3C       26.4360   26.0240    1.7180 C.2   104  HEM104      0.0000
     29  C4C       27.3250   25.5950    0.7380 C.2   104  HEM104      0.0000
     30  CMC       26.1730   25.6930    4.2420 C.3   104  HEM104      0.0000
     31  CAC       25.1910   26.8590    1.4750 C.3   104  HEM104      0.0000
     32  CBC       24.9530   28.1020    2.2680 C.3   104  HEM104      0.0000
     33  ND        29.2230   24.4490   -1.4220 N.ar  104  HEM104      0.0000
     34  C1D       28.2330   25.5250   -1.5540 C.ar  104  HEM104      0.0000
     35  C2D       28.2620   25.9880   -2.8520 C.ar  104  HEM104      0.0000
     36  C3D       29.3360   25.3860   -3.4880 C.ar  104  HEM104      0.0000
     37  C4D       29.8090   24.3600   -2.6580 C.ar  104  HEM104      0.0000
     38  CMD       27.3140   26.9830   -3.5060 C.3   104  HEM104      0.0000
     39  CAD       29.8460   25.7360   -4.8790 C.3   104  HEM104      0.0000
     40  CBD       31.1230   26.5810   -4.7980 C.3   104  HEM104      0.0000
     41  CGD       31.4930   27.1840   -6.1610 C.2   104  HEM104      0.0000
     42  O1D       30.6050   27.2980   -7.0160 O.co2 104  HEM104      0.0000
     43  O2D       32.3100   28.1970   -5.9540 O.co2 104  HEM104      0.0000
@<TRIPOS>BOND
     1    42    41   ar
     2    15    14   ar
     3    41    43   ar
     4    41    40    1
     5    14    16   ar
     6    14    13    1
     7    39    40    1
     8    39    36    1
     9    13    12    1
    10    12     8    1
    11    38    35    1
    12    36    35   ar
    13    36    37   ar
    14     2    37    2
    15     2     7    1
    16    35    34   ar
    17    37    33   ar
    18     8     7    1
    19     8     9    2
    20     7     6    2
    21    34    33   ar
    22    34     5    2
    23    33     1    1
    24     9    11    1
    25     9    10    1
    26     6    10    1
    27     6     1    1
    28     5    29    1
    29    10     3    2
    30     1    25    1
    31     1    17    1
    32    29    25    2
    33    29    28    1
    34     3    18    1
    35    25    26    1
    36    31    28    1
    37    31    32    1
    38    28    27    2
    39    17    18   ar
    40    17    21   ar
    41    18    19   ar
    42    26    27    1
    43    26     4    2
    44    27    30    1
    45    21     4    1
    46    21    20   ar
    47    19    22    1
    48    19    20   ar
    49    20    23    1
    50    23    24    1
