@<TRIPOS>MOLECULE
3cyw_017_A_1.pdb
 38 41 0 0 0
SMALL
GASTEIGER

@<TRIPOS>ATOM
      1  N1        -8.2350   14.0110  -13.7680 N.pl3 201  017201     -0.1281
      2  C2        -8.8780   15.1720  -14.1570 C.ar  201  017201      0.0892
      3  C3       -10.2020   15.3840  -13.7750 C.ar  201  017201      0.0194
      4  C4       -10.8580   16.5540  -14.1130 C.ar  201  017201      0.0213
      5  C5       -10.1630   17.5140  -14.8190 C.ar  201  017201      0.1223
      6  C6        -8.8550   17.3280  -15.2550 C.ar  201  017201      0.0213
      7  C7        -8.2140   16.1520  -14.9180 C.ar  201  017201      0.0194
      8  S8       -11.1180   18.9150  -15.3270 S.O2  201  017201      0.0634
      9  O9       -12.2910   19.0350  -14.4680 O.2   201  017201     -0.1528
     10  O10      -10.1960   20.0460  -15.4810 O.2   201  017201     -0.1528
     11  N11      -11.6850   18.6660  -16.9020 N.3   201  017201     -0.1529
     12  C12      -10.7030   18.4250  -17.9650 C.3   201  017201      0.0958
     13  C13      -11.0630   19.0160  -19.3430 C.3   201  017201      0.0178
     14  C14      -11.1660   20.5370  -19.2910 C.3   201  017201      0.0015
     15  C15       -9.9560   18.5960  -20.3270 C.3   201  017201      0.0015
     16  C16      -12.9830   17.9880  -17.0280 C.3   201  017201      0.1304
     17  C17      -14.0730   18.8800  -17.6690 C.3   201  017201      0.1898
     18  O18      -15.1670   18.0290  -18.0410 O.3   201  017201     -0.2197
     19  C19      -14.5780   19.9600  -16.6990 C.3   201  017201      0.1347
     20  N20      -15.4260   20.9000  -17.4050 N.am  201  017201     -0.1675
     21  C21      -15.0890   22.1880  -17.6540 C.2   201  017201      0.4211
     22  O22      -14.1060   22.7850  -17.2710 O.2   201  017201     -0.2246
     23  O23      -16.0690   22.7100  -18.4370 O.3   201  017201     -0.4345
     24  C24      -15.9930   24.1280  -18.7240 C.3   201  017201      0.2048
     25  C25      -16.5600   24.3260  -20.1280 C.3   201  017201      0.1884
     26  O26      -17.9690   24.2400  -19.9500 O.3   201  017201     -0.3265
     27  C27      -18.3400   24.7790  -18.6730 C.3   201  017201      0.2388
     28  O28      -19.2150   23.9090  -18.0260 O.3   201  017201     -0.3304
     29  C29      -18.5150   23.2650  -16.9650 C.3   201  017201      0.1451
     30  C30      -17.4020   24.2250  -16.5040 C.3   201  017201      0.0409
     31  C31      -17.0370   24.8750  -17.8430 C.3   201  017201      0.1016
     32  C32      -15.2400   19.4670  -15.3920 C.3   201  017201      0.0508
     33  C33      -16.9260   21.0770  -14.3930 C.ar  201  017201     -0.0042
     34  C34      -17.2700   22.1470  -13.5750 C.ar  201  017201     -0.0003
     35  C35      -16.2730   22.8350  -12.8840 C.ar  201  017201     -0.0000
     36  C36      -14.9430   22.4060  -12.9540 C.ar  201  017201     -0.0003
     37  C37      -14.6490   21.2560  -13.6660 C.ar  201  017201     -0.0042
     38  C38      -15.6090   20.6310  -14.4770 C.ar  201  017201     -0.0204
@<TRIPOS>BOND
     1    15    13    1
     2    25    26    1
     3    25    24    1
     4    26    27    1
     5    13    14    1
     6    13    12    1
     7    24    23    1
     8    24    31    1
     9    27    28    1
    10    27    31    1
    11    23    21    1
    12    18    17    1
    13    28    29    1
    14    12    11    1
    15    31    30    1
    16    17    16    1
    17    17    19    1
    18    21    20   am
    19    21    22    2
    20    20    19    1
    21    16    11    1
    22    29    30    1
    23    11     8    1
    24    19    32    1
    25    10     8    2
    26    32    38    1
    27     8     5    1
    28     8     9    2
    29     6     7   ar
    30     6     5   ar
    31     7     2   ar
    32     5     4   ar
    33    38    33   ar
    34    38    37   ar
    35    33    34   ar
    36     2     3   ar
    37     2     1    1
    38     4     3   ar
    39    37    36   ar
    40    34    35   ar
    41    36    35   ar
