@<TRIPOS>MOLECULE
3cyx_ROC_A_1.pdb
 49 53 0 0 0
SMALL
GASTEIGER

@<TRIPOS>ATOM
      1  C         21.4180   26.4730   18.5010 C.2   201  ROC201      0.2910
      2  O         20.9630   27.6310   18.5850 O.2   201  ROC201     -0.2659
      3  N1        23.1320   24.7840   18.9890 N.2   201  ROC201     -0.4013
      4  C2        22.5260   25.9480   19.3240 C.2   201  ROC201      0.1679
      5  C3        22.9570   26.7130   20.4290 C.3   201  ROC201      0.0899
      6  C4        23.9510   26.1280   21.2240 C.2   201  ROC201     -0.0160
      7  C5        25.5900   24.3820   21.6240 C.ar  201  ROC201      0.0022
      8  C6        26.2480   23.2290   21.2520 C.ar  201  ROC201      0.0002
      9  C7        25.7750   22.5710   20.1460 C.ar  201  ROC201      0.0026
     10  C8        24.7930   23.0780   19.3660 C.ar  201  ROC201      0.0320
     11  C4A       24.5890   24.9500   20.8630 C.ar  201  ROC201      0.0257
     12  C8A       24.1450   24.2650   19.7300 C.ar  201  ROC201      0.1309
     13  N         20.9560   25.5530   17.6310 N.am  201  ROC201     -0.1916
     14  CA        19.8020   25.7440   16.8090 C.3   201  ROC201      0.1823
     15  C1        18.8200   24.6190   17.1240 C.2   201  ROC201      0.2618
     16  O1        18.9680   23.5450   16.4970 O.2   201  ROC201     -0.2715
     17  CB        20.1110   25.7770   15.3330 C.3   201  ROC201      0.1195
     18  CG        21.0210   26.9070   15.1040 C.2   201  ROC201      0.2630
     19  OD1       22.2410   26.9030   14.8890 O.2   201  ROC201     -0.2716
     20  ND2       20.4990   28.0680   15.1630 N.am  201  ROC201     -0.0877
     21  C9        15.5150   24.4490   18.0900 C.3   201  ROC201      0.1879
     22  O2        15.1850   25.5650   18.9070 O.3   201  ROC201     -0.2198
     23  CA1       16.8980   23.9020   18.4630 C.3   201  ROC201      0.1313
     24  N2        17.9100   24.8890   18.0560 N.am  201  ROC201     -0.2027
     25  CB1       17.0750   23.6610   19.9590 C.3   201  ROC201      0.0506
     26  CG1       18.4960   23.4010   20.3840 C.ar  201  ROC201     -0.0204
     27  CD1       19.0840   22.1730   20.1610 C.ar  201  ROC201     -0.0042
     28  CD2       19.2320   24.3800   20.9910 C.ar  201  ROC201     -0.0042
     29  CE1       20.3550   21.9220   20.5830 C.ar  201  ROC201     -0.0003
     30  CE2       20.5240   24.1400   21.3810 C.ar  201  ROC201     -0.0003
     31  CZ        21.0740   22.9090   21.2000 C.ar  201  ROC201     -0.0000
     32  N11       14.4060   22.6030   16.9510 N.3   201  ROC201     -0.2643
     33  CM        14.4250   23.4090   18.1430 C.3   201  ROC201      0.1075
     34  C21       13.8020   21.2430   17.1590 C.3   201  ROC201      0.1365
     35  CC        14.5820   20.4490   18.2200 C.2   201  ROC201      0.2558
     36  O3        15.8020   20.4480   18.2530 O.2   201  ROC201     -0.2719
     37  C31       13.8270   20.4800   15.8790 C.3   201  ROC201      0.0254
     38  C3A       13.1450   21.1720   14.7360 C.3   201  ROC201      0.0032
     39  C41       13.2330   20.4170   13.4160 C.3   201  ROC201      0.0001
     40  C51       14.6010   20.4550   12.7730 C.3   201  ROC201      0.0000
     41  C61       15.0750   21.8700   12.5940 C.3   201  ROC201      0.0000
     42  C71       15.1100   22.5070   13.9760 C.3   201  ROC201      0.0014
     43  C7A       13.7730   22.5690   14.6270 C.3   201  ROC201      0.0161
     44  C81       13.7110   23.3070   15.9020 C.3   201  ROC201      0.0725
     45  N3        13.8090   19.7990   19.1250 N.am  201  ROC201     -0.2077
     46  CD        14.3160   18.9050   20.1500 C.3   201  ROC201      0.0788
     47  C11       15.0080   17.7520   19.4800 C.3   201  ROC201      0.0217
     48  C22       13.1530   18.3990   20.9750 C.3   201  ROC201      0.0217
     49  C32       15.2240   19.6820   21.0690 C.3   201  ROC201      0.0217
@<TRIPOS>BOND
     1    41    40    1
     2    41    42    1
     3    40    39    1
     4    39    38    1
     5    42    43    1
     6    43    38    1
     7    43    44    1
     8    38    37    1
     9    19    18    2
    10    18    20   am
    11    18    17    1
    12    17    14    1
    13    37    34    1
    14    44    32    1
    15    16    15    2
    16    14    15    1
    17    14    13    1
    18    32    34    1
    19    32    33    1
    20    15    24   am
    21    34    35    1
    22    13     1   am
    23    24    23    1
    24    21    33    1
    25    21    23    1
    26    21    22    1
    27    35    36    2
    28    35    45   am
    29    23    25    1
    30     1     2    2
    31     1     4    1
    32     3     4    2
    33     3    12    2
    34    45    46    1
    35     4     5    1
    36    10    12   ar
    37    10     9   ar
    38    47    46    1
    39    12    11   ar
    40    25    26    1
    41     9     8   ar
    42    46    48    1
    43    46    49    1
    44    27    26   ar
    45    27    29   ar
    46    26    28   ar
    47     5     6    1
    48    29    31   ar
    49    11     6    2
    50    11     7   ar
    51    28    30   ar
    52    31    30   ar
    53     8     7   ar
