@<TRIPOS>MOLECULE
3cyz_9OD_A_1.pdb
 13 12 0 0 0
SMALL
GASTEIGER

@<TRIPOS>ATOM
      1  O9        14.0790   -8.5530   -1.8040 O.2   124  9OD124     -0.2960
      2  C9        13.9560   -7.4080   -2.2300 C.2   124  9OD124      0.1511
      3  C10       12.6030   -6.8020   -2.4240 C.3   124  9OD124      0.0722
      4  C8        15.2100   -6.6170   -2.5500 C.3   124  9OD124      0.0645
      5  C7        15.0100   -5.1790   -3.0520 C.3   124  9OD124      0.0077
      6  C6        15.7570   -4.1870   -2.1480 C.3   124  9OD124      0.0004
      7  C5        16.4950   -3.0640   -2.8760 C.3   124  9OD124      0.0000
      8  C4        17.9700   -3.4310   -2.8550 C.3   124  9OD124      0.0006
      9  C3        18.8870   -2.6040   -3.7210 C.3   124  9OD124      0.0118
     10  C2        20.1200   -3.1170   -3.8150 C.3   124  9OD124      0.1141
     11  C1        21.1940   -2.4580   -4.5610 C.2   124  9OD124      0.3649
     12  OE1       22.3600   -2.8980   -4.4030 O.co2 124  9OD124     -0.2457
     13  OE2       20.9420   -1.4680   -5.2810 O.co2 124  9OD124     -0.2457
@<TRIPOS>BOND
     1    13    11   ar
     2    11    12   ar
     3    11    10    1
     4    10     9    1
     5     9     8    1
     6     5     4    1
     7     5     6    1
     8     7     8    1
     9     7     6    1
    10     4     2    1
    11     3     2    1
    12     2     1    2
