@<TRIPOS>MOLECULE
3cz0_9OD_A_1.pdb
 13 12 0 0 0
SMALL
GASTEIGER

@<TRIPOS>ATOM
      1  O9        13.4730   -8.1400   -1.7650 O.2   124  9OD124     -0.2960
      2  C9        13.3040   -7.0410   -2.2740 C.2   124  9OD124      0.1511
      3  C10       11.9350   -6.6140   -2.6970 C.3   124  9OD124      0.0722
      4  C8        14.5020   -6.1380   -2.4890 C.3   124  9OD124      0.0645
      5  C7        14.1720   -4.6860   -2.8540 C.3   124  9OD124      0.0078
      6  C6        15.1430   -3.6770   -2.2300 C.3   124  9OD124      0.0008
      7  C5        16.5160   -3.6390   -2.8920 C.3   124  9OD124      0.0047
      8  C4        17.0350   -2.2070   -2.9750 C.3   124  9OD124      0.0263
      9  C3        18.1330   -2.0390   -4.0090 C.2   124  9OD124     -0.0194
     10  C2        19.3160   -2.6300   -3.8510 C.2   124  9OD124      0.0816
     11  C1        20.4040   -2.4730   -4.8470 C.2   124  9OD124      0.3876
     12  OE1       21.4860   -3.0830   -4.6720 O.co2 124  9OD124     -0.2406
     13  OE2       20.2340   -1.7380   -5.8490 O.co2 124  9OD124     -0.2406
@<TRIPOS>BOND
     1    13    11   ar
     2    11    12   ar
     3    11    10    1
     4     9    10    2
     5     9     8    1
     6     8     7    1
     7     7     6    1
     8     5     4    1
     9     5     6    1
    10     3     2    1
    11     4     2    1
    12     2     1    2
