@<TRIPOS>MOLECULE
3cz1_NBB_A_1.pdb
 14 14 0 0 0
SMALL
GASTEIGER

@<TRIPOS>ATOM
      1  O1S       22.6970   -2.9920   -4.4790 O.2   122  NBB122     -0.1516
      2  S         21.3030   -2.8040   -4.7850 S.O2  122  NBB122      0.0768
      3  O2S       21.0150   -1.4600   -5.2100 O.2   122  NBB122     -0.1516
      4  N10       20.4060   -3.1110   -3.4980 N.3   122  NBB122     -0.0778
      5  C11       19.1040   -2.5030   -3.3470 C.3   122  NBB122      0.1155
      6  C12       17.9900   -3.5280   -3.4060 C.3   122  NBB122      0.0208
      7  C13       16.6740   -2.9210   -2.9340 C.3   122  NBB122      0.0015
      8  C14       16.1860   -3.6210   -1.6840 C.3   122  NBB122      0.0000
      9  C4        20.9720   -3.8590   -5.9380 C.ar  122  NBB122      0.1235
     10  C5        20.9860   -3.4720   -7.2800 C.ar  122  NBB122      0.0200
     11  C6        20.7210   -4.3870   -8.2950 C.ar  122  NBB122      0.0014
     12  C1        20.4380   -5.7090   -7.9650 C.ar  122  NBB122      0.0001
     13  C2        20.4340   -6.0990   -6.6300 C.ar  122  NBB122      0.0014
     14  C3        20.7060   -5.1830   -5.6180 C.ar  122  NBB122      0.0200
@<TRIPOS>BOND
     1    11    12   ar
     2    11    10   ar
     3    12    13   ar
     4    10     9   ar
     5    13    14   ar
     6     9    14   ar
     7     9     2    1
     8     3     2    2
     9     2     1    2
    10     2     4    1
    11     4     5    1
    12     6     5    1
    13     6     7    1
    14     7     8    1
