@<TRIPOS>MOLECULE
3czd_GLU_A_1.pdb
 10 9 0 0 0
SMALL
GASTEIGER

@<TRIPOS>ATOM
      1  N         20.8280   -8.7230  -13.2540 N.3   600  GLU600     -0.1208
      2  CA        20.0270   -7.5390  -12.8860 C.3   600  GLU600      0.1949
      3  C         18.9570   -8.0190  -11.8780 C.2   600  GLU600      0.3819
      4  O         18.5270   -7.1860  -11.0390 O.co2 600  GLU600     -0.2441
      5  CB        19.2730   -7.0360  -14.1550 C.3   600  GLU600      0.0424
      6  CG        19.0970   -5.5660  -14.0360 C.3   600  GLU600      0.1161
      7  CD        18.4950   -4.8950  -15.2490 C.2   600  GLU600      0.3649
      8  OE1       17.5940   -4.0810  -14.9700 O.co2 600  GLU600     -0.2457
      9  OE2       18.9650   -5.1300  -16.4070 O.co2 600  GLU600     -0.2457
     10  OXT       18.5730   -9.1980  -12.0130 O.co2 600  GLU600     -0.2441
@<TRIPOS>BOND
     1     9     7   ar
     2     7     8   ar
     3     7     6    1
     4     5     6    1
     5     5     2    1
     6     1     2    1
     7     2     3    1
     8    10     3   ar
     9     3     4   ar
