@<TRIPOS>MOLECULE
3czg_GLC_A_1.pdb
 12 12 0 0 0
SMALL
GASTEIGER

@<TRIPOS>ATOM
      1  C1        23.3920   69.2510   37.5250 C.3   3497  GLC3497     0.3024
      2  C2        24.6410   69.1700   36.6080 C.3   3497  GLC3497     0.2434
      3  C3        25.8220   68.6490   37.4440 C.3   3497  GLC3497     0.2199
      4  C4        26.0610   69.6250   38.5940 C.3   3497  GLC3497     0.2144
      5  C5        24.7700   69.7040   39.4530 C.3   3497  GLC3497     0.1836
      6  C6        24.9960   70.7070   40.6010 C.3   3497  GLC3497     0.2142
      7  O1        23.0590   67.9500   38.0320 O.3   3497  GLC3497    -0.1869
      8  O2        24.3860   68.2710   35.5260 O.3   3497  GLC3497    -0.2148
      9  O3        26.9920   68.5810   36.6330 O.3   3497  GLC3497    -0.2174
     10  O4        27.1570   69.1480   39.3930 O.3   3497  GLC3497    -0.2176
     11  O5        23.6550   70.1680   38.6330 O.3   3497  GLC3497    -0.3236
     12  O6        23.8190   70.8080   41.4030 O.3   3497  GLC3497    -0.2176
@<TRIPOS>BOND
     1     8     2    1
     2     2     3    1
     3     2     1    1
     4     9     3    1
     5     3     4    1
     6     1     7    1
     7     1    11    1
     8     4    10    1
     9     4     5    1
    10    11     5    1
    11     5     6    1
    12     6    12    1
