@<TRIPOS>MOLECULE
3czh_HEM_A_1.pdb
 43 50 0 0 0
SMALL
GASTEIGER

@<TRIPOS>ATOM
      1 FE        -53.9540   -1.0990  -33.2560 Fe    601  HEM601      0.0000
      2  CHA      -55.2110   -1.7780  -30.0190 C.2   601  HEM601      0.0000
      3  CHB      -53.5480   -4.5180  -33.7170 C.2   601  HEM601      0.0000
      4  CHC      -52.6050   -0.5140  -36.3380 C.2   601  HEM601      0.0000
      5  CHD      -54.1850    2.2550  -32.6450 C.2   601  HEM601      0.0000
      6  NA       -54.3050   -2.8330  -32.0760 N.ar  601  HEM601      0.0000
      7  C1A      -54.8410   -2.8740  -30.7950 C.ar  601  HEM601      0.0000
      8  C2A      -54.9450   -4.2650  -30.4070 C.ar  601  HEM601      0.0000
      9  C3A      -54.4840   -5.0100  -31.4110 C.ar  601  HEM601      0.0000
     10  C4A      -54.0740   -4.1270  -32.4950 C.ar  601  HEM601      0.0000
     11  CMA      -54.4080   -6.5580  -31.4100 C.3   601  HEM601      0.0000
     12  CAA      -55.4420   -4.8220  -29.0570 C.3   601  HEM601      0.0000
     13  CBA      -56.8380   -4.3740  -28.6770 C.3   601  HEM601      0.0000
     14  CGA      -57.1480   -5.0410  -27.3530 C.2   601  HEM601      0.0000
     15  O1A      -56.7610   -4.4700  -26.3150 O.co2 601  HEM601      0.0000
     16  O2A      -57.7630   -6.1430  -27.3230 O.co2 601  HEM601      0.0000
     17  NB       -53.1790   -2.3200  -34.7650 N.2   601  HEM601      0.0000
     18  C1B      -53.1390   -3.6970  -34.7610 C.2   601  HEM601      0.0000
     19  C2B      -52.5960   -4.1230  -36.0420 C.2   601  HEM601      0.0000
     20  C3B      -52.3290   -3.0100  -36.7770 C.2   601  HEM601      0.0000
     21  C4B      -52.7010   -1.8540  -35.9720 C.2   601  HEM601      0.0000
     22  CMB      -52.3800   -5.5940  -36.4430 C.3   601  HEM601      0.0000
     23  CAB      -51.7470   -2.8870  -38.2190 C.2   601  HEM601      0.0000
     24  CBB      -51.4040   -3.9350  -38.9690 C.2   601  HEM601      0.0000
     25  NC       -53.4810    0.5570  -34.2960 N.ar  601  HEM601      0.0000
     26  C1C      -52.9380    0.5910  -35.5640 C.ar  601  HEM601      0.0000
     27  C2C      -52.7970    1.9930  -35.9430 C.ar  601  HEM601      0.0000
     28  C3C      -53.2330    2.7580  -34.9090 C.ar  601  HEM601      0.0000
     29  C4C      -53.6790    1.8610  -33.8620 C.ar  601  HEM601      0.0000
     30  CMC      -52.2310    2.4550  -37.3070 C.3   601  HEM601      0.0000
     31  CAC      -53.3060    4.3030  -34.7600 C.2   601  HEM601      0.0000
     32  CBC      -52.9060    5.1330  -35.7100 C.2   601  HEM601      0.0000
     33  ND       -54.5970    0.0520  -31.5810 N.2   601  HEM601      0.0000
     34  C1D      -54.6030    1.4460  -31.6040 C.2   601  HEM601      0.0000
     35  C2D      -55.1140    1.9310  -30.3380 C.2   601  HEM601      0.0000
     36  C3D      -55.4350    0.6760  -29.5310 C.2   601  HEM601      0.0000
     37  C4D      -55.0840   -0.4450  -30.3680 C.2   601  HEM601      0.0000
     38  CMD      -55.2940    3.4130  -29.8830 C.3   601  HEM601      0.0000
     39  CAD      -56.0140    0.6400  -28.1110 C.3   601  HEM601      0.0000
     40  CBD      -57.4990    0.9740  -28.2060 C.3   601  HEM601      0.0000
     41  CGD      -58.1350    0.9230  -26.8470 C.2   601  HEM601      0.0000
     42  O1D      -59.3340    1.2520  -26.7300 O.co2 601  HEM601      0.0000
     43  O2D      -57.4450    0.5520  -25.8760 O.co2 601  HEM601      0.0000
@<TRIPOS>BOND
     1    24    23    2
     2    23    20    1
     3    30    27    1
     4    20    19    2
     5    20    21    1
     6    22    19    1
     7     4    21    2
     8     4    26    1
     9    19    18    1
    10    21    17    1
    11    27    26   ar
    12    27    28   ar
    13    32    31    2
    14    26    25   ar
    15    28    31    1
    16    28    29   ar
    17    17    18    2
    18    17     1    1
    19    18     3    1
    20    25    29   ar
    21    25     1    1
    22    29     5    1
    23     3    10    2
    24     1     6    1
    25     1    33    1
    26     5    34    2
    27    10     6   ar
    28    10     9   ar
    29     6     7   ar
    30    34    33    1
    31    34    35    1
    32    33    37    2
    33     9    11    1
    34     9     8   ar
    35     7     8   ar
    36     7     2    2
    37     8    12    1
    38    37     2    1
    39    37    36    1
    40    35    38    1
    41    35    36    2
    42    36    39    1
    43    12    13    1
    44    13    14    1
    45    40    39    1
    46    40    41    1
    47    14    16   ar
    48    14    15   ar
    49    41    42   ar
    50    41    43   ar
