@<TRIPOS>MOLECULE
3czh_D2V_A_1.pdb
 29 31 0 0 0
SMALL
GASTEIGER

@<TRIPOS>ATOM
      1  C1B      -49.7410   -2.4590  -30.7080 C.3   602  D2V602      0.0003
      2  C1W      -48.9890   -1.9590  -29.4510 C.3   602  D2V602      0.0040
      3  C1C      -47.5830   -1.4220  -29.7820 C.3   602  D2V602      0.0003
      4  C1X      -48.9580   -3.0480  -28.3450 C.3   602  D2V602      0.0217
      5  C1D      -48.5270   -4.3980  -28.9180 C.3   602  D2V602      0.0047
      6  C1J      -48.0000   -2.6450  -27.1550 C.2   602  D2V602     -0.0310
      7  C1K      -48.5450   -2.0100  -26.0560 C.2   602  D2V602     -0.0310
      8  C1Y      -47.7030   -1.5900  -24.8380 C.3   602  D2V602      0.0217
      9  C1E      -46.9830   -2.8010  -24.1610 C.3   602  D2V602      0.0047
     10  C2B      -46.7320   -0.4400  -25.2120 C.3   602  D2V602      0.0043
     11  C1Q      -47.4630    0.6950  -26.0140 C.3   602  D2V602      0.0007
     12  C1P      -47.0360    2.0220  -25.3430 C.3   602  D2V602      0.0040
     13  C2A      -45.7360    1.5890  -24.6560 C.3   602  D2V602      0.0183
     14  C2C      -46.2060    0.3040  -23.9650 C.3   602  D2V602      0.0038
     15  C1F      -47.3070    0.5460  -22.8910 C.3   602  D2V602      0.0003
     16  C1R      -45.0060   -0.3600  -23.3100 C.3   602  D2V602      0.0006
     17  C1L      -44.4770    0.5530  -22.1690 C.3   602  D2V602      0.0044
     18  C1M      -44.1250    1.9810  -22.6230 C.3   602  D2V602      0.0220
     19  C1V      -45.1520    2.5740  -23.6050 C.2   602  D2V602     -0.0446
     20  C1I      -45.5210    3.9300  -23.5650 C.2   602  D2V602     -0.0091
     21  C1H      -44.9980    4.8540  -22.6260 C.2   602  D2V602     -0.0091
     22  C1U      -45.3660    6.2220  -22.5420 C.2   602  D2V602     -0.0420
     23  C1S      -44.6900    7.0930  -21.4860 C.3   602  D2V602      0.0549
     24  C1Z      -43.9660    8.2800  -22.1760 C.3   602  D2V602      0.1560
     25  O1G      -42.7580    7.8420  -22.7490 O.3   602  D2V602     -0.2228
     26  C1O      -44.8630    8.9780  -23.2600 C.3   602  D2V602      0.0335
     27  C1N      -45.6410    8.0160  -24.2020 C.3   602  D2V602      0.0066
     28  C1T      -46.2240    6.8680  -23.4340 C.3   602  D2V602      0.0185
     29  C1A      -47.5510    6.5430  -23.6550 C.3   602  D2V602      0.0044
@<TRIPOS>BOND
     1     1     2    1
     2     3     2    1
     3     2     4    1
     4     5     4    1
     5     4     6    1
     6     6     7    2
     7     7     8    1
     8    11    12    1
     9    11    10    1
    10    12    13    1
    11    10     8    1
    12    10    14    1
    13     8     9    1
    14    13    14    1
    15    13    19    1
    16    27    28    1
    17    27    26    1
    18    14    16    1
    19    14    15    1
    20    29    28    1
    21    19    20    2
    22    19    18    1
    23    20    21    1
    24    28    22    1
    25    16    17    1
    26    26    24    1
    27    25    24    1
    28    21    22    2
    29    18    17    1
    30    22    23    1
    31    24    23    1
