@<TRIPOS>MOLECULE
3czj_149_A_1.pdb
 12 12 0 0 0
SMALL
GASTEIGER

@<TRIPOS>ATOM
      1  C1       -11.3540  -26.9560  -25.6520 C.2   2001  1492001     0.3505
      2  C2       -10.3670  -28.0320  -25.1870 C.3   2001  1492001     0.2823
      3  C3        -9.5730  -28.5710  -26.3780 C.3   2001  1492001     0.2270
      4  C4       -10.5320  -29.0180  -27.5000 C.3   2001  1492001     0.2276
      5  C5       -11.2330  -27.7650  -28.0650 C.3   2001  1492001     0.2344
      6  C6       -12.4050  -28.1530  -28.9710 C.3   2001  1492001     0.2281
      7  O1       -11.8180  -26.1850  -24.8560 O.2   2001  1492001    -0.2472
      8  O2        -9.4540  -27.4820  -24.2200 O.3   2001  1492001    -0.2082
      9  O3        -8.7930  -29.6790  -25.9450 O.3   2001  1492001    -0.2169
     10  O4       -11.5170  -29.9330  -26.9840 O.3   2001  1492001    -0.2163
     11  O5       -11.7440  -26.8790  -26.9800 O.3   2001  1492001    -0.4450
     12  O6       -11.9220  -28.8150  -30.1430 O.3   2001  1492001    -0.2163
@<TRIPOS>BOND
     1    12     6    1
     2     6     5    1
     3     5     4    1
     4     5    11    1
     5     4    10    1
     6     4     3    1
     7    11     1    1
     8     3     9    1
     9     3     2    1
    10     1     2    1
    11     1     7    2
    12     2     8    1
