@<TRIPOS>MOLECULE
3czk_SUC_A_1.pdb
 23 24 0 0 0
SMALL
GASTEIGER

@<TRIPOS>ATOM
      1  C1        23.4430   68.2850   36.9030 C.3   700  SUC700      0.2713
      2  C2        24.6010   68.6030   35.9060 C.3   700  SUC700      0.2406
      3  C3        25.9170   68.5440   36.7350 C.3   700  SUC700      0.2198
      4  C4        25.8320   69.6490   37.7890 C.3   700  SUC700      0.2144
      5  C5        24.6290   69.4070   38.6770 C.3   700  SUC700      0.1835
      6  C6        24.5570   70.5630   39.6670 C.3   700  SUC700      0.2142
      7  O1        23.7520   66.9770   37.5180 O.3   700  SUC700     -0.3033
      8  O2        24.6350   67.6030   34.8910 O.3   700  SUC700     -0.2149
      9  O3        27.0430   68.7990   35.9050 O.3   700  SUC700     -0.2174
     10  O4        27.0110   69.6590   38.6120 O.3   700  SUC700     -0.2176
     11  O5        23.4180   69.3610   37.8960 O.3   700  SUC700     -0.3256
     12  O6        24.0820   71.7120   39.0250 O.3   700  SUC700     -0.2176
     13  C1'       21.8270   67.0200   38.7630 C.3   700  SUC700      0.2406
     14  C2'       23.2090   66.3720   38.4630 C.3   700  SUC700      0.2516
     15  C3'       22.9540   64.9140   37.9790 C.3   700  SUC700      0.2381
     16  C4'       23.2000   64.0640   39.2710 C.3   700  SUC700      0.2167
     17  C5'       24.2600   64.9100   40.0180 C.3   700  SUC700      0.1835
     18  C6'       25.6850   64.4950   39.5990 C.3   700  SUC700      0.2142
     19  O1'       20.8000   66.4410   37.9720 O.3   700  SUC700     -0.2149
     20  O2'       23.9830   66.2840   39.6760 O.3   700  SUC700     -0.3272
     21  O3'       23.8840   64.5220   36.9580 O.3   700  SUC700     -0.2150
     22  O4'       22.0040   63.9710   40.0650 O.3   700  SUC700     -0.2175
     23  O6'       26.3110   63.7690   40.6550 O.3   700  SUC700     -0.2176
@<TRIPOS>BOND
     1     8     2    1
     2     9     3    1
     3     2     3    1
     4     2     1    1
     5     3     4    1
     6     1     7    1
     7     1    11    1
     8    21    15    1
     9     7    14    1
    10     4    10    1
    11     4     5    1
    12    11     5    1
    13    19    13    1
    14    15    14    1
    15    15    16    1
    16    14    13    1
    17    14    20    1
    18     5     6    1
    19    12     6    1
    20    16    17    1
    21    16    22    1
    22    18    17    1
    23    18    23    1
    24    20    17    1
