@<TRIPOS>MOLECULE
3czl_GLC_A_1.pdb
 12 12 0 0 0
SMALL
GASTEIGER

@<TRIPOS>ATOM
      1  C1        23.4820   69.1960   37.3740 C.3   3497  GLC3497     0.3024
      2  C2        24.7130   69.1150   36.4260 C.3   3497  GLC3497     0.2434
      3  C3        25.9390   68.6960   37.2490 C.3   3497  GLC3497     0.2199
      4  C4        26.1650   69.7440   38.3450 C.3   3497  GLC3497     0.2144
      5  C5        24.9050   69.8230   39.2380 C.3   3497  GLC3497     0.1836
      6  C6        25.1450   70.9180   40.3140 C.3   3497  GLC3497     0.2142
      7  O1        23.2060   67.9310   37.9540 O.3   3497  GLC3497    -0.1869
      8  O2        24.4770   68.1420   35.4050 O.3   3497  GLC3497    -0.2148
      9  O3        27.0770   68.6400   36.3850 O.3   3497  GLC3497    -0.2174
     10  O4        27.3140   69.3650   39.1630 O.3   3497  GLC3497    -0.2176
     11  O5        23.7330   70.1870   38.4190 O.3   3497  GLC3497    -0.3236
     12  O6        24.0120   71.0450   41.1520 O.3   3497  GLC3497    -0.2176
@<TRIPOS>BOND
     1     8     2    1
     2     9     3    1
     3     2     3    1
     4     2     1    1
     5     3     4    1
     6     1     7    1
     7     1    11    1
     8     4    10    1
     9     4     5    1
    10    11     5    1
    11     5     6    1
    12     6    12    1
