@<TRIPOS>MOLECULE
3czm_NAD_A_1.pdb
 44 48 0 0 0
SMALL
GASTEIGER

@<TRIPOS>ATOM
      1  PA        36.7710   64.9540   65.0630 P.3   401  NAD401      0.2189
      2  O1A       36.6540   66.2290   64.4640 O.2   401  NAD401     -0.5170
      3  O2A       36.6370   64.8590   66.5630 O.3   401  NAD401     -0.4371
      4  O5B       35.7100   63.9930   64.3670 O.3   401  NAD401     -0.3112
      5  C5B       35.5800   62.6420   64.8470 C.3   401  NAD401      0.1813
      6  C4B       34.0540   62.4360   64.7130 C.3   401  NAD401      0.1821
      7  O4B       33.7990   61.0210   65.0760 O.3   401  NAD401     -0.3135
      8  C3B       33.2020   63.2100   65.7480 C.3   401  NAD401      0.2184
      9  O3B       32.3820   64.0720   64.9570 O.3   401  NAD401     -0.2174
     10  C2B       32.4040   62.1380   66.4810 C.3   401  NAD401      0.2570
     11  O2B       31.0620   62.4860   66.7960 O.3   401  NAD401     -0.2130
     12  C1B       32.4720   60.9400   65.4920 C.3   401  NAD401      0.3186
     13  N9A       32.1670   59.6960   66.1780 N.pl3 401  NAD401     -0.1439
     14  C8A       32.4550   59.2430   67.4520 C.3   401  NAD401      0.3377
     15  N7A       31.9930   58.0310   67.7160 N.2   401  NAD401     -0.2095
     16  C5A       31.3610   57.6780   66.5330 C.2   401  NAD401      0.2526
     17  C6A       30.6730   56.5070   66.1960 C.2   401  NAD401      0.4393
     18  N6A       30.4700   55.4330   66.9850 N.pl3 401  NAD401      0.2180
     19  N1A       30.1290   56.4360   64.8920 N.2   401  NAD401      0.0021
     20  C2A       30.2730   57.4980   63.9800 C.3   401  NAD401      0.5254
     21  N3A       30.9450   58.6670   64.2940 N.2   401  NAD401     -0.0055
     22  C4A       31.4720   58.7100   65.5790 C.2   401  NAD401      0.3518
     23  O3        38.1610   64.3310   64.6750 O.3   401  NAD401     -0.2703
     24  PN        39.0240   64.3680   63.3580 P.3   401  NAD401      0.2189
     25  O1N       39.9140   65.5380   63.3740 O.3   401  NAD401     -0.4371
     26  O2N       38.0560   64.2820   62.2330 O.2   401  NAD401     -0.5170
     27  O5D       39.9150   63.0540   63.5080 O.3   401  NAD401     -0.3112
     28  C5D       39.2340   61.7510   63.4740 C.3   401  NAD401      0.1813
     29  C4D       40.2260   60.6420   63.7660 C.3   401  NAD401      0.1799
     30  O4D       41.2830   60.6650   62.7880 O.3   401  NAD401     -0.3327
     31  C3D       40.9560   60.7190   65.1520 C.3   401  NAD401      0.2158
     32  O3D       40.8750   59.4440   65.8100 O.3   401  NAD401     -0.2175
     33  C2D       42.3800   61.0790   64.7850 C.3   401  NAD401      0.2309
     34  O2D       43.3080   60.6130   65.7450 O.3   401  NAD401     -0.2158
     35  C1D       42.5350   60.4040   63.4810 C.3   401  NAD401      0.2263
     36  N1N       43.5580   60.9080   62.5320 N.pl3 401  NAD401     -0.2787
     37  C2N       44.3780   60.0220   61.8120 C.3   401  NAD401      0.1244
     38  C3N       45.3120   60.5410   60.9330 C.2   401  NAD401      0.0544
     39  C7N       46.1960   59.5640   60.1480 C.2   401  NAD401      0.2818
     40  O7N       47.1300   60.0480   59.5490 O.2   401  NAD401     -0.2670
     41  N7N       45.9440   58.2770   60.1310 N.am  401  NAD401     -0.0839
     42  C4N       45.4620   61.9900   60.7390 C.2   401  NAD401      0.0033
     43  C5N       44.6140   62.8520   61.4910 C.2   401  NAD401      0.0157
     44  C6N       43.6480   62.3310   62.3980 C.2   401  NAD401      0.0633
@<TRIPOS>BOND
     1    40    39    2
     2    41    39   am
     3    39    38    1
     4    42    38    2
     5    42    43    1
     6    38    37    1
     7    43    44    2
     8    37    36    1
     9    26    24    2
    10    44    36    1
    11    36    35    1
    12    30    35    1
    13    30    29    1
    14    24    25    1
    15    24    27    1
    16    24    23    1
    17    28    27    1
    18    28    29    1
    19    35    33    1
    20    29    31    1
    21    20    21    1
    22    20    19    1
    23    21    22    2
    24     4     5    1
    25     4     1    1
    26     2     1    2
    27    23     1    1
    28     6     5    1
    29     6     7    1
    30     6     8    1
    31    33    31    1
    32    33    34    1
    33    19    17    2
    34     9     8    1
    35     1     3    1
    36     7    12    1
    37    31    32    1
    38    12    13    1
    39    12    10    1
    40    22    13    1
    41    22    16    1
    42     8    10    1
    43    13    14    1
    44    17    16    1
    45    17    18    1
    46    10    11    1
    47    16    15    2
    48    14    15    1
