@<TRIPOS>MOLECULE
3czr_NAP_A_1.pdb
 48 52 0 0 0
SMALL
GASTEIGER

@<TRIPOS>ATOM
      1  PA        46.9520  -30.4060   50.4220 P.3     1  NAP1        0.2189
      2  O1A       46.0210  -30.1230   51.5420 O.3     1  NAP1       -0.4371
      3  O2A       48.0490  -31.3660   50.6400 O.2     1  NAP1       -0.5170
      4  O5B       46.0020  -30.7750   49.1670 O.3     1  NAP1       -0.3112
      5  C5B       46.5850  -31.2750   47.9720 C.3     1  NAP1        0.1813
      6  C4B       45.4720  -31.7480   47.0350 C.3     1  NAP1        0.1820
      7  O4B       46.0780  -32.1610   45.8290 O.3     1  NAP1       -0.3136
      8  C3B       44.7370  -32.9810   47.5460 C.3     1  NAP1        0.2157
      9  O3B       43.3660  -32.9120   47.2270 O.3     1  NAP1       -0.2175
     10  C2B       45.3730  -34.1430   46.8150 C.3     1  NAP1        0.2314
     11  O2B       44.4910  -35.2470   46.6520 O.3     1  NAP1       -0.2630
     12  C1B       45.7550  -33.4950   45.5010 C.3     1  NAP1        0.3158
     13  N9A       46.8750  -34.1870   44.8330 N.pl3   1  NAP1       -0.1439
     14  C8A       48.0830  -34.6020   45.3470 C.3     1  NAP1        0.3377
     15  N7A       48.7840  -35.2130   44.3460 N.2     1  NAP1       -0.2095
     16  C5A       48.0400  -35.1800   43.2120 C.2     1  NAP1        0.2526
     17  C6A       48.2610  -35.6520   41.9140 C.2     1  NAP1        0.4393
     18  N6A       49.4030  -36.2810   41.5640 N.pl3   1  NAP1        0.2180
     19  N1A       47.2750  -35.4580   40.9740 N.2     1  NAP1        0.0021
     20  C2A       46.0810  -34.8300   41.2890 C.3     1  NAP1        0.5254
     21  N3A       45.8800  -34.3550   42.5670 N.2     1  NAP1       -0.0055
     22  C4A       46.8480  -34.5390   43.5030 C.2     1  NAP1        0.3518
     23  O3        47.7110  -29.0440   50.0440 O.3     1  NAP1       -0.2703
     24  PN        47.4120  -27.5250   50.4480 P.3     1  NAP1        0.2189
     25  O1N       45.9730  -27.2340   50.6230 O.2     1  NAP1       -0.5170
     26  O2N       48.4200  -27.2450   51.4770 O.3     1  NAP1       -0.4371
     27  O5D       47.9060  -26.7840   49.0960 O.3     1  NAP1       -0.3112
     28  C5D       47.0160  -26.2210   48.1390 C.3     1  NAP1        0.1813
     29  C4D       47.7600  -25.1710   47.2890 C.3     1  NAP1        0.1799
     30  O4D       48.1520  -24.0920   48.1340 O.3     1  NAP1       -0.3327
     31  C3D       49.0380  -25.7110   46.6430 C.3     1  NAP1        0.2158
     32  O3D       49.2180  -25.2650   45.3080 O.3     1  NAP1       -0.2175
     33  C2D       50.1360  -25.1230   47.4690 C.3     1  NAP1        0.2309
     34  O2D       51.3570  -24.9790   46.7600 O.3     1  NAP1       -0.2158
     35  C1D       49.5000  -23.8120   47.8630 C.3     1  NAP1        0.2263
     36  N1N       50.1760  -23.3850   49.0660 N.pl3   1  NAP1       -0.2787
     37  C2N       49.8870  -23.9960   50.2640 C.3     1  NAP1        0.1244
     38  C3N       50.5790  -23.5690   51.3820 C.2     1  NAP1        0.0544
     39  C7N       50.3270  -24.1710   52.7400 C.2     1  NAP1        0.2818
     40  O7N       51.2810  -23.8740   53.7190 O.2     1  NAP1       -0.2670
     41  N7N       49.2630  -24.9520   52.9960 N.am    1  NAP1       -0.0839
     42  C4N       51.5280  -22.5610   51.2670 C.2     1  NAP1        0.0033
     43  C5N       51.8190  -21.9540   50.0380 C.2     1  NAP1        0.0157
     44  C6N       51.1220  -22.4000   48.9280 C.2     1  NAP1        0.0633
     45  P2B       45.0790  -36.7560   46.4720 P.3     1  NAP1        0.5328
     46  O1X       43.9640  -37.6820   46.8630 O.3     1  NAP1       -0.1145
     47  O2X       45.4890  -37.0180   45.0540 O.2     1  NAP1       -0.2224
     48  O3X       46.3350  -36.9560   47.2730 O.3     1  NAP1       -0.1145
@<TRIPOS>BOND
     1    19    20    1
     2    19    17    2
     3    20    21    1
     4    18    17    1
     5    17    16    1
     6    21    22    2
     7    16    22    1
     8    16    15    2
     9    22    13    1
    10    15    14    1
    11    13    14    1
    12    13    12    1
    13    47    45    2
    14    32    31    1
    15    12     7    1
    16    12    10    1
    17     7     6    1
    18    45    11    1
    19    45    46    1
    20    45    48    1
    21    31    29    1
    22    31    33    1
    23    11    10    1
    24    34    33    1
    25    10     8    1
    26     6     8    1
    27     6     5    1
    28     9     8    1
    29    29    30    1
    30    29    28    1
    31    33    35    1
    32    35    30    1
    33    35    36    1
    34     5     4    1
    35    28    27    1
    36    44    36    1
    37    44    43    2
    38    36    37    1
    39    27    24    1
    40     4     1    1
    41    43    42    1
    42    23     1    1
    43    23    24    1
    44    37    38    1
    45     1     3    2
    46     1     2    1
    47    24    25    2
    48    24    26    1
    49    42    38    2
    50    38    39    1
    51    39    41   am
    52    39    40    2
