@<TRIPOS>MOLECULE
3czr_3CZ_A_1.pdb
 29 31 0 0 0
SMALL
GASTEIGER

@<TRIPOS>ATOM
      1  O3        64.0090  -24.5730   56.6100 O.2   293  3CZ293     -0.1261
      2  N2        62.8510  -24.7660   57.0190 N.pl3 293  3CZ293      0.0577
      3  O4        62.5510  -25.4110   58.0190 O.2   293  3CZ293     -0.1261
      4  C5        61.7460  -24.1780   56.2920 C.ar  293  3CZ293      0.1430
      5  C12       60.4610  -24.1790   56.8490 C.ar  293  3CZ293      0.0253
      6  C14       59.4370  -23.6110   56.1160 C.ar  293  3CZ293      0.0162
      7  C13       62.0160  -23.6310   55.0470 C.ar  293  3CZ293      0.0253
      8  C15       60.9880  -23.0720   54.3330 C.ar  293  3CZ293      0.0162
      9  C6        59.6810  -23.0500   54.8390 C.ar  293  3CZ293      0.0480
     10  N3        58.6740  -22.4400   54.1060 N.pl3 293  3CZ293     -0.3046
     11  C4        57.3130  -22.4170   54.6500 C.3   293  3CZ293      0.1084
     12  C1        56.6050  -21.1240   54.2220 C.3   293  3CZ293      0.0993
     13  C22       57.1460  -19.8760   54.9330 C.3   293  3CZ293      0.0210
     14  C7        58.7630  -22.3430   52.6440 C.3   293  3CZ293      0.1099
     15  C2        58.0520  -21.0740   52.1740 C.3   293  3CZ293      0.1172
     16  N1        56.7100  -20.9840   52.7420 N.3   293  3CZ293     -0.1535
     17  S1        55.4110  -21.3650   51.7930 S.O2  293  3CZ293      0.0633
     18  O1        55.8890  -21.0080   50.4600 O.2   293  3CZ293     -0.1528
     19  O2        54.1780  -20.8430   52.4010 O.2   293  3CZ293     -0.1528
     20  C3        55.2980  -23.1650   51.8280 C.ar  293  3CZ293      0.1222
     21  C10       54.3800  -23.8110   52.6820 C.ar  293  3CZ293      0.0196
     22  C17       54.3500  -25.2130   52.6880 C.ar  293  3CZ293     -0.0029
     23  C11       56.1580  -23.9150   51.0050 C.ar  293  3CZ293      0.0196
     24  C16       56.1070  -25.3130   51.0420 C.ar  293  3CZ293     -0.0029
     25  C9        55.1950  -25.9890   51.8700 C.ar  293  3CZ293     -0.0227
     26  C8        55.1930  -27.5320   51.8950 C.3   293  3CZ293      0.0189
     27  C21       54.8560  -28.1760   50.5200 C.3   293  3CZ293      0.0044
     28  C20       56.6190  -27.9590   52.3250 C.3   293  3CZ293      0.0044
     29  C19       54.1980  -28.0600   52.9380 C.3   293  3CZ293      0.0044
@<TRIPOS>BOND
     1    18    17    2
     2    27    26    1
     3    23    24   ar
     4    23    20   ar
     5    24    25   ar
     6    17    20    1
     7    17    19    2
     8    17    16    1
     9    20    21   ar
    10    25    26    1
    11    25    22   ar
    12    26    28    1
    13    26    29    1
    14    15    14    1
    15    15    16    1
    16    14    10    1
    17    21    22   ar
    18    16    12    1
    19    10    11    1
    20    10     9    1
    21    12    11    1
    22    12    13    1
    23     8     9   ar
    24     8     7   ar
    25     9     6   ar
    26     7     4   ar
    27     6     5   ar
    28     4     5   ar
    29     4     2    1
    30     1     2    2
    31     2     3    2
