@<TRIPOS>MOLECULE
3czs_MAN_A_1.pdb
 12 12 0 0 0
SMALL
GASTEIGER

@<TRIPOS>ATOM
      1  C1        30.9100   65.8780    9.4970 C.3   4499  MAN4499     0.3024
      2  C2        32.3930   66.0080    9.0700 C.3   4499  MAN4499     0.2434
      3  C3        32.6730   66.6410    7.7020 C.3   4499  MAN4499     0.2199
      4  C4        31.5120   66.5250    6.6950 C.3   4499  MAN4499     0.2144
      5  C5        30.1400   66.6670    7.3600 C.3   4499  MAN4499     0.1836
      6  C6        28.9920   66.4550    6.3750 C.3   4499  MAN4499     0.2142
      7  O1        30.5350   67.0090   10.2530 O.3   4499  MAN4499    -0.1869
      8  O2        33.1470   64.8040    9.1320 O.3   4499  MAN4499    -0.2148
      9  O3        33.8420   66.0070    7.1980 O.3   4499  MAN4499    -0.2174
     10  O4        31.6310   67.5010    5.6740 O.3   4499  MAN4499    -0.2176
     11  O5        30.0140   65.7160    8.4020 O.3   4499  MAN4499    -0.3236
     12  O6        27.7580   66.6550    7.0330 O.3   4499  MAN4499    -0.2176
@<TRIPOS>BOND
     1    10     4    1
     2     6    12    1
     3     6     5    1
     4     4     5    1
     5     4     3    1
     6     9     3    1
     7     5    11    1
     8     3     2    1
     9    11     1    1
    10     2     8    1
    11     2     1    1
    12     1     7    1
