@<TRIPOS>MOLECULE
3czv_AZM_A_1.pdb
 13 13 0 0 0
SMALL
GASTEIGER

@<TRIPOS>ATOM
      1  C1        33.8190   59.3640   18.1560 C.ar  263  AZM263      0.2590
      2  C2        35.4080   60.0500   19.7330 C.ar  263  AZM263      0.2093
      3  C3        36.0940   61.9150   21.1990 C.2   263  AZM263      0.2478
      4  C4        37.3070   62.4470   21.8940 C.3   263  AZM263      0.0969
      5  N1        33.0630   59.1140   15.5560 N.3   263  AZM263      0.0413
      6  N2        35.6360   58.8370   19.2900 N.ar  263  AZM263     -0.1222
      7  N3        34.6980   58.4400   18.3630 N.ar  263  AZM263     -0.1189
      8  N4        36.2400   60.6350   20.6680 N.am  263  AZM263     -0.1528
      9  O1        31.9450   57.8730   17.3260 O.2   263  AZM263     -0.1483
     10  O2        31.6640   60.3250   17.1420 O.2   263  AZM263     -0.1483
     11  O3        35.0410   62.5320   21.0950 O.2   263  AZM263     -0.2729
     12  S1        32.4740   59.1560   17.0090 S.O2  263  AZM263      0.1178
     13  S2        34.0170   60.8120   19.0530 S.2   263  AZM263     -0.0087
@<TRIPOS>BOND
     1     5    12    1
     2    12    10    2
     3    12     9    2
     4    12     1    1
     5     1     7   ar
     6     1    13   ar
     7     7     6   ar
     8    13     2   ar
     9     6     2   ar
    10     2     8    1
    11     8     3   am
    12    11     3    2
    13     3     4    1
