@<TRIPOS>MOLECULE
3czy_AD8_A_1.pdb
 18 21 0 0 0
SMALL
GASTEIGER

@<TRIPOS>ATOM
      1  N          5.6060  -18.6190    1.0760 N.ar  901  AD8901     -0.3006
      2  CAQ        6.4030  -19.2510    0.2110 C.ar  901  AD8901      0.1790
      3  NAP        6.1140  -18.7910   -1.0170 N.ar  901  AD8901     -0.2223
      4  CAO        5.1550  -17.8470   -0.9290 C.ar  901  AD8901      0.1193
      5  CAN        4.8210  -17.7540    0.4070 C.ar  901  AD8901      0.0984
      6  CA         5.5910  -18.8710    2.5080 C.3   901  AD8901      0.1720
      7  C          4.6450  -20.0240    2.7690 C.2   901  AD8901      0.1726
      8  O          4.0180  -20.5210    1.8360 O.2   901  AD8901     -0.2940
      9  CAE        4.4370  -20.5670    4.1680 C.3   901  AD8901      0.0534
     10  CAF        4.4920  -22.1050    4.1540 C.3   901  AD8901      0.0070
     11  CAI        3.0680  -20.0640    4.6520 C.3   901  AD8901      0.0070
     12  CAD        5.5250  -20.0240    5.1050 C.3   901  AD8901      0.0070
     13  CAC        5.3070  -20.5740    6.5190 C.3   901  AD8901      0.0004
     14  CAB        5.3010  -22.1130    6.4910 C.3   901  AD8901      0.0000
     15  CAH        3.9550  -20.0730    7.0190 C.3   901  AD8901      0.0000
     16  CAJ        2.8330  -20.5540    6.0880 C.3   901  AD8901      0.0004
     17  CAG        2.8380  -22.0860    6.0500 C.3   901  AD8901      0.0000
     18  CAA        4.1890  -22.6390    5.5660 C.3   901  AD8901      0.0004
@<TRIPOS>BOND
     1     3     4   ar
     2     3     2   ar
     3     4     5   ar
     4     2     1   ar
     5     5     1   ar
     6     1     6    1
     7     8     7    2
     8     6     7    1
     9     7     9    1
    10    10     9    1
    11    10    18    1
    12     9    11    1
    13     9    12    1
    14    11    16    1
    15    12    13    1
    16    18    17    1
    17    18    14    1
    18    17    16    1
    19    16    15    1
    20    14    13    1
    21    13    15    1
