@<TRIPOS>MOLECULE
3czy_HEM_A_1.pdb
 43 50 0 0 0
SMALL
GASTEIGER

@<TRIPOS>ATOM
      1 FE          6.5650  -19.7890   -2.7650 Fe    300  HEM300      0.0000
      2  CHA        7.8870  -16.9000   -4.0070 C.2   300  HEM300      0.0000
      3  CHB        3.5430  -19.0170   -4.2370 C.2   300  HEM300      0.0000
      4  CHC        5.1450  -22.5480   -1.3430 C.2   300  HEM300      0.0000
      5  CHD        9.6410  -20.7460   -1.5950 C.2   300  HEM300      0.0000
      6  NA         5.8540  -18.2480   -3.8860 N.ar  300  HEM300      0.0000
      7  C1A        6.5760  -17.1580   -4.3200 C.ar  300  HEM300      0.0000
      8  C2A        5.7320  -16.3350   -5.1780 C.ar  300  HEM300      0.0000
      9  C3A        4.5360  -16.9400   -5.2230 C.ar  300  HEM300      0.0000
     10  C4A        4.5890  -18.1470   -4.4210 C.ar  300  HEM300      0.0000
     11  CMA        3.2790  -16.4840   -6.0040 C.3   300  HEM300      0.0000
     12  CAA        6.1340  -15.0050   -5.8990 C.3   300  HEM300      0.0000
     13  CBA        7.5640  -15.0350   -6.4430 C.3   300  HEM300      0.0000
     14  CGA        8.2810  -13.7090   -6.2920 C.2   300  HEM300      0.0000
     15  O1A        7.9170  -12.7600   -7.0420 O.co2 300  HEM300      0.0000
     16  O2A        9.2170  -13.5900   -5.4350 O.co2 300  HEM300      0.0000
     17  NB         4.6850  -20.6260   -2.7960 N.2   300  HEM300      0.0000
     18  C1B        3.5640  -20.1280   -3.4290 C.2   300  HEM300      0.0000
     19  C2B        2.4380  -20.9850   -3.1180 C.2   300  HEM300      0.0000
     20  C3B        2.8800  -21.9660   -2.3180 C.2   300  HEM300      0.0000
     21  C4B        4.3070  -21.7630   -2.1050 C.2   300  HEM300      0.0000
     22  CMB        0.9860  -20.7800   -3.6330 C.3   300  HEM300      0.0000
     23  CAB        2.0460  -23.1160   -1.7110 C.2   300  HEM300      0.0000
     24  CBB        1.1160  -22.8260   -0.7940 C.2   300  HEM300      0.0000
     25  NC         7.2820  -21.3480   -1.6990 N.ar  300  HEM300      0.0000
     26  C1C        6.5030  -22.3650   -1.1670 C.ar  300  HEM300      0.0000
     27  C2C        7.3770  -23.2050   -0.3740 C.ar  300  HEM300      0.0000
     28  C3C        8.6190  -22.7170   -0.4500 C.ar  300  HEM300      0.0000
     29  C4C        8.5700  -21.5250   -1.2720 C.ar  300  HEM300      0.0000
     30  CMC        6.9380  -24.4670    0.4090 C.3   300  HEM300      0.0000
     31  CAC        9.8840  -23.2790    0.2300 C.2   300  HEM300      0.0000
     32  CBC       10.5860  -22.4980    1.0490 C.2   300  HEM300      0.0000
     33  ND         8.4420  -18.9790   -2.8040 N.2   300  HEM300      0.0000
     34  C1D        9.5730  -19.5460   -2.2600 C.2   300  HEM300      0.0000
     35  C2D       10.7100  -18.7000   -2.4950 C.2   300  HEM300      0.0000
     36  C3D       10.1760  -17.4990   -3.2470 C.2   300  HEM300      0.0000
     37  C4D        8.7580  -17.7560   -3.3860 C.2   300  HEM300      0.0000
     38  CMD       12.1800  -18.9370   -2.0900 C.3   300  HEM300      0.0000
     39  CAD       10.9960  -16.2890   -3.7520 C.3   300  HEM300      0.0000
     40  CBD       11.3220  -16.5990   -5.2130 C.3   300  HEM300      0.0000
     41  CGD       12.1980  -15.5540   -5.8560 C.2   300  HEM300      0.0000
     42  O1D       13.3450  -15.8820   -6.2420 O.co2 300  HEM300      0.0000
     43  O2D       11.7260  -14.4010   -6.0170 O.co2 300  HEM300      0.0000
@<TRIPOS>BOND
     1    15    14   ar
     2    13    14    1
     3    13    12    1
     4    14    16   ar
     5    42    41   ar
     6    43    41   ar
     7    11     9    1
     8    12     8    1
     9    41    40    1
    10     9     8   ar
    11     9    10   ar
    12    40    39    1
    13     8     7   ar
    14    10     3    2
    15    10     6   ar
    16     7     2    2
    17     7     6   ar
    18     3    18    1
    19     2    37    1
    20     6     1    1
    21    39    36    1
    22    22    19    1
    23    18    19    1
    24    18    17    2
    25    37    36    1
    26    37    33    2
    27    36    35    2
    28    19    20    2
    29    33     1    1
    30    33    34    1
    31    17     1    1
    32    17    21    1
    33     1    25    1
    34    35    34    1
    35    35    38    1
    36    20    21    1
    37    20    23    1
    38    34     5    2
    39    21     4    2
    40    23    24    2
    41    25    29   ar
    42    25    26   ar
    43     5    29    1
    44     4    26    1
    45    29    28   ar
    46    26    27   ar
    47    28    27   ar
    48    28    31    1
    49    27    30    1
    50    31    32    2
