@<TRIPOS>MOLECULE
3d04_SAK_A_1.pdb
 21 23 0 0 0
SMALL
GASTEIGER

@<TRIPOS>ATOM
      1  CAG       18.8810   16.1720  -11.4600 C.ar  163  SAK163      0.0025
      2  CAE       20.2100   15.9740  -11.8670 C.ar  163  SAK163      0.0418
      3  CAO       20.6550   14.6630  -12.1770 C.ar  163  SAK163      0.1957
      4  OAC       21.9350   14.4710  -12.5680 O.3   163  SAK163     -0.2866
      5  CAF       19.7880   13.5510  -12.0930 C.ar  163  SAK163      0.0418
      6  CAH       18.4530   13.7520  -11.6760 C.ar  163  SAK163      0.0025
      7  CAR       18.0100   15.0620  -11.3670 C.ar  163  SAK163      0.0178
      8  CAU       16.5580   15.3070  -10.9290 C.3   163  SAK163      0.1958
      9  OAM       15.7740   15.9290  -11.9950 O.3   163  SAK163     -0.4740
     10  CAK       15.8560   14.0000  -10.5120 C.3   163  SAK163      0.1174
     11  CAN       14.3840   14.3160  -10.2210 C.2   163  SAK163      0.1831
     12  OAB       13.8360   13.5720   -9.4000 O.2   163  SAK163     -0.2910
     13  CAT       13.6950   15.3690  -10.8350 C.ar  163  SAK163      0.1078
     14  CAS       14.4500   16.1820  -11.7210 C.ar  163  SAK163      0.1477
     15  CAJ       13.8440   17.2710  -12.3780 C.ar  163  SAK163      0.0741
     16  CAP       12.4830   17.5630  -12.1530 C.ar  163  SAK163      0.1450
     17  OAL       11.9730   18.6230  -12.8610 O.3   163  SAK163     -0.4712
     18  CAA       10.7520   19.2670  -12.4390 C.3   163  SAK163      0.2525
     19  CAI       11.7340   16.7550  -11.2730 C.ar  163  SAK163      0.0792
     20  CAQ       12.3260   15.6620  -10.6220 C.ar  163  SAK163      0.2044
     21  OAD       11.5240   14.9420   -9.7860 O.3   163  SAK163     -0.2863
@<TRIPOS>BOND
     1    17    18    1
     2    17    16    1
     3     4     3    1
     4    15    16   ar
     5    15    14   ar
     6     3     5   ar
     7     3     2   ar
     8    16    19   ar
     9     5     6   ar
    10     9    14    1
    11     9     8    1
    12     2     1   ar
    13    14    13   ar
    14     6     7   ar
    15     1     7   ar
    16     7     8    1
    17    19    20   ar
    18     8    10    1
    19    13    20   ar
    20    13    11    1
    21    20    21    1
    22    10    11    1
    23    11    12    2
