@<TRIPOS>MOLECULE
3d0b_SNX_A_1.pdb
 28 31 0 0 0
SMALL
GASTEIGER

@<TRIPOS>ATOM
      1  O23       -1.8740  -10.7690  -25.7390 O.2   233  SNX233     -0.2666
      2  C21       -1.5310  -11.3250  -24.7030 C.2   233  SNX233      0.2854
      3  N22       -2.4140  -11.8260  -23.8380 N.am  233  SNX233     -0.0837
      4  C18       -0.0630  -11.5390  -24.4880 C.ar  233  SNX233      0.0716
      5  C17        0.3810  -12.5950  -23.6970 C.ar  233  SNX233      0.0074
      6  C16        1.7530  -12.8120  -23.5350 C.ar  233  SNX233      0.0177
      7  C19        0.9270  -10.6790  -25.1810 C.ar  233  SNX233      0.0713
      8  N24        0.5270   -9.6410  -25.9810 N.pl3 233  SNX233     -0.2347
      9  C25        1.4850   -8.7870  -26.6830 C.3   233  SNX233      0.1442
     10  C26        0.8090   -7.7510  -27.5810 C.3   233  SNX233      0.1655
     11  O27       -0.1760   -7.0500  -26.8170 O.3   233  SNX233     -0.3492
     12  C28       -0.1290   -5.6330  -26.9620 C.3   233  SNX233      0.1742
     13  C20        2.2790  -10.9690  -24.9680 C.ar  233  SNX233      0.0337
     14  C15        2.7350  -12.0110  -24.1490 C.ar  233  SNX233      0.0650
     15  N7         4.0560  -12.2380  -24.0700 N.ar  233  SNX233     -0.3098
     16  C1         4.9860  -11.3710  -23.6050 C.ar  233  SNX233      0.0638
     17  C6         4.9570  -10.1250  -22.9820 C.ar  233  SNX233      0.0175
     18  C5         6.1850   -9.5600  -22.5960 C.ar  233  SNX233      0.0015
     19  C4         7.4130  -10.1970  -22.8090 C.ar  233  SNX233      0.0001
     20  C3         7.5090  -11.4460  -23.4230 C.ar  233  SNX233      0.0016
     21  C8         4.5220  -13.3670  -24.6490 C.ar  233  SNX233      0.0441
     22  C13        3.8300  -14.5500  -25.2880 C.3   233  SNX233      0.0447
     23  C12        4.8560  -15.4580  -25.9860 C.3   233  SNX233      0.0144
     24  C11        6.1980  -15.6650  -25.2850 C.3   233  SNX233      0.0696
     25  C10        6.8930  -14.3660  -24.9490 C.2   233  SNX233      0.1742
     26  O14        8.0950  -14.2160  -25.0670 O.2   233  SNX233     -0.2913
     27  C9         5.9720  -13.2980  -24.4900 C.ar  233  SNX233      0.0481
     28  C2         6.3110  -12.0310  -23.8220 C.ar  233  SNX233      0.0200
@<TRIPOS>BOND
     1    10    11    1
     2    10     9    1
     3    12    11    1
     4     9     8    1
     5    23    22    1
     6    23    24    1
     7     8     7    1
     8     1     2    2
     9    22    21    1
    10    24    25    1
    11     7    13   ar
    12     7     4   ar
    13    26    25    2
    14    13    14   ar
    15    25    27    1
    16     2     4    1
    17     2     3   am
    18    21    27   ar
    19    21    15   ar
    20    27    28   ar
    21     4     5   ar
    22    14    15    1
    23    14     6   ar
    24    15    16   ar
    25    28    16   ar
    26    28    20   ar
    27     5     6   ar
    28    16    17   ar
    29    20    19   ar
    30    17    18   ar
    31    19    18   ar
