@<TRIPOS>MOLECULE
3d0e_G93_A_1.pdb
 31 34 0 0 0
SMALL
GASTEIGER

@<TRIPOS>ATOM
      1  C3        23.4950  -17.2510    5.4310 C.1     1  G931       -0.0405
      2  N2        22.3560  -18.5990    9.7030 N.pl3   1  G931       -0.2715
      3  N3        22.8530  -16.8290    8.3640 N.2     1  G931       -0.3852
      4  C2        23.2300  -18.1920    6.2720 C.2     1  G931        0.1501
      5  O2        22.3080  -21.4340    8.7240 O.2     1  G931       -0.4760
      6  N1        23.2120  -19.4600    5.8090 N.2     1  G931       -0.2304
      7  C1        22.9190  -17.9470    7.6130 C.2     1  G931        0.1613
      8  N6        22.3620  -14.2920    9.3140 N.pl3   1  G931       -0.1018
      9  C17       22.3130  -14.8950   10.5380 C.ar    1  G931        0.2349
     10  N5        22.1870  -14.2090   11.6860 N.ar    1  G931       -0.0297
     11  O3        22.1900  -15.2830   12.6420 O.2     1  G931       -0.2400
     12  N4        22.3110  -16.5930   12.0410 N.ar    1  G931       -0.0428
     13  C16       22.3560  -16.2720   10.7260 C.ar    1  G931        0.2038
     14  C15       22.5090  -17.2610    9.5990 C.2     1  G931        0.2076
     15  C13       21.9730  -19.3950   10.8850 C.3     1  G931        0.0940
     16  C14       23.1600  -19.9980   11.5980 C.3     1  G931        0.0233
     17  C4        23.7580  -16.5350    4.5080 C.1     1  G931       -0.0560
     18  C5        23.8360  -15.6260    3.3430 C.3     1  G931        0.1796
     19  C7        23.0250  -14.3660    3.6270 C.3     1  G931        0.0465
     20  C6        25.2950  -15.2760    3.0820 C.3     1  G931        0.0465
     21  O1        23.3240  -16.2800    2.1780 O.3     1  G931       -0.2124
     22  C12       22.6150  -19.0290    8.4490 C.3     1  G931        0.1885
     23  C9        22.6090  -20.3370    7.9460 C.2     1  G931        0.1600
     24  C8        22.9220  -20.5070    6.5930 C.2     1  G931        0.1340
     25  C10       22.0360  -22.7210    8.1490 C.3     1  G931        0.2064
     26  C11       21.4890  -23.6990    9.1840 C.3     1  G931        0.0612
     27  C18       20.1950  -23.1780    9.7950 C.3     1  G931        0.0924
     28  N7        19.7470  -24.0150   10.9020 N.3     1  G931       -0.2179
     29  C19       20.6670  -24.6070   11.8580 C.3     1  G931        0.0887
     30  C20       22.0000  -25.0130   11.2320 C.3     1  G931        0.0190
     31  C21       22.5070  -23.9270   10.2930 C.3     1  G931        0.0066
@<TRIPOS>BOND
     1    21    18    1
     2    20    18    1
     3    18    19    1
     4    18    17    1
     5    17     1    3
     6     1     4    1
     7     6     4    2
     8     6    24    1
     9     4     7    1
    10    24    23    2
    11     7     3    2
    12     7    22    1
    13    23    22    1
    14    23     5    1
    15    25     5    1
    16    25    26    1
    17     3    14    2
    18    22     2    1
    19    26    27    1
    20    26    31    1
    21     8     9    1
    22    14     2    1
    23    14    13    1
    24     2    15    1
    25    27    28    1
    26    31    30    1
    27     9    13   ar
    28     9    10   ar
    29    13    12   ar
    30    15    16    1
    31    28    29    1
    32    30    29    1
    33    10    11   ar
    34    12    11   ar
