@<TRIPOS>MOLECULE
3d0z_GSH_A_1.pdb
 20 19 0 0 0
SMALL
GASTEIGER

@<TRIPOS>ATOM
      1  N1        26.9990   34.2440    4.3870 N.3   215  GSH215     -0.1159
      2  CA1       26.7730   34.6440    5.7850 C.3   215  GSH215      0.2164
      3  C1        28.1160   34.7580    6.5230 C.2   215  GSH215      0.3860
      4  O11       28.1310   35.3880    7.6060 O.co2 215  GSH215     -0.2437
      5  O12       29.1250   34.2580    5.9840 O.co2 215  GSH215     -0.2437
      6  CB1       25.7950   33.6570    6.4300 C.2   215  GSH215      0.0085
      7  CG1       25.1600   33.9480    7.6360 C.2   215  GSH215      0.0569
      8  CD1       24.2740   33.0540    8.2290 C.2   215  GSH215      0.2648
      9  OE1       23.8140   32.1330    7.5520 O.2   215  GSH215     -0.2684
     10  N2        23.9790   33.2210    9.5210 N.am  215  GSH215     -0.1983
     11  CA2       23.0640   32.3740   10.3020 C.3   215  GSH215      0.1544
     12  C2        22.2690   33.2900   11.2340 C.3   215  GSH215      0.2469
     13  O2        21.4160   32.5410   12.1050 O.3   215  GSH215     -0.2017
     14  CB2       23.8370   31.3940   11.1940 C.3   215  GSH215      0.0944
     15  SG2       24.6810   30.0110   10.3420 S.3   215  GSH215     -0.0801
     16  N3        21.4790   34.2700   10.4780 N.3   215  GSH215     -0.1758
     17  CA3       20.9400   35.2200   11.4630 C.3   215  GSH215      0.2050
     18  C3        19.8360   36.0600   10.8180 C.2   215  GSH215      0.3823
     19  O31       19.2750   36.9090   11.5450 O.co2 215  GSH215     -0.2440
     20  O32       19.5660   35.8180    9.6210 O.co2 215  GSH215     -0.2440
@<TRIPOS>BOND
     1     1     2    1
     2     2     6    1
     3     2     3    1
     4     5     3   ar
     5     6     7    2
     6     3     4   ar
     7     9     8    2
     8     7     8    1
     9     8    10   am
    10    10    11    1
    11    20    18   ar
    12    11    14    1
    13    11    12    1
    14    15    14    1
    15    16    12    1
    16    16    17    1
    17    18    17    1
    18    18    19   ar
    19    12    13    1
