@<TRIPOS>MOLECULE
3d14_AK1_A_1.pdb
 31 34 0 0 0
SMALL
GASTEIGER

@<TRIPOS>ATOM
      1  C31       -9.0590   27.5570   76.6280 C.ar    1  AK11        0.1032
      2  C27       -8.7380   27.5020   77.9380 C.ar    1  AK11        0.0334
      3  C23      -14.2610   18.4460   78.1120 C.3     1  AK11        0.4186
      4  C17      -12.9550   20.5970   77.8590 C.ar    1  AK11        0.0205
      5  C20      -12.6730   20.7770   80.6270 C.ar    1  AK11        0.0013
      6  C15      -12.2570   21.6790   78.4140 C.ar    1  AK11        0.0749
      7  C12       -7.9540   28.5940   78.6720 C.3     1  AK11        0.0899
      8  C14      -10.9700   23.6590   77.9790 C.2     1  AK11        0.3495
      9  C11       -6.6750   28.0640   79.3300 C.3     1  AK11        0.2561
     10  C9        -5.1370   30.0380   79.6030 C.2     1  AK11        0.3497
     11  C7        -4.0610   30.9590   77.5860 C.3     1  AK11        0.3913
     12  C4        -4.5240   30.9780   80.3860 C.3     1  AK11        0.2001
     13  C3        -3.6990   31.8790   79.8570 C.2     1  AK11        0.0805
     14  C2        -3.1950   32.7030   80.6740 C.2     1  AK11        0.0225
     15  C1        -3.5770   32.5060   81.8770 C.2     1  AK11        0.0330
     16  F26      -14.6250   18.7030   76.8700 F       1  AK11       -0.1659
     17  N30       -9.7250   26.5360   76.2380 N.ar    1  AK11       -0.2213
     18  C29       -9.9610   25.6870   77.2360 C.ar    1  AK11        0.1870
     19  S28       -9.3020   26.1840   78.5840 S.2     1  AK11       -0.0538
     20  N6        -3.4780   31.8800   78.5410 N.2     1  AK11       -0.2216
     21  N10       -5.9800   29.1240   80.0990 N.pl3   1  AK11       -0.0341
     22  N8        -4.9350   30.0150   78.2750 N.2     1  AK11       -0.0362
     23  S5        -4.6210   31.2090   82.0520 S.3     1  AK11       -0.0958
     24  F24      -13.5090   17.3650   78.1360 F       1  AK11       -0.1659
     25  F25      -15.3390   18.2210   78.8320 F       1  AK11       -0.1659
     26  C18      -13.5030   19.6110   78.6870 C.ar    1  AK11        0.0727
     27  C19      -13.3610   19.7040   80.0680 C.ar    1  AK11        0.0039
     28  C21      -12.1250   21.7590   79.8050 C.ar    1  AK11        0.0166
     29  N22      -11.7350   22.6240   77.5930 N.am    1  AK11       -0.1606
     30  N13      -10.6870   24.5720   77.0430 N.am    1  AK11       -0.1356
     31  O16      -10.5410   23.7650   79.1230 O.2     1  AK11       -0.2484
@<TRIPOS>BOND
     1    17     1   ar
     2    17    18   ar
     3     1     2   ar
     4    16     3    1
     5    30    18    1
     6    30     8   am
     7    18    19   ar
     8    11    22    1
     9    11    20    1
    10    29     8   am
    11    29     6    1
    12     4     6   ar
    13     4    26   ar
    14     2    19   ar
    15     2     7    1
    16     8    31    2
    17     3    24    1
    18     3    26    1
    19     3    25    1
    20    22    10    2
    21     6    28   ar
    22    20    13    2
    23     7     9    1
    24    26    27   ar
    25     9    21    1
    26    10    21    1
    27    10    12    1
    28    28     5   ar
    29    13    12    1
    30    13    14    1
    31    27     5   ar
    32    12    23    1
    33    14    15    2
    34    15    23    1
