@<TRIPOS>MOLECULE
3d15_AK2_A_1.pdb
 28 31 0 0 0
SMALL
GASTEIGER

@<TRIPOS>ATOM
      1  C27       10.7920   20.5010    7.9500 C.ar    1  AK21        0.0167
      2  C26       11.1390   19.3570    7.2360 C.ar    1  AK21        0.0022
      3  C24       12.8950   18.9370    8.8180 C.ar    1  AK21        0.0590
      4  C23       12.5550   20.0860    9.5270 C.ar    1  AK21        0.0280
      5  C22       11.4960   20.8720    9.1010 C.ar    1  AK21        0.0758
      6  C17        8.9300   27.1730   10.6170 C.ar    1  AK21        0.1032
      7  C15        9.6760   25.2100   10.1300 C.ar    1  AK21        0.1870
      8  C12        7.7590   28.1290    8.6630 C.3     1  AK21        0.0899
      9  C13        8.5500   27.0590    9.4130 C.ar    1  AK21        0.0334
     10  C11        6.4460   27.5690    8.0990 C.3     1  AK21        0.2561
     11  C9         3.2520   32.4560    6.7270 C.2     1  AK21        0.0225
     12  C8         3.6950   32.3210    5.5500 C.2     1  AK21        0.0330
     13  C4         4.0590   30.5990    9.6260 C.3     1  AK21        0.3913
     14  C6         5.0710   29.6020    7.7340 C.2     1  AK21        0.3497
     15  C2         3.7130   31.5800    7.5480 C.2     1  AK21        0.0805
     16  C1         4.4870   30.6120    6.9490 C.3     1  AK21        0.2001
     17 CL28       14.2580   17.9460    9.4040 Cl      1  AK21       -0.0822
     18  C25       12.1980   18.5620    7.6750 C.ar    1  AK21        0.0115
     19  N20       11.1830   22.0160    9.8640 N.am    1  AK21       -0.1606
     20  C19       10.5040   23.0780    9.4340 C.2     1  AK21        0.3495
     21  O21       10.0760   23.1260    8.2810 O.2     1  AK21       -0.2484
     22  N18       10.3280   24.0520   10.3430 N.am    1  AK21       -0.1356
     23  N16        9.5400   26.1440   11.0630 N.ar    1  AK21       -0.2213
     24  S14        9.0040   25.6870    8.7970 S.2     1  AK21       -0.0538
     25  N10        5.8640   28.6080    7.2380 N.pl3   1  AK21       -0.0341
     26  N5         4.8260   29.6360    9.0710 N.2     1  AK21       -0.0362
     27  N3         3.5040   31.5750    8.8830 N.2     1  AK21       -0.2216
     28  S7         4.5630   30.9100    5.2770 S.3     1  AK21       -0.0958
@<TRIPOS>BOND
     1    28    12    1
     2    28    16    1
     3    12    11    2
     4    11    15    1
     5    16    15    1
     6    16    14    1
     7     2    18   ar
     8     2     1   ar
     9    25    14    1
    10    25    10    1
    11    15    27    2
    12    18     3   ar
    13    14    26    2
    14     1     5   ar
    15    10     8    1
    16    21    20    2
    17     8     9    1
    18    24     9   ar
    19    24     7   ar
    20     3    17    1
    21     3     4   ar
    22    27    13    1
    23    26    13    1
    24     5     4   ar
    25     5    19    1
    26     9     6   ar
    27    20    19   am
    28    20    22   am
    29     7    22    1
    30     7    23   ar
    31     6    23   ar
