@<TRIPOS>MOLECULE
3d17_HEM_A_1.pdb
 43 50 0 0 0
SMALL
GASTEIGER

@<TRIPOS>ATOM
      1 FE         13.2140   59.0810   31.3190 Fe    143  HEM143      0.0000
      2  CHA       14.5120   57.5650   34.0960 C.2   143  HEM143      0.0000
      3  CHB       14.2460   56.4600   29.3850 C.2   143  HEM143      0.0000
      4  CHC       11.9690   60.6580   28.5730 C.2   143  HEM143      0.0000
      5  CHD       12.4880   61.8680   33.2470 C.2   143  HEM143      0.0000
      6  NA        14.3080   57.4690   31.6410 N.ar  143  HEM143      0.0000
      7  C1A       14.7590   56.9940   32.8600 C.ar  143  HEM143      0.0000
      8  C2A       15.3960   55.7190   32.6960 C.ar  143  HEM143      0.0000
      9  C3A       15.3600   55.4520   31.3670 C.ar  143  HEM143      0.0000
     10  C4A       14.6640   56.5130   30.7160 C.ar  143  HEM143      0.0000
     11  CMA       15.9780   54.2560   30.6650 C.3   143  HEM143      0.0000
     12  CAA       15.8710   54.7720   33.7710 C.3   143  HEM143      0.0000
     13  CBA       14.6710   53.9660   34.2410 C.3   143  HEM143      0.0000
     14  CGA       15.0580   52.8310   35.1660 C.2   143  HEM143      0.0000
     15  O1A       15.6650   53.1170   36.2220 O.co2 143  HEM143      0.0000
     16  O2A       14.7580   51.6580   34.8330 O.co2 143  HEM143      0.0000
     17  NB        13.0440   58.6090   29.3930 N.2   143  HEM143      0.0000
     18  C1B       13.4760   57.4390   28.7760 C.2   143  HEM143      0.0000
     19  C2B       13.2070   57.4810   27.3960 C.2   143  HEM143      0.0000
     20  C3B       12.5830   58.6630   27.1310 C.2   143  HEM143      0.0000
     21  C4B       12.4910   59.3710   28.3950 C.2   143  HEM143      0.0000
     22  CMB       13.6920   56.4670   26.3910 C.3   143  HEM143      0.0000
     23  CAB       12.1000   59.1430   25.9070 C.3   143  HEM143      0.0000
     24  CBB       12.3520   58.6250   24.5660 C.3   143  HEM143      0.0000
     25  NC        12.3780   60.8930   30.9810 N.ar  143  HEM143      0.0000
     26  C1C       11.9130   61.3730   29.7730 C.ar  143  HEM143      0.0000
     27  C2C       11.3760   62.7120   29.9310 C.ar  143  HEM143      0.0000
     28  C3C       11.7270   63.1340   31.2260 C.ar  143  HEM143      0.0000
     29  C4C       12.2020   61.9380   31.8910 C.ar  143  HEM143      0.0000
     30  CMC       10.3900   63.3330   28.9300 C.3   143  HEM143      0.0000
     31  CAC       12.0010   64.4160   31.7710 C.3   143  HEM143      0.0000
     32  CBC       11.3650   65.6770   31.4820 C.3   143  HEM143      0.0000
     33  ND        13.3590   59.5520   33.2720 N.2   143  HEM143      0.0000
     34  C1D       13.0380   60.7590   33.8830 C.2   143  HEM143      0.0000
     35  C2D       13.3640   60.6980   35.3040 C.2   143  HEM143      0.0000
     36  C3D       13.8240   59.4560   35.5520 C.2   143  HEM143      0.0000
     37  C4D       13.8490   58.7550   34.2910 C.2   143  HEM143      0.0000
     38  CMD       13.4450   61.8620   36.2860 C.3   143  HEM143      0.0000
     39  CAD       14.4790   59.0670   36.8420 C.3   143  HEM143      0.0000
     40  CBD       15.9690   59.3590   36.7430 C.3   143  HEM143      0.0000
     41  CGD       16.6700   59.2380   38.0720 C.2   143  HEM143      0.0000
     42  O1D       16.3370   60.0330   38.9840 O.co2 143  HEM143      0.0000
     43  O2D       17.5450   58.3530   38.1990 O.co2 143  HEM143      0.0000
@<TRIPOS>BOND
     1    24    23    1
     2    23    20    1
     3    22    19    1
     4    20    19    2
     5    20    21    1
     6    19    18    1
     7    21     4    2
     8    21    17    1
     9     4    26    1
    10    18     3    1
    11    18    17    2
    12    30    27    1
    13     3    10    2
    14    17     1    1
    15    26    27   ar
    16    26    25   ar
    17    27    28   ar
    18    11     9    1
    19    10     9   ar
    20    10     6   ar
    21    25     1    1
    22    25    29   ar
    23    28    31    1
    24    28    29   ar
    25     1     6    1
    26     1    33    1
    27     9     8   ar
    28    32    31    1
    29     6     7   ar
    30    29     5    1
    31     8     7   ar
    32     8    12    1
    33     7     2    2
    34     5    34    2
    35    33    34    1
    36    33    37    2
    37    12    13    1
    38    34    35    1
    39     2    37    1
    40    13    14    1
    41    37    36    1
    42    16    14   ar
    43    14    15   ar
    44    35    36    2
    45    35    38    1
    46    36    39    1
    47    40    39    1
    48    40    41    1
    49    41    43   ar
    50    41    42   ar
