@<TRIPOS>MOLECULE
3d1a_HEM_A_1.pdb
 43 50 0 0 0
SMALL
GASTEIGER

@<TRIPOS>ATOM
      1 FE         27.0850   29.9650    5.5370 Fe    142  HEM142      0.0000
      2  CHA       30.2100   29.8030    4.4060 C.2   142  HEM142      0.0000
      3  CHB       25.8860   29.2560    2.3410 C.2   142  HEM142      0.0000
      4  CHC       23.9410   30.2420    6.6250 C.2   142  HEM142      0.0000
      5  CHD       28.2620   30.9070    8.7190 C.2   142  HEM142      0.0000
      6  NA        27.8680   29.5170    3.7250 N.ar  142  HEM142      0.0000
      7  C1A       29.2090   29.6680    3.4800 C.ar  142  HEM142      0.0000
      8  C2A       29.4130   29.6480    2.0490 C.ar  142  HEM142      0.0000
      9  C3A       28.2150   29.5030    1.4540 C.ar  142  HEM142      0.0000
     10  C4A       27.2330   29.4150    2.5110 C.ar  142  HEM142      0.0000
     11  CMA       27.9150   29.4140   -0.0700 C.3   142  HEM142      0.0000
     12  CAA       30.8010   29.8400    1.3800 C.3   142  HEM142      0.0000
     13  CBA       31.4760   28.6250    0.7650 C.3   142  HEM142      0.0000
     14  CGA       32.4570   29.2210   -0.2210 C.2   142  HEM142      0.0000
     15  O1A       32.2780   28.9420   -1.4550 O.co2 142  HEM142      0.0000
     16  O2A       33.3820   29.9800    0.2220 O.co2 142  HEM142      0.0000
     17  NB        25.2650   29.7720    4.6260 N.2   142  HEM142      0.0000
     18  C1B       24.9590   29.5240    3.3160 C.2   142  HEM142      0.0000
     19  C2B       23.5300   29.5750    3.1430 C.2   142  HEM142      0.0000
     20  C3B       22.9920   29.8460    4.3480 C.2   142  HEM142      0.0000
     21  C4B       24.0840   29.9630    5.2870 C.2   142  HEM142      0.0000
     22  CMB       22.8190   29.3410    1.7850 C.3   142  HEM142      0.0000
     23  CAB       21.4990   30.0140    4.7760 C.2   142  HEM142      0.0000
     24  CBB       20.4990   30.0880    3.8910 C.2   142  HEM142      0.0000
     25  NC        26.2700   30.4840    7.3390 N.ar  142  HEM142      0.0000
     26  C1C       24.9170   30.5140    7.5460 C.ar  142  HEM142      0.0000
     27  C2C       24.6700   30.8740    8.9160 C.ar  142  HEM142      0.0000
     28  C3C       25.8490   31.0590    9.5240 C.ar  142  HEM142      0.0000
     29  C4C       26.8880   30.8130    8.5330 C.ar  142  HEM142      0.0000
     30  CMC       23.2590   30.9990    9.5290 C.3   142  HEM142      0.0000
     31  CAC       26.0830   31.4550   11.0140 C.2   142  HEM142      0.0000
     32  CBC       25.6360   32.6010   11.5540 C.2   142  HEM142      0.0000
     33  ND        28.9720   30.2800    6.4480 N.2   142  HEM142      0.0000
     34  C1D       29.2270   30.7500    7.7310 C.2   142  HEM142      0.0000
     35  C2D       30.6490   31.0360    7.8510 C.2   142  HEM142      0.0000
     36  C3D       31.2450   30.6810    6.4930 C.2   142  HEM142      0.0000
     37  C4D       30.1230   30.2290    5.6990 C.2   142  HEM142      0.0000
     38  CMD       31.4320   31.5770    9.0670 C.3   142  HEM142      0.0000
     39  CAD       32.7330   30.7960    6.0620 C.3   142  HEM142      0.0000
     40  CBD       33.0210   32.2500    5.6730 C.3   142  HEM142      0.0000
     41  CGD       34.2830   32.3830    4.8590 C.2   142  HEM142      0.0000
     42  O1D       35.3600   31.9700    5.3550 O.co2 142  HEM142      0.0000
     43  O2D       34.2110   32.9040    3.7140 O.co2 142  HEM142      0.0000
@<TRIPOS>BOND
     1    15    14   ar
     2    14    16   ar
     3    14    13    1
     4    11     9    1
     5    13    12    1
     6    12     8    1
     7     9     8   ar
     8     9    10   ar
     9    22    19    1
    10     8     7   ar
    11     3    10    2
    12     3    18    1
    13    10     6   ar
    14    19    18    1
    15    19    20    2
    16    18    17    2
    17     7     6   ar
    18     7     2    2
    19    43    41   ar
    20     6     1    1
    21    24    23    2
    22    20    23    1
    23    20    21    1
    24     2    37    1
    25    17    21    1
    26    17     1    1
    27    41    42   ar
    28    41    40    1
    29    21     4    2
    30     1    33    1
    31     1    25    1
    32    40    39    1
    33    37    33    2
    34    37    36    1
    35    39    36    1
    36    33    34    1
    37    36    35    2
    38     4    26    1
    39    25    26   ar
    40    25    29   ar
    41    26    27   ar
    42    34    35    1
    43    34     5    2
    44    35    38    1
    45    29     5    1
    46    29    28   ar
    47    27    28   ar
    48    27    30    1
    49    28    31    1
    50    31    32    2
