@<TRIPOS>MOLECULE
3d1e_III_P_1.pdb
 45 45 0 0 0
SMALL
GASTEIGER

@<TRIPOS>ATOM
      1  N        -67.1940  -65.7640  -58.9900 N.3   505  GLY505     -0.1210
      2  CA       -68.2510  -65.5200  -60.0130 C.3   505  GLY505      0.1956
      3  C        -68.6320  -66.7790  -60.7660 C.2   505  GLY505      0.2612
      4  O        -68.2440  -67.8850  -60.3840 O.2   505  GLY505     -0.2717
      5  N        -69.3850  -66.6070  -61.8480 N.am  506  GLN506     -0.1965
      6  CA       -69.8340  -67.7280  -62.6680 C.3   506  GLN506      0.1733
      7  C        -68.7000  -68.5260  -63.2960 C.2   506  GLN506      0.2616
      8  O        -67.7400  -67.9550  -63.8140 O.2   506  GLN506     -0.2715
      9  CB       -70.7450  -67.2330  -63.7910 C.3   506  GLN506      0.0408
     10  CG       -71.2770  -68.3540  -64.6700 C.3   506  GLN506      0.0908
     11  CD       -72.0850  -69.3550  -63.8720 C.2   506  GLN506      0.2608
     12  OE1      -73.0030  -68.9760  -63.1510 O.2   506  GLN506     -0.2717
     13  NE2      -71.7470  -70.6410  -63.9950 N.am  506  GLN506     -0.0878
     14  N        -68.8290  -69.8480  -63.2550 N.am  507  LEU507     -0.1963
     15  CA       -67.8430  -70.7460  -63.8440 C.3   507  LEU507      0.1728
     16  C        -68.3480  -71.1910  -65.2140 C.2   507  LEU507      0.2617
     17  O        -69.5230  -71.0180  -65.5360 O.2   507  LEU507     -0.2715
     18  CB       -67.6310  -71.9710  -62.9520 C.3   507  LEU507      0.0311
     19  CG       -66.9300  -71.7240  -61.6160 C.3   507  LEU507      0.0022
     20  CD1      -66.9930  -72.9780  -60.7610 C.3   507  LEU507      0.0001
     21  CD2      -65.4930  -71.3120  -61.8750 C.3   507  LEU507      0.0001
     22  N        -67.4590  -71.7640  -66.0180 N.am  508  GLY508     -0.1940
     23  CA       -67.8530  -72.2140  -67.3390 C.3   508  GLY508      0.2014
     24  C        -67.7880  -73.7170  -67.5220 C.2   508  GLY508      0.2639
     25  O        -66.8740  -74.3730  -67.0200 O.2   508  GLY508     -0.2714
     26  N        -68.7670  -74.2610  -68.2420 N.am  509  LEU509     -0.1963
     27  CA       -68.8310  -75.6930  -68.5190 C.3   509  LEU509      0.1728
     28  C        -67.7290  -76.0940  -69.4930 C.2   509  LEU509      0.2617
     29  O        -67.1540  -77.1740  -69.3860 O.2   509  LEU509     -0.2715
     30  CB       -70.1860  -76.0570  -69.1320 C.3   509  LEU509      0.0311
     31  CG       -71.4430  -76.0110  -68.2630 C.3   509  LEU509      0.0022
     32  CD1      -72.6680  -76.2470  -69.1350 C.3   509  LEU509      0.0001
     33  CD2      -71.3560  -77.0670  -67.1750 C.3   509  LEU509      0.0001
     34  N        -67.4490  -75.2160  -70.4490 N.am  510  PHE510     -0.1938
     35  CA       -66.4270  -75.4700  -71.4530 C.3   510  PHE510      0.2021
     36  C        -65.9040  -74.1510  -72.0190 C.2   510  PHE510      0.3845
     37  O        -65.3830  -74.1600  -73.1580 O.co2 510  PHE510     -0.2437
     38  CB       -67.0190  -76.3280  -72.5760 C.3   510  PHE510      0.0596
     39  CG       -68.2620  -75.7440  -73.1970 C.ar  510  PHE510     -0.0199
     40  CD1      -68.1860  -74.6430  -74.0460 C.ar  510  PHE510     -0.0042
     41  CD2      -69.5150  -76.2790  -72.9090 C.ar  510  PHE510     -0.0042
     42  CE1      -69.3400  -74.0830  -74.5980 C.ar  510  PHE510     -0.0003
     43  CE2      -70.6720  -75.7270  -73.4550 C.ar  510  PHE510     -0.0003
     44  CZ       -70.5840  -74.6270  -74.3000 C.ar  510  PHE510     -0.0000
     45  OXT      -66.0130  -73.1270  -71.3090 O.co2 510  PHE510     -0.2437
@<TRIPOS>BOND
     1    42    44   ar
     2    42    40   ar
     3    44    43   ar
     4    40    39   ar
     5    43    41   ar
     6    39    41   ar
     7    39    38    1
     8    37    36   ar
     9    38    35    1
    10    36    35    1
    11    36    45   ar
    12    35    34    1
    13    34    28   am
    14    28    29    2
    15    28    27    1
    16    32    31    1
    17    30    27    1
    18    30    31    1
    19    27    26    1
    20    31    33    1
    21    26    24   am
    22    24    23    1
    23    24    25    2
    24    23    22    1
    25    22    16   am
    26    17    16    2
    27    16    15    1
    28    10    11    1
    29    10     9    1
    30    13    11   am
    31    11    12    2
    32    15    14    1
    33    15    18    1
    34     8     7    2
    35     9     6    1
    36     7    14   am
    37     7     6    1
    38    18    19    1
    39     6     5    1
    40    21    19    1
    41     5     3   am
    42    19    20    1
    43     3     4    2
    44     3     2    1
    45     2     1    1
