@<TRIPOS>MOLECULE
3d1g_322_A_1.pdb
 24 25 0 0 0
SMALL
GASTEIGER

@<TRIPOS>ATOM
      1  C10      -43.3330 -109.2750  -40.4900 C.2   501  322501      0.3851
      2  C8       -42.4980 -111.7590  -42.5850 C.2   501  322501      0.1176
      3  C9       -42.1070 -110.1430  -40.6670 C.3   501  322501      0.2133
      4  C4       -44.7830 -115.9450  -42.6180 C.ar  501  322501      0.0365
      5  C5       -45.0040 -115.6440  -41.2300 C.ar  501  322501     -0.0109
      6  C6       -44.4110 -114.3830  -40.5950 C.3   501  322501      0.0474
      7  C3       -45.3670 -117.0990  -43.2370 C.ar  501  322501      0.1774
      8  C2       -44.4080 -116.7380  -45.4780 C.3   501  322501      0.2057
      9  C1       -44.4470 -117.4210  -46.8310 C.3   501  322501      0.0512
     10  C7       -43.1150 -113.7830  -41.0890 C.3   501  322501      0.1345
     11 BR1       -46.1040 -116.2080  -38.5980 Br    501  322501     -0.0487
     12 BR2       -47.5420 -118.8210  -40.0810 Br    501  322501     -0.0451
     13  N1       -42.4740 -111.4700  -41.2230 N.am  501  322501     -0.2366
     14  S1       -42.9880 -113.4040  -42.8410 S.3   501  322501     -0.0831
     15  O1       -45.2230 -117.5130  -44.5840 O.3   501  322501     -0.4722
     16  C11      -42.8100 -112.5140  -40.3550 C.2   501  322501      0.2409
     17  C12      -45.8140 -116.5370  -40.4670 C.ar  501  322501      0.0401
     18  C13      -46.4120 -117.6630  -41.0790 C.ar  501  322501      0.0824
     19  C14      -46.1890 -117.9350  -42.4520 C.ar  501  322501      0.2358
     20  O2       -44.4480 -109.4860  -40.9570 O.co2 501  322501     -0.2437
     21  S2       -42.1320 -110.7560  -43.8700 S.2   501  322501     -0.0275
     22  O3       -43.0270 -108.2010  -39.7200 O.co2 501  322501     -0.2437
     23  O4       -42.8490 -112.4570  -39.1310 O.2   501  322501     -0.2736
     24  O5       -46.7840 -119.0410  -43.0410 O.3   501  322501     -0.2828
@<TRIPOS>BOND
     1     9     8    1
     2     8    15    1
     3    15     7    1
     4    21     2    2
     5     7     4   ar
     6     7    19   ar
     7    24    19    1
     8    14     2    1
     9    14    10    1
    10     4     5   ar
    11     2    13    1
    12    19    18   ar
    13     5     6    1
    14     5    17   ar
    15    13     3    1
    16    13    16   am
    17    10     6    1
    18    10    16    1
    19    18    17   ar
    20    18    12    1
    21    20     1   ar
    22     3     1    1
    23     1    22   ar
    24    17    11    1
    25    16    23    2
