@<TRIPOS>MOLECULE
3d1k_HEM_A_1.pdb
 43 50 0 0 0
SMALL
GASTEIGER

@<TRIPOS>ATOM
      1 FE         10.1690   -9.6220   15.2560 Fe    200  HEM200      0.0000
      2  CHA       10.7590  -10.8780   18.3830 C.2   200  HEM200      0.0000
      3  CHB       11.6760  -12.4020   13.8600 C.2   200  HEM200      0.0000
      4  CHC        9.4480   -8.4830   12.1450 C.2   200  HEM200      0.0000
      5  CHD        9.0070   -6.7490   16.6140 C.2   200  HEM200      0.0000
      6  NA        11.0800  -11.2740   15.9740 N.ar  200  HEM200      0.0000
      7  C1A       11.1720  -11.6590   17.3240 C.ar  200  HEM200      0.0000
      8  C2A       11.9250  -12.8890   17.3950 C.ar  200  HEM200      0.0000
      9  C3A       12.1450  -13.3140   16.1450 C.ar  200  HEM200      0.0000
     10  C4A       11.6120  -12.3180   15.2440 C.ar  200  HEM200      0.0000
     11  CMA       12.9060  -14.5730   15.6650 C.3   200  HEM200      0.0000
     12  CAA       12.2150  -13.6650   18.6860 C.3   200  HEM200      0.0000
     13  CBA       10.9840  -14.4490   19.2190 C.3   200  HEM200      0.0000
     14  CGA       11.3340  -15.1180   20.5520 C.2   200  HEM200      0.0000
     15  O1A       11.3030  -16.3750   20.5350 O.co2 200  HEM200      0.0000
     16  O2A       11.6280  -14.3700   21.4830 O.co2 200  HEM200      0.0000
     17  NB        10.4580  -10.3250   13.3860 N.2   200  HEM200      0.0000
     18  C1B       11.0980  -11.4850   12.9940 C.2   200  HEM200      0.0000
     19  C2B       11.1450  -11.5650   11.5660 C.2   200  HEM200      0.0000
     20  C3B       10.5040  -10.4780   11.0700 C.2   200  HEM200      0.0000
     21  C4B       10.0830   -9.6920   12.2050 C.2   200  HEM200      0.0000
     22  CMB       11.7460  -12.7410   10.7930 C.3   200  HEM200      0.0000
     23  CAB       10.2780  -10.1290    9.6130 C.2   200  HEM200      0.0000
     24  CBB       11.2120  -10.2210    8.6680 C.2   200  HEM200      0.0000
     25  NC         9.3040   -7.9640   14.5260 N.ar  200  HEM200      0.0000
     26  C1C        9.1540   -7.6440   13.2090 C.ar  200  HEM200      0.0000
     27  C2C        8.6720   -6.2760   13.0860 C.ar  200  HEM200      0.0000
     28  C3C        8.6180   -5.7710   14.3230 C.ar  200  HEM200      0.0000
     29  C4C        8.9380   -6.8380   15.2430 C.ar  200  HEM200      0.0000
     30  CMC        8.3510   -5.6200   11.7250 C.3   200  HEM200      0.0000
     31  CAC        8.1730   -4.3830   14.8050 C.2   200  HEM200      0.0000
     32  CBC        8.1080   -3.3080   14.0380 C.2   200  HEM200      0.0000
     33  ND         9.9220   -8.9600   17.1060 N.2   200  HEM200      0.0000
     34  C1D        9.4780   -7.7040   17.4850 C.2   200  HEM200      0.0000
     35  C2D        9.4800   -7.5840   18.9330 C.2   200  HEM200      0.0000
     36  C3D        9.9760   -8.7290   19.4050 C.2   200  HEM200      0.0000
     37  C4D       10.2650   -9.5950   18.3050 C.2   200  HEM200      0.0000
     38  CMD        9.0120   -6.3340   19.6690 C.3   200  HEM200      0.0000
     39  CAD       10.2200   -9.0470   20.9220 C.3   200  HEM200      0.0000
     40  CBD       11.4940   -8.3560   21.4640 C.3   200  HEM200      0.0000
     41  CGD       11.8010   -8.7650   22.9080 C.2   200  HEM200      0.0000
     42  O1D       12.0790   -7.8560   23.6710 O.co2 200  HEM200      0.0000
     43  O2D       11.7500  -10.0020   23.1980 O.co2 200  HEM200      0.0000
@<TRIPOS>BOND
     1    24    23    2
     2    23    20    1
     3    22    19    1
     4    20    19    2
     5    20    21    1
     6    19    18    1
     7    30    27    1
     8     4    21    2
     9     4    26    1
    10    21    17    1
    11    18    17    2
    12    18     3    1
    13    27    26   ar
    14    27    28   ar
    15    26    25   ar
    16    17     1    1
    17     3    10    2
    18    32    31    2
    19    28    31    1
    20    28    29   ar
    21    25    29   ar
    22    25     1    1
    23    29     5    1
    24    10     6   ar
    25    10     9   ar
    26     1     6    1
    27     1    33    1
    28    11     9    1
    29     6     7   ar
    30     9     8   ar
    31     5    34    2
    32    33    34    1
    33    33    37    2
    34     7     8   ar
    35     7     2    2
    36     8    12    1
    37    34    35    1
    38    37     2    1
    39    37    36    1
    40    12    13    1
    41    35    36    2
    42    35    38    1
    43    13    14    1
    44    36    39    1
    45    15    14   ar
    46    14    16   ar
    47    39    40    1
    48    40    41    1
    49    41    43   ar
    50    41    42   ar
