@<TRIPOS>MOLECULE
3d1r_FBP_A_1.pdb
 20 20 0 0 0
SMALL
GASTEIGER

@<TRIPOS>ATOM
      1  P1         0.6530   33.3900   15.8790 P.3   3499  FBP3499     0.5328
      2  O1P        0.4120   32.1840   14.9500 O.2   3499  FBP3499    -0.2224
      3  O2P        1.2140   32.8030   17.1650 O.3   3499  FBP3499    -0.1145
      4  O3P        1.6780   34.4250   15.3970 O.3   3499  FBP3499    -0.1145
      5  O1        -0.7810   34.0460   16.1700 O.3   3499  FBP3499    -0.2648
      6  C1        -1.7180   33.3460   16.9500 C.3   3499  FBP3499     0.2152
      7  C2        -3.0950   33.5980   16.3520 C.3   3499  FBP3499     0.2780
      8  O2        -3.4000   35.0280   16.3320 O.3   3499  FBP3499    -0.1897
      9  C3        -4.1630   32.8450   17.1240 C.3   3499  FBP3499     0.2408
     10  O3        -4.5100   33.4050   18.3750 O.3   3499  FBP3499    -0.2149
     11  C4        -5.3070   32.8280   16.1050 C.3   3499  FBP3499     0.2167
     12  O4        -6.3230   31.8420   16.3240 O.3   3499  FBP3499    -0.2175
     13  C5        -4.5570   32.6550   14.7980 C.3   3499  FBP3499     0.1808
     14  O5        -3.2080   33.0490   15.0490 O.3   3499  FBP3499    -0.3255
     15  C6        -5.1740   33.5370   13.7120 C.3   3499  FBP3499     0.1859
     16  O6        -4.5990   33.1600   12.4730 O.3   3499  FBP3499    -0.2675
     17  P2        -4.2320   34.2510   11.3310 P.3   3499  FBP3499     0.5327
     18  O4P       -5.3260   35.2730   11.3220 O.3   3499  FBP3499    -0.1145
     19  O5P       -2.9550   34.9510   11.7220 O.3   3499  FBP3499    -0.1145
     20  O6P       -4.0350   33.4870   10.0300 O.2   3499  FBP3499    -0.2224
@<TRIPOS>BOND
     1    20    17    2
     2    18    17    1
     3    17    19    1
     4    17    16    1
     5    16    15    1
     6    15    13    1
     7    13    14    1
     8    13    11    1
     9     2     1    2
    10    14     7    1
    11     4     1    1
    12     1     5    1
    13     1     3    1
    14    11    12    1
    15    11     9    1
    16     5     6    1
    17     8     7    1
    18     7     6    1
    19     7     9    1
    20     9    10    1
