@<TRIPOS>MOLECULE
3d1v_D1V_A_1.pdb
 12 13 0 0 0
SMALL
GASTEIGER

@<TRIPOS>ATOM
      1  O4        52.8530   49.5220   24.0680 O.2   293  D1V293     -0.2085
      2  C3        53.7750   48.7590   24.8120 C.1   293  D1V293      0.2172
      3  C4        53.0310   47.9700   25.7960 C.2   293  D1V293      0.1219
      4  C1        53.6970   47.0730   26.7110 C.2   293  D1V293      0.1556
      5  N1        55.0890   46.9370   26.6650 N.2   293  D1V293     -0.3330
      6  C2        55.6840   47.7130   25.7560 C.1   293  D1V293      0.1904
      7  S1        57.3190   47.4830   25.8650 S.2   293  D1V293      0.0582
      8  N2        55.1480   48.5820   24.8370 N.2   293  D1V293     -0.2594
      9  C8        52.8740   46.3840   27.5850 C.2   293  D1V293      0.0296
     10  C7        51.4240   46.5350   27.6570 C.2   293  D1V293     -0.0187
     11  C6        50.8020   47.4530   26.7460 C.3   293  D1V293      0.0529
     12  C5        51.6350   48.1260   25.7580 C.2   293  D1V293     -0.0061
@<TRIPOS>BOND
     1     1     2    2
     2     2     8    2
     3     2     3    1
     4     8     6    2
     5     6     7    2
     6     6     5    2
     7    12     3    2
     8    12    11    1
     9     3     4    1
    10     5     4    2
    11     4     9    1
    12    11    10    1
    13     9    10    2
