@<TRIPOS>MOLECULE
3d1x_ROC_A_1.pdb
 49 53 0 0 0
SMALL
GASTEIGER

@<TRIPOS>ATOM
      1  C         21.3540   26.4210   18.7210 C.2   201  ROC201      0.2949
      2  O         20.8880   27.5860   18.7790 O.2   201  ROC201     -0.2655
      3  N1        22.9830   24.7550   19.3350 N.2   201  ROC201     -0.4009
      4  C2        22.4590   25.9450   19.6160 C.2   201  ROC201      0.1854
      5  C3        22.8880   26.7680   20.6730 C.2   201  ROC201      0.0330
      6  C4        23.8870   26.2640   21.5110 C.2   201  ROC201     -0.0123
      7  C5        25.5390   24.4370   21.9640 C.2   201  ROC201     -0.0150
      8  C6        26.0460   23.2100   21.6210 C.2   201  ROC201     -0.0038
      9  C7        25.5800   22.4810   20.5050 C.2   201  ROC201      0.0020
     10  C8        24.5110   22.9740   19.7990 C.2   201  ROC201      0.0282
     11  C4A       24.4530   25.0060   21.2210 C.3   201  ROC201      0.0963
     12  C8A       23.9800   24.2600   20.1140 C.2   201  ROC201      0.1169
     13  N         20.9110   25.4820   17.8890 N.am  201  ROC201     -0.1913
     14  CA        19.7960   25.7200   17.0150 C.3   201  ROC201      0.1823
     15  C1        18.8000   24.5730   17.1640 C.2   201  ROC201      0.2618
     16  O1        18.9590   23.5070   16.4880 O.2   201  ROC201     -0.2715
     17  CB        20.1660   25.8770   15.5150 C.3   201  ROC201      0.1195
     18  CG        21.0980   27.0740   15.4080 C.2   201  ROC201      0.2630
     19  OD1       20.6300   28.1960   15.4340 O.2   201  ROC201     -0.2716
     20  ND2       22.4150   26.7410   15.3790 N.am  201  ROC201     -0.0877
     21  C9        15.4820   24.3820   18.0270 C.3   201  ROC201      0.1879
     22  O2        15.1360   25.4890   18.8960 O.3   201  ROC201     -0.2198
     23  CA1       16.8610   23.8240   18.4140 C.3   201  ROC201      0.1313
     24  N2        17.8510   24.8240   18.0620 N.am  201  ROC201     -0.2027
     25  CB1       16.9400   23.4380   19.8990 C.3   201  ROC201      0.0506
     26  CG1       18.3400   23.2450   20.4130 C.ar  201  ROC201     -0.0204
     27  CD1       19.0060   22.0150   20.2010 C.ar  201  ROC201     -0.0042
     28  CD2       18.9990   24.2510   21.0720 C.ar  201  ROC201     -0.0042
     29  CE1       20.2740   21.8630   20.6930 C.ar  201  ROC201     -0.0003
     30  CE2       20.2550   24.0950   21.5710 C.ar  201  ROC201     -0.0003
     31  CZ        20.9250   22.8940   21.3640 C.ar  201  ROC201     -0.0000
     32  N11       14.4490   22.5180   16.7590 N.3   201  ROC201     -0.2643
     33  CM        14.4100   23.3100   18.0250 C.3   201  ROC201      0.1075
     34  C21       13.8250   21.2270   16.9320 C.3   201  ROC201      0.1365
     35  CC        14.5650   20.4090   17.9880 C.2   201  ROC201      0.2558
     36  O3        15.7780   20.3430   18.0220 O.2   201  ROC201     -0.2719
     37  C31       13.9620   20.4310   15.6100 C.3   201  ROC201      0.0254
     38  C3A       13.2050   21.1690   14.4950 C.3   201  ROC201      0.0032
     39  C41       13.3840   20.3870   13.1350 C.3   201  ROC201      0.0001
     40  C51       14.8770   20.4700   12.6510 C.3   201  ROC201      0.0000
     41  C61       15.2400   21.9250   12.4180 C.3   201  ROC201      0.0000
     42  C71       15.1960   22.6480   13.7830 C.3   201  ROC201      0.0014
     43  C7A       13.7780   22.5960   14.3430 C.3   201  ROC201      0.0161
     44  C81       13.7080   23.2800   15.7190 C.3   201  ROC201      0.0725
     45  N3        13.7280   19.7880   18.8800 N.am  201  ROC201     -0.2077
     46  CD        14.2040   18.8840   19.9550 C.3   201  ROC201      0.0788
     47  C11       14.9400   17.6990   19.2860 C.3   201  ROC201      0.0217
     48  C22       12.9510   18.3520   20.6920 C.3   201  ROC201      0.0217
     49  C32       15.0570   19.6640   20.9600 C.3   201  ROC201      0.0217
@<TRIPOS>BOND
     1    41    40    1
     2    41    42    1
     3    40    39    1
     4    39    38    1
     5    42    43    1
     6    43    38    1
     7    43    44    1
     8    38    37    1
     9    20    18   am
    10    18    19    2
    11    18    17    1
    12    17    14    1
    13    37    34    1
    14    44    32    1
    15    16    15    2
    16    32    34    1
    17    32    33    1
    18    34    35    1
    19    14    15    1
    20    14    13    1
    21    15    24   am
    22    13     1   am
    23    35    36    2
    24    35    45   am
    25    33    21    1
    26    21    23    1
    27    21    22    1
    28    24    23    1
    29    23    25    1
    30     1     2    2
    31     1     4    1
    32    45    46    1
    33    47    46    1
    34     3     4    2
    35     3    12    2
    36     4     5    1
    37    10    12    1
    38    10     9    2
    39    25    26    1
    40    46    48    1
    41    46    49    1
    42    12    11    1
    43    27    26   ar
    44    27    29   ar
    45    26    28   ar
    46     9     8    1
    47     5     6    2
    48    29    31   ar
    49    28    30   ar
    50    11     6    1
    51    11     7    1
    52    31    30   ar
    53     8     7    2
