@<TRIPOS>MOLECULE
3d1y_ROC_A_1.pdb
 49 53 0 0 0
SMALL
GASTEIGER

@<TRIPOS>ATOM
      1  C         21.4510   26.5820   18.5500 C.2   201  ROC201      0.2949
      2  O         20.9780   27.7280   18.5490 O.2   201  ROC201     -0.2655
      3  N1        23.3190   25.0380   18.9740 N.2   201  ROC201     -0.3973
      4  C2        22.5800   26.0860   19.4010 C.2   201  ROC201      0.1861
      5  C3        22.8410   26.7100   20.5980 C.2   201  ROC201      0.0369
      6  C4        23.8870   26.2590   21.4010 C.2   201  ROC201      0.0050
      7  C5        25.7750   24.6100   21.7090 C.2   201  ROC201     -0.0189
      8  C6        26.5080   23.5160   21.2100 C.3   201  ROC201      0.0522
      9  C7        26.1660   22.9370   19.9640 C.2   201  ROC201     -0.0188
     10  C8        25.1030   23.4670   19.2490 C.2   201  ROC201      0.0278
     11  C4A       24.7050   25.1450   20.9910 C.2   201  ROC201      0.0257
     12  C8A       24.3550   24.5560   19.7190 C.2   201  ROC201      0.1309
     13  N         20.9600   25.6170   17.7350 N.am  201  ROC201     -0.1913
     14  CA        19.7360   25.8000   16.8940 C.3   201  ROC201      0.1823
     15  C1        18.7930   24.6560   17.1780 C.2   201  ROC201      0.2618
     16  O1        18.8770   23.5740   16.5900 O.2   201  ROC201     -0.2715
     17  CB        19.9720   25.9060   15.4060 C.3   201  ROC201      0.1195
     18  CG        20.7940   27.1650   15.2220 C.2   201  ROC201      0.2630
     19  OD1       20.2770   28.2680   15.3590 O.2   201  ROC201     -0.2716
     20  ND2       22.1000   27.0390   14.9070 N.am  201  ROC201     -0.0877
     21  C9        15.4800   24.4660   18.1380 C.3   201  ROC201      0.1879
     22  O2        15.0650   25.5680   18.9330 O.3   201  ROC201     -0.2198
     23  CA1       16.8890   23.9230   18.5020 C.3   201  ROC201      0.1313
     24  N2        17.8680   24.9160   18.1120 N.am  201  ROC201     -0.2027
     25  CB1       16.9550   23.5890   19.9870 C.3   201  ROC201      0.0506
     26  CG1       18.3750   23.3540   20.4740 C.ar  201  ROC201     -0.0204
     27  CD1       19.0200   22.1380   20.2780 C.ar  201  ROC201     -0.0042
     28  CD2       19.0540   24.3870   21.0700 C.ar  201  ROC201     -0.0042
     29  CE1       20.3910   21.9980   20.7070 C.ar  201  ROC201     -0.0003
     30  CE2       20.3800   24.2830   21.4960 C.ar  201  ROC201     -0.0003
     31  CZ        21.0440   23.0460   21.3000 C.ar  201  ROC201     -0.0000
     32  N11       14.3620   22.6350   16.9190 N.3   201  ROC201     -0.2643
     33  CM        14.3890   23.4290   18.1290 C.3   201  ROC201      0.1075
     34  C21       13.6350   21.3700   17.1140 C.3   201  ROC201      0.1365
     35  CC        14.4370   20.5410   18.1190 C.2   201  ROC201      0.2558
     36  O3        15.6530   20.4530   18.1610 O.2   201  ROC201     -0.2719
     37  C31       13.6960   20.5470   15.8120 C.3   201  ROC201      0.0254
     38  C3A       12.9910   21.3130   14.6730 C.3   201  ROC201      0.0032
     39  C41       13.1190   20.5600   13.3080 C.3   201  ROC201      0.0001
     40  C51       14.6020   20.4430   12.8700 C.3   201  ROC201      0.0000
     41  C61       15.0970   21.8770   12.6480 C.3   201  ROC201      0.0000
     42  C71       15.0830   22.5920   14.0160 C.3   201  ROC201      0.0014
     43  C7A       13.6490   22.6920   14.5870 C.3   201  ROC201      0.0161
     44  C81       13.5980   23.4180   15.8900 C.3   201  ROC201      0.0725
     45  N3        13.6090   19.8900   18.9900 N.am  201  ROC201     -0.2077
     46  CD        14.0820   18.9460   20.0300 C.3   201  ROC201      0.0788
     47  C11       14.9210   17.8230   19.4070 C.3   201  ROC201      0.0217
     48  C22       12.7820   18.4370   20.7020 C.3   201  ROC201      0.0217
     49  C32       14.9810   19.7140   21.0550 C.3   201  ROC201      0.0217
@<TRIPOS>BOND
     1    41    40    1
     2    41    42    1
     3    40    39    1
     4    39    38    1
     5    42    43    1
     6    43    38    1
     7    43    44    1
     8    38    37    1
     9    20    18   am
    10    18    19    2
    11    18    17    1
    12    17    14    1
    13    37    34    1
    14    44    32    1
    15    16    15    2
    16    14    15    1
    17    14    13    1
    18    32    34    1
    19    32    33    1
    20    34    35    1
    21    15    24   am
    22    13     1   am
    23    24    23    1
    24    35    36    2
    25    35    45   am
    26    33    21    1
    27    21    23    1
    28    21    22    1
    29    23    25    1
    30     2     1    2
    31     1     4    1
    32     3     4    2
    33     3    12    2
    34    45    46    1
    35    10    12    1
    36    10     9    2
    37     4     5    1
    38    47    46    1
    39    12    11    1
    40     9     8    1
    41    25    26    1
    42    46    48    1
    43    46    49    1
    44    27    26   ar
    45    27    29   ar
    46    26    28   ar
    47     5     6    2
    48    29    31   ar
    49    11     6    1
    50    11     7    2
    51    28    30   ar
    52     8     7    1
    53    31    30   ar
