@<TRIPOS>MOLECULE
3d1z_017_B_1.pdb
 39 42 0 0 0
SMALL
GASTEIGER

@<TRIPOS>ATOM
      1  N1        21.0700   28.9230   14.0670 N.pl3 201  017201     -0.1281
      2  N1        10.5740   17.3600   20.0990 N.3   201  017201     -0.0749
      3  C2        20.4720   27.7580   14.4560 C.ar  201  017201      0.0892
      4  C3        19.1680   27.4880   14.0360 C.ar  201  017201      0.0194
      5  C4        18.5120   26.3270   14.4150 C.ar  201  017201      0.0213
      6  C5        19.2350   25.4050   15.1640 C.ar  201  017201      0.1223
      7  C6        20.5200   25.6440   15.6750 C.ar  201  017201      0.0213
      8  C7        21.1700   26.8230   15.2410 C.ar  201  017201      0.0194
      9  S8        18.3040   23.9630   15.8030 S.O2  201  017201      0.0634
     10  O9        17.0730   23.7540   14.8900 O.2   201  017201     -0.1528
     11  O10       19.3240   22.7760   16.0170 O.2   201  017201     -0.1528
     12  N11       17.6830   24.3310   17.4470 N.3   201  017201     -0.1529
     13  C12       18.6770   24.6800   18.4900 C.3   201  017201      0.0958
     14  C13       18.2560   24.0530   19.8520 C.3   201  017201      0.0178
     15  C14       18.1120   22.5400   19.7320 C.3   201  017201      0.0015
     16  C15       19.3780   24.3890   20.8290 C.3   201  017201      0.0015
     17  C16       16.3850   25.0950   17.4320 C.3   201  017201      0.1304
     18  C17       15.2450   24.1850   17.9850 C.3   201  017201      0.1898
     19  O18       14.0920   24.9990   18.2010 O.3   201  017201     -0.2197
     20  C19       14.8600   23.0250   16.9990 C.3   201  017201      0.1347
     21  N20       13.9850   22.1660   17.7370 N.am  201  017201     -0.1675
     22  C21       14.2760   20.8850   18.0330 C.2   201  017201      0.4211
     23  O22       15.3380   20.2430   17.7540 O.2   201  017201     -0.2246
     24  O23       13.2080   20.3040   18.7250 O.3   201  017201     -0.4345
     25  C24       13.3140   18.8590   18.9830 C.3   201  017201      0.2063
     26  C25       12.6640   18.5850   20.3540 C.3   201  017201      0.1897
     27  O26       11.2440   18.7390   20.1230 O.3   201  017201     -0.3165
     28  C27       11.0500   18.2250   18.7830 C.3   201  017201      0.2742
     29  O28       10.1480   19.1240   18.1140 O.3   201  017201     -0.3204
     30  C29       10.9100   19.6640   17.0010 C.3   201  017201      0.1464
     31  C30       11.9870   18.6030   16.6670 C.3   201  017201      0.0424
     32  C31       12.3210   18.1650   18.0720 C.3   201  017201      0.1154
     33  C32       14.1120   23.4850   15.7020 C.3   201  017201      0.0508
     34  C33       12.4140   21.9390   14.6750 C.ar  201  017201     -0.0042
     35  C34       12.0790   20.8650   13.8270 C.ar  201  017201     -0.0003
     36  C35       13.0950   20.1860   13.1440 C.ar  201  017201     -0.0000
     37  C36       14.4250   20.5780   13.2280 C.ar  201  017201     -0.0003
     38  C37       14.7790   21.6750   14.0430 C.ar  201  017201     -0.0042
     39  C38       13.7530   22.3410   14.7560 C.ar  201  017201     -0.0204
@<TRIPOS>BOND
     1    36    37   ar
     2    36    35   ar
     3    37    38   ar
     4    35    34   ar
     5     4     5   ar
     6     4     3   ar
     7    38    39   ar
     8     1     3    1
     9     5     6   ar
    10     3     8   ar
    11    34    39   ar
    12    39    33    1
    13    10     9    2
    14     6     7   ar
    15     6     9    1
    16     8     7   ar
    17    33    20    1
    18     9    11    2
    19     9    12    1
    20    31    30    1
    21    31    32    1
    22    20    21    1
    23    20    18    1
    24    30    29    1
    25    17    12    1
    26    17    18    1
    27    12    13    1
    28    21    22   am
    29    23    22    2
    30    18    19    1
    31    22    24    1
    32    32    28    1
    33    32    25    1
    34    29    28    1
    35    13    14    1
    36    24    25    1
    37    28     2    1
    38    28    27    1
    39    25    26    1
    40    15    14    1
    41    14    16    1
    42    27    26    1
