@<TRIPOS>MOLECULE
3d20_017_A_1.pdb
 38 41 0 0 0
SMALL
GASTEIGER

@<TRIPOS>ATOM
      1  N1         8.1160   14.3490   14.1960 N.pl3 201  017201     -0.1281
      2  C2         8.6440   15.5450   14.6020 C.ar  201  017201      0.0892
      3  C3         9.9760   15.8360   14.2900 C.ar  201  017201      0.0194
      4  C4        10.4970   17.0220   14.6930 C.ar  201  017201      0.0213
      5  C5         9.7360   17.9480   15.4070 C.ar  201  017201      0.1223
      6  C6         8.4220   17.6880   15.7250 C.ar  201  017201      0.0213
      7  C7         7.8320   16.4590   15.3260 C.ar  201  017201      0.0194
      8  S8        10.6250   19.3350   16.0840 S.O2  201  017201      0.0634
      9  O9        11.7300   19.5680   15.2000 O.2   201  017201     -0.1528
     10  O10        9.6790   20.3790   16.3190 O.2   201  017201     -0.1528
     11  N11       11.2530   18.9100   17.5790 N.3   201  017201     -0.1529
     12  C12       10.3020   18.6560   18.6580 C.3   201  017201      0.0958
     13  C13       10.6610   19.2800   20.0120 C.3   201  017201      0.0178
     14  C14       10.6970   20.8020   19.9450 C.3   201  017201      0.0015
     15  C15        9.7140   18.7750   21.1010 C.3   201  017201      0.0015
     16  C16       12.5730   18.2800   17.6490 C.3   201  017201      0.1304
     17  C17       13.6930   19.2040   18.1700 C.3   201  017201      0.1898
     18  O18       14.8190   18.3940   18.4620 O.3   201  017201     -0.2197
     19  C19       14.1020   20.3310   17.2110 C.3   201  017201      0.1347
     20  N20       15.0100   21.2060   17.9610 N.am  201  017201     -0.1675
     21  C21       14.6350   22.4890   18.2550 C.2   201  017201      0.4211
     22  O22       13.5790   23.0510   17.9210 O.2   201  017201     -0.2246
     23  O23       15.6070   23.0830   18.9850 O.3   201  017201     -0.4345
     24  C24       15.5490   24.5040   19.2320 C.3   201  017201      0.2048
     25  C25       16.2190   24.7410   20.5930 C.3   201  017201      0.1884
     26  O26       17.6190   24.6700   20.3010 O.3   201  017201     -0.3265
     27  C27       17.8640   25.2110   18.9930 C.3   201  017201      0.2388
     28  O28       18.6910   24.3040   18.2940 O.3   201  017201     -0.3304
     29  C29       17.9690   23.7420   17.2010 C.3   201  017201      0.1451
     30  C30       16.7760   24.6200   16.9270 C.3   201  017201      0.0409
     31  C31       16.4920   25.2860   18.2510 C.3   201  017201      0.1016
     32  C32       14.8750   19.8270   15.9520 C.3   201  017201      0.0508
     33  C33       16.5900   21.3500   14.8810 C.ar  201  017201     -0.0042
     34  C34       16.9820   22.4160   14.0690 C.ar  201  017201     -0.0003
     35  C35       15.9830   23.1230   13.4320 C.ar  201  017201     -0.0000
     36  C36       14.6700   22.7920   13.5890 C.ar  201  017201     -0.0003
     37  C37       14.2850   21.7480   14.3860 C.ar  201  017201     -0.0042
     38  C38       15.2560   20.9850   15.0650 C.ar  201  017201     -0.0204
@<TRIPOS>BOND
     1    35    36   ar
     2    35    34   ar
     3    36    37   ar
     4    34    33   ar
     5     1     2    1
     6     3     2   ar
     7     3     4   ar
     8    37    38   ar
     9     2     7   ar
    10     4     5   ar
    11    33    38   ar
    12    38    32    1
    13     9     8    2
    14     7     6   ar
    15     5     6   ar
    16     5     8    1
    17    32    19    1
    18     8    10    2
    19     8    11    1
    20    30    29    1
    21    30    31    1
    22    29    28    1
    23    19    20    1
    24    19    17    1
    25    11    16    1
    26    11    12    1
    27    16    17    1
    28    22    21    2
    29    20    21   am
    30    17    18    1
    31    31    27    1
    32    31    24    1
    33    21    23    1
    34    28    27    1
    35    12    13    1
    36    23    24    1
    37    27    26    1
    38    24    25    1
    39    14    13    1
    40    13    15    1
    41    26    25    1
