@<TRIPOS>MOLECULE
3d23_3IH_A_1.pdb
 49 51 0 0 0
SMALL
GASTEIGER

@<TRIPOS>ATOM
      1  N1         3.8620   38.4770  -69.8010 N.ar  1145  3IH1145    -0.0726
      2  C1         4.4260   37.7210  -68.7970 C.ar  1145  3IH1145     0.1774
      3  C2         5.3560   38.4570  -68.0340 C.ar  1145  3IH1145     0.0627
      4  C3         5.3350   39.7210  -68.5970 C.ar  1145  3IH1145     0.1550
      5  O1         4.4710   39.7760  -69.6590 O.2   1145  3IH1145    -0.3576
      6  C4         4.0760   36.2990  -68.6140 C.2   1145  3IH1145     0.2862
      7  O2         4.9170   35.4990  -68.2200 O.2   1145  3IH1145    -0.2666
      8  N2         2.8260   36.0010  -68.9370 N.am  1145  3IH1145    -0.1926
      9  C5         2.3640   34.6380  -68.8740 C.3   1145  3IH1145     0.1732
     10  C6         0.8520   34.5830  -69.0250 C.3   1145  3IH1145     0.0334
     11  C7         3.0080   33.9580  -70.0530 C.2   1145  3IH1145     0.2616
     12  O3         3.2420   34.6160  -71.0470 O.2   1145  3IH1145    -0.2715
     13  N3         3.3150   32.6600  -69.9420 N.am  1145  3IH1145    -0.1963
     14  C8         3.9220   31.8840  -71.0120 C.3   1145  3IH1145     0.1727
     15  C9         5.2700   31.3960  -70.4600 C.3   1145  3IH1145     0.0290
     16  C10        5.9540   30.3250  -71.3410 C.3   1145  3IH1145     0.0023
     17  C11        6.1940   32.5980  -70.1710 C.3   1145  3IH1145     0.0023
     18  C12        3.0230   30.7590  -71.4530 C.2   1145  3IH1145     0.2616
     19  O4         2.4560   29.9870  -70.6750 O.2   1145  3IH1145    -0.2715
     20  N4         2.8880   30.6840  -72.7630 N.am  1145  3IH1145    -0.1963
     21  C13        2.1110   29.6380  -73.4190 C.3   1145  3IH1145     0.1728
     22  C14        1.9380   30.1360  -74.8530 C.3   1145  3IH1145     0.0311
     23  C15        0.4980   30.2520  -75.3490 C.3   1145  3IH1145     0.0022
     24  C16       -0.5560   30.4090  -74.2650 C.3   1145  3IH1145     0.0001
     25  C17        0.4200   31.4060  -76.3320 C.3   1145  3IH1145     0.0001
     26  C19        3.3880   26.1110  -72.9530 C.3   1145  3IH1145     0.0970
     27  C20        2.9660   25.1470  -74.0530 C.3   1145  3IH1145     0.0333
     28  C21        3.1420   25.7110  -75.4490 C.3   1145  3IH1145     0.1113
     29  C22        4.2320   24.9500  -76.1230 C.2   1145  3IH1145     0.3174
     30  O6         3.9540   23.9110  -76.6980 O.2   1145  3IH1145    -0.2501
     31  O7         5.6030   25.4550  -76.0730 O.3   1145  3IH1145    -0.4435
     32  C23        6.1050   26.4220  -77.0220 C.3   1145  3IH1145     0.2350
     33  C24        7.1050   27.4040  -76.3870 C.ar  1145  3IH1145     0.0213
     34  C25        3.3970   25.4010  -71.5850 C.3   1145  3IH1145     0.0383
     35  C26        4.1880   26.2940  -70.5590 C.3   1145  3IH1145     0.1100
     36  C27        5.6710   26.4810  -71.0000 C.3   1145  3IH1145     0.0438
     37  C28        6.5430   26.3870  -69.6340 C.3   1145  3IH1145     0.1387
     38  N6         5.5360   25.8780  -68.6850 N.2   1145  3IH1145    -0.2063
     39  C29        4.2480   25.7700  -69.1330 C.1   1145  3IH1145     0.1250
     40  O8         3.2570   25.3360  -68.4920 O.2   1145  3IH1145    -0.2271
     41  C30        6.6670   28.3860  -75.4700 C.ar  1145  3IH1145    -0.0007
     42  C31        7.5650   29.2910  -74.8930 C.ar  1145  3IH1145    -0.0002
     43  C32        8.9210   29.2250  -75.2280 C.ar  1145  3IH1145    -0.0000
     44  C33        9.3690   28.2580  -76.1450 C.ar  1145  3IH1145    -0.0002
     45  C34        8.4720   27.3510  -76.7260 C.ar  1145  3IH1145    -0.0007
     46  C35        6.1720   40.8800  -68.1150 C.3   1145  3IH1145     0.0754
     47  C18        2.9690   28.4110  -73.4280 C.2   1145  3IH1145     0.2612
     48  O5         4.1000   28.4740  -73.9030 O.2   1145  3IH1145    -0.2715
     49  N5         2.4870   27.2770  -72.9150 N.am  1145  3IH1145    -0.2057
@<TRIPOS>BOND
     1    32    33    1
     2    32    31    1
     3    45    33   ar
     4    45    44   ar
     5    30    29    2
     6    33    41   ar
     7    25    23    1
     8    44    43   ar
     9    29    31    1
    10    29    28    1
    11    41    42   ar
    12    28    27    1
    13    23    22    1
    14    23    24    1
    15    43    42   ar
    16    22    21    1
    17    27    26    1
    18    48    47    2
    19    47    21    1
    20    47    49   am
    21    21    20    1
    22    26    49    1
    23    26    34    1
    24    20    18   am
    25    34    35    1
    26    18    14    1
    27    18    19    2
    28    16    15    1
    29    12    11    2
    30    14    15    1
    31    14    13    1
    32    36    35    1
    33    36    37    1
    34    35    39    1
    35    15    17    1
    36    11    13   am
    37    11     9    1
    38     1     5   ar
    39     1     2   ar
    40     5     4   ar
    41    37    38    1
    42    39    38    2
    43    39    40    2
    44    10     9    1
    45     8     9    1
    46     8     6   am
    47     2     6    1
    48     2     3   ar
    49     6     7    2
    50     4    46    1
    51     4     3   ar
