@<TRIPOS>MOLECULE
3d26_NGA_A_1.pdb
 14 14 0 0 0
SMALL
GASTEIGER

@<TRIPOS>ATOM
      1  C1       102.3320  106.2810 -127.5640 C.3   531  NGA531      0.1665
      2  C2       101.0230  106.1590 -128.3490 C.3   531  NGA531      0.1576
      3  C3        99.9360  107.0660 -127.7700 C.3   531  NGA531      0.2069
      4  C4        99.8420  106.8570 -126.2580 C.3   531  NGA531      0.2134
      5  C5       101.2400  106.9530 -125.6430 C.3   531  NGA531      0.1809
      6  C6       101.2180  106.8280 -124.1190 C.3   531  NGA531      0.2141
      7  C7       101.6980  105.5060 -130.6020 C.2   531  NGA531      0.2420
      8  C8       101.8030  105.9210 -132.0720 C.3   531  NGA531      0.0964
      9  N2       101.1970  106.4270 -129.7840 N.am  531  NGA531     -0.2019
     10  O3        98.6800  106.7450 -128.3760 O.3   531  NGA531     -0.2184
     11  O4        99.3020  105.5580 -126.0040 O.3   531  NGA531     -0.2176
     12  O5       102.0550  105.9160 -126.2070 O.3   531  NGA531     -0.3489
     13  O6       102.5530  106.9870 -123.6290 O.3   531  NGA531     -0.2176
     14  O7       102.0830  104.4010 -130.2260 O.2   531  NGA531     -0.2733
@<TRIPOS>BOND
     1     8     7    1
     2     7    14    2
     3     7     9   am
     4     9     2    1
     5    10     3    1
     6     2     3    1
     7     2     1    1
     8     3     4    1
     9     1    12    1
    10     4    11    1
    11     4     5    1
    12    12     5    1
    13     5     6    1
    14     6    13    1
