@<TRIPOS>MOLECULE
3d27_W29_A_1.pdb
 15 16 0 0 0
SMALL
GASTEIGER

@<TRIPOS>ATOM
      1  O2         1.3330   14.4750    9.5170 O.3   265  W29265     -0.2831
      2  C10        0.0100   14.1980    9.3210 C.ar  265  W29265      0.2343
      3  C05       -0.4300   13.8760    8.0500 C.ar  265  W29265      0.2343
      4  O1         0.4590   13.8440    7.0270 O.3   265  W29265     -0.2831
      5  C03       -1.7720   13.5850    7.8180 C.ar  265  W29265      0.0459
      6  C06       -0.9010   14.2360   10.3800 C.ar  265  W29265      0.0454
      7  C04       -2.2480   13.9450   10.1490 C.ar  265  W29265      0.0040
      8  C01       -2.6900   13.6180    8.8640 C.ar  265  W29265      0.0091
      9  C02       -4.1310   13.3110    8.5960 C.ar  265  W29265      0.0256
     10  S         -4.4990   11.9530    7.5870 S.2   265  W29265     -0.0868
     11  C07       -6.2250   12.1260    7.6580 C.ar  265  W29265      0.0351
     12  C09       -6.5180   13.2350    8.4590 C.ar  265  W29265      0.0032
     13  C08       -5.4220   13.9340    9.0060 C.ar  265  W29265     -0.0157
     14  C11       -5.5440   15.1530    9.8900 C.3   265  W29265      0.0269
     15  C12       -5.5740   14.7080   11.3300 C.3   265  W29265      0.0050
@<TRIPOS>BOND
     1     4     3    1
     2    10    11   ar
     3    10     9   ar
     4    11    12   ar
     5     5     3   ar
     6     5     8   ar
     7     3     2   ar
     8    12    13   ar
     9     9     8    1
    10     9    13   ar
    11     8     7   ar
    12    13    14    1
    13     2     1    1
    14     2     6   ar
    15    14    15    1
    16     7     6   ar
