@<TRIPOS>MOLECULE
3d28_B34_A_1.pdb
 28 31 0 0 0
SMALL
GASTEIGER

@<TRIPOS>ATOM
      1  O26       94.0900    5.5460   56.5450 O.2   579  B34579     -0.1463
      2  S28       94.7710    6.7180   56.0330 S.O2  579  B34579      0.1005
      3  O25       96.1290    7.0440   56.4170 O.2   579  B34579     -0.1463
      4  C12       93.7620    8.0760   56.4240 C.ar  579  B34579      0.1306
      5  C9        93.4450    8.5250   57.6880 C.ar  579  B34579      0.0205
      6  C5        92.6080    9.6440   57.7710 C.ar  579  B34579      0.0014
      7  N22       94.6080    6.8900   54.4010 N.2   579  B34579     -0.1275
      8  C13       93.8370    7.9020   54.1000 C.2   579  B34579      0.1108
      9  C10       93.2960    8.6630   55.2490 C.ar  579  B34579      0.0386
     10  C6        92.4630    9.7740   55.3300 C.ar  579  B34579      0.0029
     11  C2        92.1220   10.2630   56.6000 C.ar  579  B34579      0.0001
     12  C14       93.5820    8.2430   52.6880 C.2   579  B34579      0.1090
     13  C16       93.1160    9.5130   52.0700 C.2   579  B34579      0.2539
     14  O24       92.8170   10.5320   52.6760 O.2   579  B34579     -0.2697
     15  N23       93.0760    9.3000   50.6950 N.am  579  B34579     -0.2665
     16  C17       93.5190    7.9590   50.3140 C.3   579  B34579      0.1378
     17  C21       94.7420    7.9960   49.3770 C.3   579  B34579      0.0258
     18  C19       95.1820    6.6050   48.9270 C.3   579  B34579      0.0022
     19  C18       95.9530    8.7280   49.9700 C.3   579  B34579      0.0022
     20  C15       93.8010    7.3940   51.6790 C.2   579  B34579      0.1968
     21  O27       94.2450    6.1070   51.8490 O.2   579  B34579     -0.2894
     22  C20       92.6560   10.3120   49.7390 C.3   579  B34579      0.1208
     23  C11       91.2230   10.1650   49.3120 C.ar  579  B34579     -0.0023
     24  C7        90.8790   10.4270   47.9830 C.ar  579  B34579     -0.0026
     25  C3        89.5480   10.2960   47.5700 C.ar  579  B34579     -0.0003
     26  C8        90.2520    9.7680   50.2360 C.ar  579  B34579     -0.0026
     27  C4        88.9240    9.6300   49.8200 C.ar  579  B34579     -0.0003
     28  C1        88.5720    9.8980   48.4900 C.ar  579  B34579     -0.0000
@<TRIPOS>BOND
     1    25    24   ar
     2    25    28   ar
     3    24    23   ar
     4    28    27   ar
     5    18    17    1
     6    23    22    1
     7    23    26   ar
     8    17    19    1
     9    17    16    1
    10    22    15    1
    11    27    26   ar
    12    16    15    1
    13    16    20    1
    14    15    13   am
    15    20    21    1
    16    20    12    2
    17    13    14    2
    18    13    12    1
    19    12     8    1
    20     8     7    2
    21     8     9    1
    22     7     2    1
    23     9    10   ar
    24     9     4   ar
    25    10    11   ar
    26     2     3    2
    27     2     4    1
    28     2     1    2
    29     4     5   ar
    30    11     6   ar
    31     5     6   ar
