@<TRIPOS>MOLECULE
3d29_FEB_2_1.pdb
 39 38 0 0 0
SMALL
GASTEIGER

@<TRIPOS>ATOM
      1  N1        24.0590 -163.1560   57.7010 N.am    0  FEB0       -0.2031
      2  C2        24.1600 -163.4670   59.1440 C.3     0  FEB0        0.1282
      3  C3        25.0550 -162.4020   59.8480 C.3     0  FEB0        0.2036
      4  O4        24.5360 -161.0800   59.7400 O.3     0  FEB0       -0.2185
      5  C5        24.7540 -164.8990   59.3170 C.3     0  FEB0        0.0244
      6  C6        24.0780 -166.0520   58.5360 C.3     0  FEB0        0.0018
      7  C7        24.8310 -167.3540   58.8190 C.3     0  FEB0        0.0001
      8  C8        22.6170 -166.2890   58.9450 C.3     0  FEB0        0.0001
      9  N9        22.5530 -162.1060   54.6710 N.am    0  FEB0       -0.1963
     10  C10       23.6280 -161.9080   55.6500 C.3     0  FEB0        0.1733
     11  C11       23.2010 -162.3270   57.1010 C.2     0  FEB0        0.2613
     12  O12       22.1450 -161.9100   57.6380 O.2     0  FEB0       -0.2715
     13  C13       24.0780 -160.4370   55.6150 C.3     0  FEB0        0.0408
     14  C14       25.3800 -160.1550   56.4020 C.3     0  FEB0        0.0908
     15  C15       25.6310 -158.6910   56.7490 C.2     0  FEB0        0.2608
     16  O16       26.4550 -158.3950   57.5920 O.2     0  FEB0       -0.2717
     17  N17       24.9830 -157.7330   56.1190 N.am    0  FEB0       -0.0878
     18  N18       20.9280 -162.9920   51.5700 N.am    0  FEB0       -0.1972
     19  C19       20.9700 -163.1410   53.1390 C.3     0  FEB0        0.1819
     20  C20       22.3850 -163.1460   53.8500 C.2     0  FEB0        0.2621
     21  O21       23.2750 -164.0460   53.6700 O.2     0  FEB0       -0.2715
     22  C22       20.0150 -164.2850   53.6230 C.3     0  FEB0        0.1195
     23  C23       18.5790 -164.1070   53.0630 C.2     0  FEB0        0.2630
     24  O24       17.6400 -164.7590   53.4470 O.2     0  FEB0       -0.2716
     25  N25       18.3490 -163.1780   52.1620 N.am    0  FEB0       -0.0877
     26  C26       25.4020 -162.9930   49.9870 C.3     0  FEB0        0.0334
     27  C27       24.0830 -162.5920   49.3980 C.3     0  FEB0        0.1611
     28  C28       26.8940 -161.6930   51.6510 C.3     0  FEB0        0.0001
     29  C29       25.6780 -162.3600   51.4360 C.3     0  FEB0        0.0026
     30  C30       30.2920 -157.3250   56.7000 C.3     0  FEB0        0.0000
     31  C31       29.6070 -158.6710   56.6130 C.3     0  FEB0        0.0000
     32  C32       29.3990 -159.0290   55.1170 C.3     0  FEB0        0.0000
     33  C33       28.5780 -160.3490   54.9080 C.3     0  FEB0        0.0000
     34  C34       28.1910 -160.5760   53.4330 C.3     0  FEB0        0.0000
     35  C35       27.1420 -161.5910   53.1040 C.3     0  FEB0        0.0000
     36  C36       22.8040 -163.3370   50.0380 C.3     0  FEB0        0.1196
     37  O37       24.0570 -162.8730   48.0140 O.3     0  FEB0       -0.2226
     38  C38       21.8000 -162.4210   50.7510 C.2     0  FEB0        0.2444
     39  O49       21.7780 -161.2220   50.4720 O.2     0  FEB0       -0.2732
@<TRIPOS>BOND
     1    37    27    1
     2    27    26    1
     3    27    36    1
     4    26    29    1
     5    36    38    1
     6    39    38    2
     7    38    18   am
     8    29    28    1
     9    18    19    1
    10    28    35    1
    11    25    23   am
    12    23    24    2
    13    23    22    1
    14    35    34    1
    15    19    22    1
    16    19    20    1
    17    34    33    1
    18    21    20    2
    19    20     9   am
    20     9    10    1
    21    33    32    1
    22    32    31    1
    23    13    10    1
    24    13    14    1
    25    10    11    1
    26    17    15   am
    27    14    15    1
    28    31    30    1
    29    15    16    2
    30    11    12    2
    31    11     1   am
    32     1     2    1
    33     6     7    1
    34     6     8    1
    35     6     5    1
    36     2     5    1
    37     2     3    1
    38     4     3    1
