@<TRIPOS>MOLECULE
3d2d_REN_A_1.pdb
 24 26 0 0 0
SMALL
GASTEIGER

@<TRIPOS>ATOM
      1  C2        30.2720   33.3920   20.6930 C.ar  801  REN801      0.0419
      2  C3        31.0540   32.4580   20.0220 C.ar  801  REN801      0.2290
      3  C5        30.6720   32.0120   18.7640 C.ar  801  REN801      0.1770
      4  C8        29.5130   32.4960   18.1740 C.ar  801  REN801      0.0357
      5  C9        28.7260   33.4270   18.8380 C.ar  801  REN801     -0.0203
      6  C10       27.3390   33.7330   18.2800 C.3   801  REN801      0.0435
      7  C11       26.5910   34.7580   19.1180 C.3   801  REN801      0.0771
      8  N12       27.5530   35.6090   19.8020 N.3   801  REN801     -0.2685
      9  C14       28.2760   34.8600   20.8240 C.3   801  REN801      0.0843
     10  C16       27.3600   34.0890   21.7700 C.3   801  REN801      0.0469
     11  C17       26.9250   34.9150   22.9760 C.ar  801  REN801     -0.0171
     12  C25       27.7840   35.1020   24.0570 C.ar  801  REN801     -0.0009
     13  C24       27.3720   35.8560   25.1530 C.ar  801  REN801      0.0399
     14  C21       26.1000   36.4270   25.1720 C.ar  801  REN801      0.1773
     15  O22       25.6930   37.1720   26.2540 O.3   801  REN801     -0.4682
     16  C23       26.6360   37.5420   27.2580 C.3   801  REN801      0.2526
     17  C19       25.2430   36.2380   24.0880 C.ar  801  REN801      0.2290
     18  O20       23.9870   36.7900   24.0840 O.3   801  REN801     -0.2833
     19  C18       25.6560   35.4820   22.9960 C.ar  801  REN801      0.0410
     20  C1        29.1090   33.8750   20.1010 C.ar  801  REN801     -0.0080
     21  C13       26.9110   36.8130   20.3170 C.3   801  REN801      0.0899
     22  O6        31.4350   31.0950   18.0950 O.3   801  REN801     -0.4682
     23  C7        31.3580   31.0270   16.6730 C.3   801  REN801      0.2526
     24  O4        32.2000   31.9760   20.5940 O.3   801  REN801     -0.2833
@<TRIPOS>BOND
     1    23    22    1
     2    22     3    1
     3     4     3   ar
     4     4     5   ar
     5     6     5    1
     6     6     7    1
     7     3     2   ar
     8     5    20   ar
     9     7     8    1
    10     8    21    1
    11     8     9    1
    12     2    24    1
    13     2     1   ar
    14    20     1   ar
    15    20     9    1
    16     9    10    1
    17    10    11    1
    18    11    19   ar
    19    11    12   ar
    20    19    17   ar
    21    12    13   ar
    22    18    17    1
    23    17    14   ar
    24    13    14   ar
    25    14    15    1
    26    15    16    1
