@<TRIPOS>MOLECULE
3d2e_ATP_A_1.pdb
 31 33 0 0 0
SMALL
GASTEIGER

@<TRIPOS>ATOM
      1  PG        88.2830   75.8590  182.1110 P.3   1001  ATP1001     0.5373
      2  O1G       89.2420   75.5350  183.2250 O.3   1001  ATP1001    -0.1143
      3  O2G       88.8280   75.3100  180.8380 O.2   1001  ATP1001    -0.2221
      4  O3G       86.8260   75.5800  182.3340 O.3   1001  ATP1001    -0.1143
      5  PB        87.5300   78.6660  182.7590 P.3   1001  ATP1001     0.2277
      6  O1B       88.5480   79.4760  183.4680 O.2   1001  ATP1001    -0.5168
      7  O2B       86.4020   78.0720  183.5760 O.3   1001  ATP1001    -0.4368
      8  O3B       88.3630   77.4920  181.9610 O.3   1001  ATP1001    -0.2258
      9  PA        85.6650   80.3020  181.2070 P.3   1001  ATP1001     0.2189
     10  O1A       85.4640   81.2220  182.3710 O.3   1001  ATP1001    -0.4371
     11  O2A       84.5300   79.3940  180.7310 O.2   1001  ATP1001    -0.5170
     12  O3A       86.9870   79.4280  181.4420 O.3   1001  ATP1001    -0.2700
     13  O5'       85.9990   81.1680  179.9120 O.3   1001  ATP1001    -0.3112
     14  C5'       87.1140   82.0470  179.8260 C.3   1001  ATP1001     0.1813
     15  C4'       87.5510   81.9130  178.3820 C.3   1001  ATP1001     0.1821
     16  O4'       86.4420   82.3220  177.5560 O.3   1001  ATP1001    -0.3135
     17  C3'       88.7260   82.8150  178.0450 C.3   1001  ATP1001     0.2184
     18  O3'       89.5530   82.1360  177.1060 O.3   1001  ATP1001    -0.2174
     19  C2'       88.0670   83.9860  177.3480 C.3   1001  ATP1001     0.2570
     20  O2'       88.9230   84.5660  176.3980 O.3   1001  ATP1001    -0.2130
     21  C1'       86.9080   83.3340  176.6360 C.3   1001  ATP1001     0.3186
     22  N9        85.8820   84.3400  176.3080 N.pl3 1001  ATP1001    -0.1439
     23  C8        85.2140   85.0830  177.2090 C.3   1001  ATP1001     0.3377
     24  N7        84.3390   85.9070  176.6020 N.2   1001  ATP1001    -0.2095
     25  C5        84.4510   85.7020  175.2710 C.2   1001  ATP1001     0.2526
     26  C6        83.8020   86.2510  174.0490 C.2   1001  ATP1001     0.4393
     27  N6        82.8480   87.2040  174.1490 N.pl3 1001  ATP1001     0.2180
     28  N1        84.2040   85.7600  172.8510 N.2   1001  ATP1001     0.0021
     29  C2        85.1610   84.7920  172.7490 C.3   1001  ATP1001     0.5254
     30  N3        85.7740   84.2390  173.8150 N.2   1001  ATP1001    -0.0055
     31  C4        85.4700   84.6520  175.0790 C.2   1001  ATP1001     0.3518
@<TRIPOS>BOND
     1    29    28    1
     2    29    30    1
     3    28    26    2
     4    30    31    2
     5    26    27    1
     6    26    25    1
     7    31    25    1
     8    31    22    1
     9    25    24    2
    10    22    21    1
    11    22    23    1
    12    20    19    1
    13    24    23    1
    14    21    19    1
    15    21    16    1
    16    18    17    1
    17    19    17    1
    18    16    15    1
    19    17    15    1
    20    15    14    1
    21    14    13    1
    22    13     9    1
    23    11     9    2
    24     3     1    2
    25     9    12    1
    26     9    10    1
    27    12     5    1
    28     8     1    1
    29     8     5    1
    30     1     4    1
    31     1     2    1
    32     5     6    2
    33     5     7    1
