@<TRIPOS>MOLECULE
3d2f_ATP_A_1.pdb
 31 33 0 0 0
SMALL
GASTEIGER

@<TRIPOS>ATOM
      1  PG        88.0190   75.8530  183.4890 P.3   1001  ATP1001     0.5373
      2  O1G       88.9430   75.4100  184.5770 O.3   1001  ATP1001    -0.1143
      3  O2G       88.5110   75.4150  182.1570 O.2   1001  ATP1001    -0.2221
      4  O3G       86.5820   75.5500  183.8080 O.3   1001  ATP1001    -0.1143
      5  PB        87.3290   78.6610  184.1870 P.3   1001  ATP1001     0.2277
      6  O1B       88.2970   79.5120  184.9500 O.2   1001  ATP1001    -0.5168
      7  O2B       86.1730   78.0960  185.0040 O.3   1001  ATP1001    -0.4368
      8  O3B       88.1290   77.4810  183.3740 O.3   1001  ATP1001    -0.2258
      9  PA        85.4400   80.3050  182.6980 P.3   1001  ATP1001     0.2189
     10  O1A       85.3380   81.2540  183.8710 O.3   1001  ATP1001    -0.4371
     11  O2A       84.2310   79.4490  182.3710 O.2   1001  ATP1001    -0.5170
     12  O3A       86.7890   79.4450  182.8950 O.3   1001  ATP1001    -0.2700
     13  O5'       85.8030   81.1120  181.3690 O.3   1001  ATP1001    -0.3112
     14  C5'       86.9900   81.9190  181.3090 C.3   1001  ATP1001     0.1813
     15  C4'       87.4110   81.9460  179.8520 C.3   1001  ATP1001     0.1821
     16  O4'       86.2880   82.4020  179.0810 O.3   1001  ATP1001    -0.3135
     17  C3'       88.5730   82.8760  179.5550 C.3   1001  ATP1001     0.2184
     18  O3'       89.4610   82.2000  178.6520 O.3   1001  ATP1001    -0.2174
     19  C2'       87.9190   84.0430  178.8540 C.3   1001  ATP1001     0.2570
     20  O2'       88.7730   84.7080  177.9240 O.3   1001  ATP1001    -0.2130
     21  C1'       86.7590   83.3890  178.1530 C.3   1001  ATP1001     0.3186
     22  N9        85.7470   84.4180  177.8420 N.pl3 1001  ATP1001    -0.1439
     23  C8        85.0980   85.2000  178.7360 C.3   1001  ATP1001     0.3377
     24  N7        84.2430   86.0350  178.1010 N.2   1001  ATP1001    -0.2095
     25  C5        84.3450   85.7850  176.7720 C.2   1001  ATP1001     0.2526
     26  C6        83.7180   86.3010  175.5290 C.2   1001  ATP1001     0.4393
     27  N6        82.7900   87.2910  175.5960 N.pl3 1001  ATP1001     0.2180
     28  N1        84.1070   85.7490  174.3460 N.2   1001  ATP1001     0.0021
     29  C2        85.0210   84.7680  174.2760 C.3   1001  ATP1001     0.5254
     30  N3        85.6210   84.2500  175.3640 N.2   1001  ATP1001    -0.0055
     31  C4        85.3270   84.7040  176.6100 C.2   1001  ATP1001     0.3518
@<TRIPOS>BOND
     1    29    28    1
     2    29    30    1
     3    28    26    2
     4    30    31    2
     5    26    27    1
     6    26    25    1
     7    31    25    1
     8    31    22    1
     9    25    24    2
    10    22    21    1
    11    22    23    1
    12    20    19    1
    13    24    23    1
    14    21    19    1
    15    21    16    1
    16    18    17    1
    17    19    17    1
    18    16    15    1
    19    17    15    1
    20    15    14    1
    21    14    13    1
    22    13     9    1
    23     3     1    2
    24    11     9    2
    25     9    12    1
    26     9    10    1
    27    12     5    1
    28     8     1    1
    29     8     5    1
    30     1     4    1
    31     1     2    1
    32     5     6    2
    33     5     7    1
