@<TRIPOS>MOLECULE
3d2i_AK3_A_1.pdb
 32 35 0 0 0
SMALL
GASTEIGER

@<TRIPOS>ATOM
      1  C31        3.4400   32.9050    6.1900 C.2     1  AK31        0.1341
      2  N29        4.6100   31.2430    5.2990 N.pl3   1  AK31       -0.2154
      3  C24       12.7030   20.3960    8.9210 C.ar    1  AK31        0.0205
      4  C23       13.0000   19.2830    8.1300 C.ar    1  AK31        0.0727
      5  C22       12.2510   19.0120    6.9890 C.ar    1  AK31        0.0039
      6  C17        4.3060   31.0700    9.4380 C.3     1  AK31        0.3914
      7  C20       10.9120   20.9660    7.4290 C.ar    1  AK31        0.0166
      8  C15        3.9140   32.0660    7.1840 C.2     1  AK31        0.1102
      9  C13        5.2650   29.9740    7.4640 C.2     1  AK31        0.3595
     10  C14        4.6370   31.0290    6.6160 C.3     1  AK31        0.2407
     11  C10       10.7070   23.4060    8.9400 C.2     1  AK31        0.3495
     12  C8         9.8950   25.5410    9.5740 C.ar    1  AK31        0.1870
     13  C4         8.7360   27.3640    8.9110 C.ar    1  AK31        0.0334
     14  C6         9.1390   27.5600   10.2060 C.ar    1  AK31        0.1032
     15  C3         7.9430   28.4160    8.1580 C.3     1  AK31        0.0899
     16  C2         6.6250   27.8700    7.6190 C.3     1  AK31        0.2561
     17  F28       13.6280   17.2900    9.0900 F       1  AK31       -0.1659
     18  N7         9.7550   26.5100   10.4590 N.ar    1  AK31       -0.2213
     19  S5         9.1820   25.9620    8.2800 S.2     1  AK31       -0.0538
     20  C32        5.1770   30.5530    4.1100 C.3     1  AK31        0.1351
     21  N30        3.8720   32.3960    5.0090 N.2     1  AK31       -0.1783
     22  N16        3.7720   32.0780    8.5320 N.2     1  AK31       -0.2191
     23  N18        5.0920   30.0380    8.7860 N.2     1  AK31       -0.0353
     24  N1         5.9690   28.9750    6.9260 N.pl3   1  AK31       -0.0334
     25  C25       14.1220   18.3550    8.4880 C.3     1  AK31        0.4186
     26  F26       14.7270   17.9800    7.3760 F       1  AK31       -0.1659
     27  F27       14.9910   18.9590    9.2850 F       1  AK31       -0.1659
     28  C21       11.2080   19.8590    6.6360 C.ar    1  AK31        0.0013
     29  C19       11.6520   21.2440    8.5800 C.ar    1  AK31        0.0749
     30  N11       11.3910   22.3300    9.3560 N.am    1  AK31       -0.1606
     31  O12       10.2370   23.4810    7.8110 O.2     1  AK31       -0.2484
     32  N9        10.5510   24.4000    9.8200 N.am    1  AK31       -0.1356
@<TRIPOS>BOND
     1    20     2    1
     2    21     2    1
     3    21     1    2
     4     2    10    1
     5     1     8    1
     6    10     8    1
     7    10     9    1
     8    28     5   ar
     9    28     7   ar
    10    24     9    1
    11    24    16    1
    12     5     4   ar
    13     8    22    2
    14    26    25    1
    15     7    29   ar
    16     9    23    2
    17    16    15    1
    18    31    11    2
    19     4    25    1
    20     4     3   ar
    21    15    13    1
    22    19    13   ar
    23    19    12   ar
    24    25    17    1
    25    25    27    1
    26    22     6    1
    27    29     3   ar
    28    29    30    1
    29    23     6    1
    30    13    14   ar
    31    11    30   am
    32    11    32   am
    33    12    32    1
    34    12    18   ar
    35    14    18   ar
