@<TRIPOS>MOLECULE
3d2k_AK4_A_1.pdb
 32 35 0 0 0
SMALL
GASTEIGER

@<TRIPOS>ATOM
      1  C30       22.6800   15.4020   25.0470 C.2     1  AK41        0.3863
      2  C28       25.5440   17.9280   22.4050 C.2     1  AK41        0.1341
      3  C24       16.4650    5.3820   19.3320 C.ar    1  AK41        0.0280
      4  C23       16.0180    4.3070   20.1080 C.ar    1  AK41        0.0590
      5  C22       16.2720    4.2790   21.4760 C.ar    1  AK41        0.0115
      6  C17       24.4520   16.1920   19.3930 C.3     1  AK41        0.3914
      7  C20       17.4190    6.3930   21.2870 C.ar    1  AK41        0.0167
      8  C15       24.9750   17.0210   21.4830 C.2     1  AK41        0.1102
      9  C13       23.7320   14.9860   21.3050 C.2     1  AK41        0.3595
     10  C14       24.3510   15.9720   22.0700 C.3     1  AK41        0.2412
     11  C10       18.2440    8.6190   19.5230 C.2     1  AK41        0.3495
     12  C8        19.2250   10.7030   18.8650 C.ar    1  AK41        0.1870
     13  C4        20.3470   12.4990   19.7100 C.ar    1  AK41        0.0334
     14  C6        20.1030   12.6690   18.3940 C.ar    1  AK41        0.1032
     15  C3        21.0870   13.4910   20.5870 C.3     1  AK41        0.0899
     16  C2        22.4170   12.8830   21.0570 C.3     1  AK41        0.2561
     17  O32       22.4220   15.3920   26.2800 O.co2   1  AK41       -0.2437
     18  O31       21.8140   15.2990   24.1510 O.co2   1  AK41       -0.2437
     19  C29       24.1290   15.5280   24.6530 C.3     1  AK41        0.2253
     20  N26       24.4700   16.1990   23.3850 N.pl3   1  AK41       -0.2055
     21  N27       25.2090   17.3720   23.5990 N.2     1  AK41       -0.1779
     22  N18       23.8130   15.1490   19.9540 N.2     1  AK41       -0.0353
     23  N16       25.0420   17.1380   20.1410 N.2     1  AK41       -0.2191
     24  N1        23.0730   13.9170   21.8570 N.pl3   1  AK41       -0.0334
     25  S5        19.8000   11.1420   20.2710 S.2     1  AK41       -0.0538
     26  N7        19.4780   11.6510   17.9530 N.ar    1  AK41       -0.2213
     27  N9        18.5780    9.5450   18.6010 N.am    1  AK41       -0.1356
     28  O12       18.5000    8.7700   20.7100 O.2     1  AK41       -0.2484
     29  N11       17.6080    7.5150   19.1010 N.am    1  AK41       -0.1606
     30  C19       17.1700    6.4380   19.9140 C.ar    1  AK41        0.0758
     31 CL25       15.1060    2.9490   19.3570 Cl      1  AK41       -0.0822
     32  C21       16.9770    5.3250   22.0650 C.ar    1  AK41        0.0022
@<TRIPOS>BOND
     1    26    14   ar
     2    26    12   ar
     3    14    13   ar
     4    27    12    1
     5    27    11   am
     6    12    25   ar
     7    29    11   am
     8    29    30    1
     9     3    30   ar
    10     3     4   ar
    11    31     4    1
    12     6    22    1
    13     6    23    1
    14    11    28    2
    15    13    25   ar
    16    13    15    1
    17    30     7   ar
    18    22     9    2
    19     4     5   ar
    20    23     8    2
    21    15    16    1
    22    16    24    1
    23     7    32   ar
    24     9    24    1
    25     9    10    1
    26     5    32   ar
    27     8    10    1
    28     8     2    1
    29    10    20    1
    30     2    21    2
    31    20    21    1
    32    20    19    1
    33    18     1   ar
    34    19     1    1
    35     1    17   ar
