@<TRIPOS>MOLECULE
3d2m_GLU_A_1.pdb
 10 9 0 0 0
SMALL
GASTEIGER

@<TRIPOS>ATOM
      1  N         36.5080   -5.4200    9.5420 N.3   438  GLU438     -0.1208
      2  CA        37.6990   -5.6520    8.6500 C.3   438  GLU438      0.1949
      3  C         37.3190   -5.2310    7.2580 C.2   438  GLU438      0.3819
      4  O         36.1770   -4.8250    7.0360 O.co2 438  GLU438     -0.2441
      5  CB        38.0730   -7.1310    8.5550 C.3   438  GLU438      0.0424
      6  CG        38.4640   -7.8320    9.8310 C.3   438  GLU438      0.1161
      7  CD        38.1330   -9.3270    9.7740 C.2   438  GLU438      0.3649
      8  OE1       37.1650   -9.7250    9.0710 O.co2 438  GLU438     -0.2457
      9  OE2       38.8280  -10.0910   10.4600 O.co2 438  GLU438     -0.2457
     10  OXT       38.1600   -5.3290    6.3330 O.co2 438  GLU438     -0.2441
@<TRIPOS>BOND
     1    10     3   ar
     2     4     3   ar
     3     3     2    1
     4     5     2    1
     5     5     6    1
     6     2     1    1
     7     8     7   ar
     8     7     6    1
     9     7     9   ar
