@<TRIPOS>MOLECULE
3d2m_COA_A_1.pdb
 48 50 0 0 0
SMALL
GASTEIGER

@<TRIPOS>ATOM
      1  N1A       40.1920   -0.4250   20.7780 N.2   437  COA437      0.0021
      2  C2A       39.3960    0.1920   21.6630 C.3   437  COA437      0.5254
      3  N3A       39.0980    1.4880   21.5380 N.2   437  COA437     -0.0055
      4  C4A       39.5920    2.2110   20.5060 C.2   437  COA437      0.3518
      5  C5A       40.4260    1.5990   19.5610 C.2   437  COA437      0.2526
      6  C6A       40.7060    0.2570   19.7120 C.2   437  COA437      0.4393
      7  N6A       41.4990   -0.2990   18.8160 N.pl3 437  COA437      0.2180
      8  N7A       40.8090    2.4990   18.6550 N.2   437  COA437     -0.2095
      9  C8A       40.2130    3.6510   18.9770 C.3   437  COA437      0.3377
     10  N9A       39.4620    3.4780   20.1060 N.pl3 437  COA437     -0.1439
     11  C1B       38.6930    4.5810   20.7890 C.3   437  COA437      0.3185
     12  C2B       39.7560    5.7160   20.8890 C.3   437  COA437      0.2543
     13  O2B       40.7980    5.3740   21.8520 O.3   437  COA437     -0.2131
     14  C3B       38.8840    6.8850   21.3190 C.3   437  COA437      0.1928
     15  O3B       38.7990    6.7460   22.7470 O.3   437  COA437     -0.2673
     16  P3B       38.1410    7.9070   23.7590 P.3   437  COA437      0.5327
     17  O7A       36.5090    7.9020   23.5640 O.3   437  COA437     -0.1145
     18  O8A       38.4400    7.1510   25.1630 O.3   437  COA437     -0.1145
     19  O9A       38.8040    9.1730   23.3540 O.2   437  COA437     -0.2224
     20  C4B       37.5190    6.6110   20.5800 C.3   437  COA437      0.1795
     21  O4B       37.5940    5.2670   20.0460 O.3   437  COA437     -0.3136
     22  C5B       37.3340    7.4150   19.3040 C.3   437  COA437      0.1812
     23  O5B       36.1180    7.1290   18.6390 O.3   437  COA437     -0.3112
     24  P1A       35.7170    8.1670   17.4280 P.3   437  COA437      0.2189
     25  O1A       34.2330    8.2870   17.2830 O.2   437  COA437     -0.5170
     26  O2A       36.5210    9.4170   17.5100 O.3   437  COA437     -0.4371
     27  O3A       36.2870    7.4370   16.0270 O.3   437  COA437     -0.2703
     28  P2A       37.7080    7.6310   15.3570 P.3   437  COA437      0.2188
     29  O4A       38.7520    7.6320   16.3710 O.3   437  COA437     -0.4371
     30  O5A       37.6550    8.7100   14.3630 O.2   437  COA437     -0.5170
     31  O6A       37.8850    6.1190   14.5820 O.3   437  COA437     -0.3138
     32  CBP       38.6310    3.7470   14.6580 C.3   437  COA437      0.0645
     33  CCP       38.0060    4.9230   15.4160 C.3   437  COA437      0.1519
     34  CDP       37.9000    3.5620   13.2940 C.3   437  COA437      0.0056
     35  CEP       38.4970    2.4730   15.4980 C.3   437  COA437      0.0056
     36  CAP       40.1440    4.1040   14.4810 C.3   437  COA437      0.2312
     37  OAP       40.2040    5.4630   14.1460 O.3   437  COA437     -0.2131
     38  C9P       40.7400    3.4310   13.2470 C.2   437  COA437      0.2719
     39  O9P       40.4400    3.8540   12.1070 O.2   437  COA437     -0.2706
     40  N8P       41.5830    2.4350   13.5520 N.am  437  COA437     -0.2028
     41  C7P       42.2360    1.6290   12.5020 C.3   437  COA437      0.1249
     42  C6P       41.0920    1.1520   11.5680 C.3   437  COA437      0.1105
     43  C5P       40.2190    0.0810   12.2330 C.2   437  COA437      0.2471
     44  O5P       40.6170   -0.5810   13.2200 O.2   437  COA437     -0.2729
     45  N4P       39.0390   -0.0280   11.5880 N.am  437  COA437     -0.1816
     46  C3P       37.9940   -0.8330   11.8000 C.2   437  COA437      0.0748
     47  C2P       37.8790   -1.8130   12.7840 C.3   437  COA437      0.1127
     48  S1P       37.4680   -3.5160   12.1120 S.3   437  COA437     -0.0755
@<TRIPOS>BOND
     1    42    43    1
     2    42    41    1
     3    45    46    2
     4    45    43    1
     5    46    47    1
     6    39    38    2
     7    48    47    1
     8    43    44    2
     9    41    40    1
    10    38    40   am
    11    38    36    1
    12    34    32    1
    13    37    36    1
    14    30    28    2
    15    36    32    1
    16    31    28    1
    17    31    33    1
    18    32    33    1
    19    32    35    1
    20    28    27    1
    21    28    29    1
    22    27    24    1
    23    25    24    2
    24    24    26    1
    25    24    23    1
    26    23    22    1
    27     8     9    1
    28     8     5    2
    29     7     6    1
    30     9    10    1
    31    22    20    1
    32     5     6    1
    33     5     4    1
    34     6     1    2
    35    21    20    1
    36    21    11    1
    37    10     4    1
    38    10    11    1
    39     4     3    2
    40    20    14    1
    41     1     2    1
    42    11    12    1
    43    12    14    1
    44    12    13    1
    45    14    15    1
    46     3     2    1
    47    15    16    1
    48    19    16    2
    49    17    16    1
    50    16    18    1
