@<TRIPOS>MOLECULE
3d2p_COA_A_1.pdb
 48 50 0 0 0
SMALL
GASTEIGER

@<TRIPOS>ATOM
      1  N1A       -9.5570   64.7070   20.0120 N.2   437  COA437      0.0021
      2  C2A       -8.7720   63.8160   19.4220 C.3   437  COA437      0.5254
      3  N3A       -8.6870   62.5580   19.8690 N.2   437  COA437     -0.0055
      4  C4A       -9.4170   62.1540   20.9330 C.2   437  COA437      0.3518
      5  C5A      -10.2570   63.0630   21.5950 C.2   437  COA437      0.2526
      6  C6A      -10.3000   64.3770   21.1020 C.2   437  COA437      0.4393
      7  N6A      -11.0810   65.3120   21.6950 N.pl3 437  COA437      0.2180
      8  N7A      -10.8510   62.4100   22.6200 N.2   437  COA437     -0.2095
      9  C8A      -10.3910   61.1290   22.6010 C.3   437  COA437      0.3377
     10  N9A       -9.5220   60.9770   21.5660 N.pl3 437  COA437     -0.1439
     11  C1B       -8.7920   59.7930   21.1490 C.3   437  COA437      0.3185
     12  C2B       -8.3790   58.8830   22.2970 C.3   437  COA437      0.2543
     13  O2B       -7.2390   59.4190   23.0440 O.3   437  COA437     -0.2131
     14  C3B       -7.9280   57.6990   21.4410 C.3   437  COA437      0.1928
     15  O3B       -6.6410   58.0430   20.8700 O.3   437  COA437     -0.2673
     16  P3B       -5.6810   56.8360   20.3150 P.3   437  COA437      0.5327
     17  O7A       -5.2550   55.9830   21.6950 O.3   437  COA437     -0.1145
     18  O8A       -6.7870   55.9500   19.4080 O.2   437  COA437     -0.2224
     19  O9A       -4.5010   57.3510   19.5220 O.3   437  COA437     -0.1145
     20  C4B       -9.0330   57.6080   20.3550 C.3   437  COA437      0.1795
     21  O4B       -9.6570   58.9520   20.3340 O.3   437  COA437     -0.3136
     22  C5B      -10.0990   56.4850   20.7030 C.3   437  COA437      0.1812
     23  O5B      -11.1830   56.4260   19.7060 O.3   437  COA437     -0.3112
     24  P1A      -12.3010   55.2220   19.7910 P.3   437  COA437      0.2189
     25  O1A      -12.7670   54.7530   18.4380 O.2   437  COA437     -0.5170
     26  O2A      -11.8200   54.2400   20.8100 O.3   437  COA437     -0.4371
     27  O3A      -13.5310   56.1600   20.3380 O.3   437  COA437     -0.2703
     28  P2A      -13.8430   56.2620   21.9560 P.3   437  COA437      0.2188
     29  O4A      -12.6330   56.5560   22.7810 O.3   437  COA437     -0.4371
     30  O5A      -14.6420   55.0370   22.2840 O.2   437  COA437     -0.5170
     31  O6A      -14.8860   57.5220   21.8660 O.3   437  COA437     -0.3138
     32  CBP      -15.3530   59.9140   21.7580 C.3   437  COA437      0.0646
     33  CCP      -14.8220   58.6700   20.9880 C.3   437  COA437      0.1519
     34  CDP      -16.8570   59.7050   22.0650 C.3   437  COA437      0.0056
     35  CEP      -15.1080   61.2520   21.0320 C.3   437  COA437      0.0056
     36  CAP      -14.4780   59.9310   23.0000 C.3   437  COA437      0.2315
     37  OAP      -14.6310   58.7110   23.6950 O.3   437  COA437     -0.2131
     38  C9P      -14.7740   61.0100   24.0090 C.2   437  COA437      0.2758
     39  O9P      -13.8290   61.3510   24.7410 O.2   437  COA437     -0.2702
     40  N8P      -16.0250   61.4990   24.0950 N.am  437  COA437     -0.1800
     41  C7P      -16.2180   62.5650   25.1100 C.2   437  COA437      0.0720
     42  C6P      -17.5910   63.2820   25.0860 C.3   437  COA437      0.1312
     43  C5P      -18.0580   63.6880   23.7170 C.2   437  COA437      0.2512
     44  O5P      -17.4970   63.1640   22.7320 O.2   437  COA437     -0.2726
     45  N4P      -19.0880   64.5710   23.6950 N.am  437  COA437     -0.1813
     46  C3P      -19.5950   64.9750   22.5190 C.2   437  COA437      0.0748
     47  C2P      -19.0220   64.4710   21.3190 C.3   437  COA437      0.1127
     48  S1P      -19.7670   64.9550   19.7110 S.3   437  COA437     -0.0755
@<TRIPOS>BOND
     1    25    24    2
     2    18    16    2
     3     2     3    1
     4     2     1    1
     5    19    16    1
     6    23    24    1
     7    23    22    1
     8    48    47    1
     9    24    27    1
    10    24    26    1
    11     3     4    2
    12     1     6    2
    13    16    15    1
    14    16    17    1
    15    21    20    1
    16    21    11    1
    17    27    28    1
    18    20    22    1
    19    20    14    1
    20    15    14    1
    21     4    10    1
    22     4     5    1
    23    33    32    1
    24    33    31    1
    25    35    32    1
    26     6     5    1
    27     6     7    1
    28    11    10    1
    29    11    12    1
    30    47    46    1
    31    14    12    1
    32    10     9    1
    33     5     8    2
    34    32    34    1
    35    32    36    1
    36    31    28    1
    37    28    30    2
    38    28    29    1
    39    12    13    1
    40    46    45    2
    41     9     8    1
    42    44    43    2
    43    36    37    1
    44    36    38    1
    45    45    43    1
    46    43    42    1
    47    38    40    1
    48    38    39    2
    49    40    41    2
    50    42    41    1
