@<TRIPOS>MOLECULE
3d2p_ARG_A_1.pdb
 12 11 0 0 0
SMALL
GASTEIGER

@<TRIPOS>ATOM
      1  N        -20.7810   39.7600   35.7640 N.3   438  ARG438     -0.1208
      2  CA       -21.4090   39.5490   34.4180 C.3   438  ARG438      0.1944
      3  C        -21.9100   38.1080   34.3590 C.2   438  ARG438      0.3819
      4  O        -21.8590   37.4040   35.3660 O.co2 438  ARG438     -0.2441
      5  CB       -20.4000   39.8320   33.3140 C.3   438  ARG438      0.0343
      6  CG       -19.0310   39.1970   33.5560 C.3   438  ARG438      0.0490
      7  CD       -18.2350   38.8800   32.2530 C.3   438  ARG438      0.2205
      8  NE       -17.2600   37.8050   32.4630 N.pl3 438  ARG438     -0.0865
      9  CZ       -16.1630   37.5870   31.7250 C.cat 438  ARG438      0.5346
     10  NH1      -15.8480   38.3720   30.7040 N.pl3 438  ARG438      0.1354
     11  NH2      -15.3580   36.5730   32.0270 N.pl3 438  ARG438      0.1354
     12  OXT      -22.3580   37.5910   33.3430 O.co2 438  ARG438     -0.2441
@<TRIPOS>BOND
     1    10     9    1
     2     9    11    1
     3     9     8    2
     4     7     8    1
     5     7     6    1
     6     5     6    1
     7     5     2    1
     8    12     3   ar
     9     3     2    1
    10     3     4   ar
    11     2     1    1
