@<TRIPOS>MOLECULE
3d2r_ADP_A_1.pdb
 27 29 0 0 0
SMALL
GASTEIGER

@<TRIPOS>ATOM
      1  PB       -21.4650    5.3780   26.8680 P.3   501  ADP501      0.5373
      2  O1B      -20.9120    5.2790   28.3320 O.3   501  ADP501     -0.1143
      3  O2B      -22.8020    4.8120   26.7120 O.3   501  ADP501     -0.1143
      4  O3B      -21.3250    6.7530   26.3230 O.2   501  ADP501     -0.2221
      5  PA       -19.2740    4.6920   24.9660 P.3   501  ADP501      0.2231
      6  O1A      -19.6610    5.8800   24.1220 O.2   501  ADP501     -0.5169
      7  O2A      -18.8000    3.3610   24.4170 O.3   501  ADP501     -0.4370
      8  O3A      -20.4730    4.3680   26.0100 O.3   501  ADP501     -0.2261
      9  O5'      -18.0690    5.2780   25.9200 O.3   501  ADP501     -0.3111
     10  C5'      -17.6290    4.4310   27.0070 C.3   501  ADP501      0.1813
     11  C4'      -17.0160    5.2200   28.1780 C.3   501  ADP501      0.1821
     12  O4'      -15.8370    5.8360   27.6930 O.3   501  ADP501     -0.3135
     13  C3'      -17.8370    6.4340   28.6420 C.3   501  ADP501      0.2184
     14  O3'      -18.8850    6.0910   29.5670 O.3   501  ADP501     -0.2174
     15  C2'      -16.8040    7.3450   29.2270 C.3   501  ADP501      0.2570
     16  O2'      -16.4950    6.8590   30.5380 O.3   501  ADP501     -0.2130
     17  C1'      -15.5910    7.0780   28.3350 C.3   501  ADP501      0.3186
     18  N9       -15.3970    8.1520   27.3390 N.pl3 501  ADP501     -0.1439
     19  C8       -15.7080    8.1030   26.0150 C.3   501  ADP501      0.3377
     20  N7       -15.3340    9.2410   25.3880 N.2   501  ADP501     -0.2095
     21  C5       -14.7890   10.0470   26.3530 C.2   501  ADP501      0.2526
     22  C6       -14.2450   11.3730   26.4020 C.2   501  ADP501      0.4393
     23  N6       -14.2150   12.1620   25.2540 N.pl3 501  ADP501      0.2180
     24  N1       -13.6850   11.7930   27.5970 N.2   501  ADP501      0.0021
     25  C2       -13.7530   11.1090   28.7440 C.3   501  ADP501      0.5254
     26  N3       -14.2860    9.8880   28.7750 N.2   501  ADP501     -0.0055
     27  C4       -14.7950    9.3100   27.6250 C.2   501  ADP501      0.3518
@<TRIPOS>BOND
     1     6     5    2
     2     7     5    1
     3     5     9    1
     4     5     8    1
     5    23    22    1
     6    20    19    1
     7    20    21    2
     8     9    10    1
     9     8     1    1
    10    19    18    1
    11     4     1    2
    12    21    22    1
    13    21    27    1
    14    22    24    2
    15     3     1    1
    16     1     2    1
    17    10    11    1
    18    18    27    1
    19    18    17    1
    20    24    25    1
    21    27    26    2
    22    12    11    1
    23    12    17    1
    24    11    13    1
    25    17    15    1
    26    13    15    1
    27    13    14    1
    28    25    26    1
    29    15    16    1
