@<TRIPOS>MOLECULE
3d2t_1FL_A_1.pdb
 18 19 0 0 0
SMALL
GASTEIGER

@<TRIPOS>ATOM
      1  FAT        0.4510   40.5170    7.5950 F     502  1FL502     -0.2041
      2  CAN        0.4980   41.6850    8.4420 C.ar  502  1FL502      0.1423
      3  CAM        0.0120   41.5230    9.6890 C.ar  502  1FL502      0.0592
      4  CAF        0.0760   42.5400   10.6580 C.ar  502  1FL502      0.1424
      5  FAE       -0.4060   42.3580   11.9120 F     502  1FL502     -0.2041
      6  CAG        0.6360   43.7390   10.3630 C.ar  502  1FL502      0.0298
      7  CAH        1.0970   43.9330    9.1440 C.ar  502  1FL502      0.0045
      8  CAO        1.0750   42.9210    8.0660 C.ar  502  1FL502      0.0276
      9  CAP        1.5800   43.2020    6.7640 C.ar  502  1FL502      0.0026
     10  CAI        0.8200   42.9120    5.5280 C.ar  502  1FL502      0.0099
     11  CAJ        1.2610   43.0800    4.3110 C.ar  502  1FL502      0.1186
     12  CAC        0.3150   42.6970    3.1020 C.2   502  1FL502      0.3909
     13  OAD       -1.0880   42.5280    3.3410 O.co2 502  1FL502     -0.2404
     14  OAB        0.6960   42.5510    2.0580 O.co2 502  1FL502     -0.2404
     15  CAQ        2.8350   43.7130    6.5430 C.ar  502  1FL502      0.0034
     16  CAR        3.2730   43.9490    5.3300 C.ar  502  1FL502      0.0423
     17  CAK        2.5560   43.6530    4.2500 C.ar  502  1FL502      0.2020
     18  OAL        3.1400   43.9360    2.9710 O.3   502  1FL502     -0.2863
@<TRIPOS>BOND
     1    14    12   ar
     2    18    17    1
     3    12    13   ar
     4    12    11    1
     5    17    11   ar
     6    17    16   ar
     7    11    10   ar
     8    16    15   ar
     9    10     9   ar
    10    15     9   ar
    11     9     8    1
    12     1     2    1
    13     8     2   ar
    14     8     7   ar
    15     2     3   ar
    16     7     6   ar
    17     3     4   ar
    18     6     4   ar
    19     4     5    1
