@<TRIPOS>MOLECULE
3d2y_III_B_1.pdb
 42 43 0 0 0
SMALL
GASTEIGER

@<TRIPOS>ATOM
      1  C1        27.0070   40.9120   98.0230 C.3     1  AH01        0.2585
      2  C2        28.3390   41.3900   97.4090 C.3     1  AH01        0.1810
      3  N2        29.5070   40.6630   97.9240 N.am    1  AH01       -0.1994
      4  C7        30.6750   40.7170   97.2810 C.2     1  AH01        0.2420
      5  O7        30.7730   41.0830   96.1050 O.2     1  AH01       -0.2733
      6  C8        31.8580   40.2380   98.0510 C.3     1  AH01        0.0964
      7  C3        28.5450   42.9100   97.6010 C.3     1  AH01        0.1733
      8  O3        27.8470   43.6540   96.5900 O.3     1  AH01       -0.3449
      9  C4        28.0310   43.4020   98.9660 C.3     1  AH01        0.2102
     10  O4        29.0420   43.1730   99.9500 O.3     1  AH01       -0.2178
     11  C5        26.7170   42.7030   99.3490 C.3     1  AH01        0.1800
     12  O5        27.0140   41.3120   99.3900 O.3     1  AH01       -0.3263
     13  C6        25.6700   42.8210   98.2330 C.3     1  AH01        0.1770
     14  O6        25.9120   41.6270   97.4530 O.3     1  AH01       -0.3265
     15  CA        28.6920   44.1680   95.5690 C.3     1  AH01        0.1926
     16  CB        28.5570   45.6870   95.4650 C.3     1  AH01        0.0421
     17  C         28.2650   43.4470   94.2980 C.2     1  AH01        0.2689
     18  O         27.1650   43.7300   93.7880 O.2     1  AH01       -0.2707
     19  N         28.8600   42.2590   94.1430 N.am    2  ALA2       -0.1957
     20  CA        28.5230   41.3370   93.0160 C.3     2  ALA2        0.1729
     21  C         27.0860   40.8340   93.1070 C.2     2  ALA2        0.2617
     22  O         26.5840   40.5670   94.1870 O.2     2  ALA2       -0.2715
     23  CB        29.4730   40.1420   93.0210 C.3     2  ALA2        0.0334
     24  N         26.4300   40.6820   91.9570 N.am    3  FGA3       -0.1941
     25  CA        25.1490   39.9480   91.9080 C.3     3  FGA3        0.1983
     26  C         23.9850   40.8280   91.4490 C.2     3  FGA3        0.3842
     27  O         22.7800   40.6030   91.7430 O.co2   3  FGA3       -0.2437
     28  CB        25.3240   38.6950   90.9990 C.3     3  FGA3        0.0429
     29  CG        24.1230   37.7650   90.9050 C.3     3  FGA3        0.0892
     30  CD        24.1620   36.8380   89.6790 C.2     3  FGA3        0.2419
     31  OE1       24.9210   37.1280   88.7040 O.2     3  FGA3       -0.2733
     32  OXT       24.2300   41.8000   90.7480 O.co2   3  FGA3       -0.2437
     33  N         23.5370   35.6600   89.8150 N.am    4  LYS4       -0.1956
     34  CA        23.2880   34.7310   88.6630 C.3     4  LYS4        0.1977
     35  C         22.5330   35.4650   87.5540 C.2     4  LYS4        0.3842
     36  O         22.5660   35.0520   86.3900 O.co2   4  LYS4       -0.2437
     37  CB        22.4630   33.5190   89.1060 C.3     4  LYS4        0.0333
     38  CG        21.0360   33.8530   89.4760 C.3     4  LYS4        0.0039
     39  CD        20.2310   32.6040   89.8620 C.3     4  LYS4        0.0206
     40  CE        18.7720   32.9830   90.0690 C.3     4  LYS4        0.1093
     41  NZ        17.8220   31.8280   89.8980 N.3     4  LYS4       -0.1314
     42  OXT       21.8760   36.4800   87.7780 O.co2   4  LYS4       -0.2437
@<TRIPOS>BOND
     1    36    35   ar
     2    35    42   ar
     3    35    34    1
     4    34    37    1
     5    34    33    1
     6    31    30    2
     7    37    38    1
     8    38    39    1
     9    30    33   am
    10    30    29    1
    11    39    40    1
    12    41    40    1
    13    32    26   ar
    14    29    28    1
    15    28    25    1
    16    26    27   ar
    17    26    25    1
    18    25    24    1
    19    24    21   am
    20    20    23    1
    21    20    21    1
    22    20    19    1
    23    21    22    2
    24    18    17    2
    25    19    17   am
    26    17    15    1
    27    16    15    1
    28    15     8    1
    29     5     4    2
    30     8     7    1
    31     4     3   am
    32     4     6    1
    33     2     7    1
    34     2     3    1
    35     2     1    1
    36    14     1    1
    37    14    13    1
    38     7     9    1
    39     1    12    1
    40    13    11    1
    41     9    11    1
    42     9    10    1
    43    11    12    1
