@<TRIPOS>MOLECULE
3d2z_III_B_1.pdb
 24 23 0 0 0
SMALL
GASTEIGER

@<TRIPOS>ATOM
      1  N        -39.1010    3.6060   29.2700 N.3     1  ALA1       -0.1231
      2  CA       -39.7510    3.4300   27.9410 C.3     1  ALA1        0.1694
      3  C        -40.8550    2.3590   27.9500 C.2     1  ALA1        0.2593
      4  O        -41.5040    2.1340   26.9240 O.2     1  ALA1       -0.2718
      5  CB       -38.6960    3.1540   26.8470 C.3     1  ALA1        0.0304
      6  N        -41.0630    1.7110   29.1020 N.am    2  FGA2       -0.1944
      7  CA       -42.2590    0.8740   29.3540 C.3     2  FGA2        0.1983
      8  C        -41.9330   -0.5950   29.6250 C.2     2  FGA2        0.3842
      9  O        -42.7300   -1.4650   29.3240 O.co2   2  FGA2       -0.2437
     10  CB       -43.0640    1.4430   30.5300 C.3     2  FGA2        0.0429
     11  CG       -44.5730    1.5620   30.3270 C.3     2  FGA2        0.0892
     12  CD       -45.3290    1.8770   31.6360 C.2     2  FGA2        0.2419
     13  OE1      -44.7050    2.3010   32.6430 O.2     2  FGA2       -0.2733
     14  OXT      -40.8880   -0.9670   30.1540 O.co2   2  FGA2       -0.2437
     15  N        -46.6400    1.6490   31.6530 N.am    3  LYS3       -0.1956
     16  CA       -47.3860    1.8410   32.9160 C.3     3  LYS3        0.1977
     17  C        -47.1930    0.6310   33.8240 C.2     3  LYS3        0.3842
     18  O        -47.2000    0.7560   35.0480 O.co2   3  LYS3       -0.2437
     19  CB       -48.8570    2.1750   32.6640 C.3     3  LYS3        0.0333
     20  CG       -49.8050    1.0100   32.5200 C.3     3  LYS3        0.0039
     21  CD       -49.9080    0.5050   31.0850 C.3     3  LYS3        0.0206
     22  CE       -51.2450   -0.1970   30.8450 C.3     3  LYS3        0.1093
     23  NZ       -52.3780    0.7710   31.0310 N.3     3  LYS3       -0.1314
     24  OXT      -46.9910   -0.4970   33.3690 O.co2   3  LYS3       -0.2437
@<TRIPOS>BOND
     1     5     2    1
     2     4     3    2
     3     2     3    1
     4     2     1    1
     5     3     6   am
     6     6     7    1
     7     9     8   ar
     8     7     8    1
     9     7    10    1
    10     8    14   ar
    11    11    10    1
    12    11    12    1
    13    22    23    1
    14    22    21    1
    15    21    20    1
    16    12    15   am
    17    12    13    2
    18    15    16    1
    19    20    19    1
    20    19    16    1
    21    16    17    1
    22    24    17   ar
    23    17    18   ar
