@<TRIPOS>MOLECULE
3d36_ADP_A_1.pdb
 27 29 0 0 0
SMALL
GASTEIGER

@<TRIPOS>ATOM
      1  PB        -0.2050   -2.2540   84.2580 P.3   500  ADP500      0.5373
      2  O1B       -0.5230   -3.6000   84.8530 O.3   500  ADP500     -0.1143
      3  O2B       -1.3320   -1.2600   84.3600 O.3   500  ADP500     -0.1143
      4  O3B        0.4030   -2.3280   82.8820 O.2   500  ADP500     -0.2221
      5  PA         0.9200   -0.5290   86.2800 P.3   500  ADP500      0.2231
      6  O1A        0.1080    0.6250   85.7410 O.2   500  ADP500     -0.5169
      7  O2A        2.3270   -0.2790   86.7690 O.3   500  ADP500     -0.4370
      8  O3A        1.0090   -1.6960   85.1650 O.3   500  ADP500     -0.2261
      9  O5'        0.0930   -1.2050   87.4860 O.3   500  ADP500     -0.3111
     10  C5'        0.5840   -2.3980   88.0920 C.3   500  ADP500      0.1813
     11  C4'       -0.5370   -3.2130   88.7310 C.3   500  ADP500      0.1821
     12  O4'       -1.0730   -2.5270   89.8620 O.3   500  ADP500     -0.3135
     13  C3'       -1.7290   -3.4620   87.8190 C.3   500  ADP500      0.2184
     14  O3'       -1.5340   -4.6110   86.9900 O.3   500  ADP500     -0.2174
     15  C2'       -2.8640   -3.6600   88.7960 C.3   500  ADP500      0.2570
     16  O2'       -2.9190   -5.0160   89.2310 O.3   500  ADP500     -0.2130
     17  C1'       -2.4740   -2.7990   89.9850 C.3   500  ADP500      0.3186
     18  N9        -3.2650   -1.5420   89.9680 N.pl3 500  ADP500     -0.1439
     19  C8        -2.8030   -0.3240   89.6370 C.3   500  ADP500      0.3377
     20  N7        -3.7790    0.6130   89.7250 N.2   500  ADP500     -0.2095
     21  C5        -4.9030   -0.0140   90.1140 C.2   500  ADP500      0.2526
     22  C6        -6.3020    0.3810   90.3910 C.2   500  ADP500      0.4393
     23  N6        -6.6980    1.6700   90.2700 N.pl3 500  ADP500      0.2180
     24  N1        -7.1660   -0.5890   90.7750 N.2   500  ADP500      0.0021
     25  C2        -6.7880   -1.8790   90.9010 C.3   500  ADP500      0.5254
     26  N3        -5.5320   -2.3050   90.6600 N.2   500  ADP500     -0.0055
     27  C4        -4.5620   -1.4370   90.2720 C.2   500  ADP500      0.3518
@<TRIPOS>BOND
     1     4     1    2
     2     1     3    1
     3     1     2    1
     4     1     8    1
     5     8     5    1
     6     6     5    2
     7     5     7    1
     8     5     9    1
     9    14    13    1
    10     9    10    1
    11    13    11    1
    12    13    15    1
    13    10    11    1
    14    11    12    1
    15    15    16    1
    16    15    17    1
    17    19    20    1
    18    19    18    1
    19    20    21    2
    20    12    17    1
    21    18    17    1
    22    18    27    1
    23    21    27    1
    24    21    22    1
    25    23    22    1
    26    27    26    2
    27    22    24    2
    28    26    25    1
    29    24    25    1
