@<TRIPOS>MOLECULE
3d38_HEC_C_1.pdb
 43 50 0 0 0
SMALL
GASTEIGER

@<TRIPOS>ATOM
      1 FE         28.3640  138.3070   86.8230 Fe    401  HEC401      0.0000
      2  CHA       29.9660  137.4080   83.9640 C.2   401  HEC401      0.0000
      3  CHB       30.0660  141.3120   86.8840 C.2   401  HEC401      0.0000
      4  CHC       26.4870  139.3900   89.5360 C.2   401  HEC401      0.0000
      5  CHD       27.0440  135.2010   87.1170 C.2   401  HEC401      0.0000
      6  NA        29.7020  139.2330   85.6020 N.2   401  HEC401      0.0000
      7  C1A       30.3500  138.5970   84.5570 C.2   401  HEC401      0.0000
      8  C2A       31.5050  139.4030   84.1970 C.2   401  HEC401      0.0000
      9  C3A       31.5240  140.4820   85.0020 C.2   401  HEC401      0.0000
     10  C4A       30.3930  140.3950   85.9020 C.2   401  HEC401      0.0000
     11  CMA       32.5520  141.6060   84.9850 C.3   401  HEC401      0.0000
     12  CAA       32.5130  139.0790   83.0780 C.3   401  HEC401      0.0000
     13  CBA       33.6660  138.2170   83.6100 C.3   401  HEC401      0.0000
     14  CGA       34.8790  138.3750   82.6850 C.2   401  HEC401      0.0000
     15  O1A       34.9860  137.6000   81.7030 O.co2 401  HEC401      0.0000
     16  O2A       35.7260  139.2730   82.9370 O.co2 401  HEC401      0.0000
     17  NB        28.3270  140.0260   88.0370 N.ar  401  HEC401      0.0000
     18  C1B       29.0490  141.1810   87.8060 C.ar  401  HEC401      0.0000
     19  C2B       28.5510  142.2200   88.6980 C.ar  401  HEC401      0.0000
     20  C3B       27.5650  141.7010   89.4260 C.ar  401  HEC401      0.0000
     21  C4B       27.4040  140.3000   89.0280 C.ar  401  HEC401      0.0000
     22  CMB       29.0510  143.6620   88.7870 C.3   401  HEC401      0.0000
     23  CAB       26.7570  142.4520   90.5000 C.3   401  HEC401      0.0000
     24  CBB       26.2100  143.7670   89.9510 C.3   401  HEC401      0.0000
     25  NC        27.0390  137.4460   88.1200 N.2   401  HEC401      0.0000
     26  C1C       26.3200  138.0750   89.1230 C.2   401  HEC401      0.0000
     27  C2C       25.4630  137.0750   89.7480 C.2   401  HEC401      0.0000
     28  C3C       25.5290  135.9690   88.9960 C.2   401  HEC401      0.0000
     29  C4C       26.5790  136.1490   88.0120 C.2   401  HEC401      0.0000
     30  CMC       24.3780  137.3720   90.7810 C.3   401  HEC401      0.0000
     31  CAC       24.7400  134.6930   89.2170 C.3   401  HEC401      0.0000
     32  CBC       23.6380  134.6250   88.1590 C.3   401  HEC401      0.0000
     33  ND        28.5680  136.5590   85.7700 N.ar  401  HEC401      0.0000
     34  C1D       27.7520  135.4680   85.9600 C.ar  401  HEC401      0.0000
     35  C2D       27.7810  134.6690   84.7420 C.ar  401  HEC401      0.0000
     36  C3D       28.5930  135.2850   83.8620 C.ar  401  HEC401      0.0000
     37  C4D       29.1000  136.4880   84.5030 C.ar  401  HEC401      0.0000
     38  CMD       27.0290  133.3640   84.4890 C.3   401  HEC401      0.0000
     39  CAD       28.9140  134.7890   82.4460 C.3   401  HEC401      0.0000
     40  CBD       28.3050  135.7460   81.4140 C.3   401  HEC401      0.0000
     41  CGD       28.2060  135.0630   80.0490 C.2   401  HEC401      0.0000
     42  O1D       27.5900  135.6660   79.1250 O.co2 401  HEC401      0.0000
     43  O2D       28.7420  133.9310   79.9050 O.co2 401  HEC401      0.0000
@<TRIPOS>BOND
     1    42    41   ar
     2    43    41   ar
     3    41    40    1
     4    40    39    1
     5    15    14   ar
     6    39    36    1
     7    14    16   ar
     8    14    13    1
     9    12    13    1
    10    12     8    1
    11    36    37   ar
    12    36    35   ar
    13     2    37    2
    14     2     7    1
    15     8     7    1
    16     8     9    2
    17    38    35    1
    18    37    33   ar
    19     7     6    2
    20    35    34   ar
    21    11     9    1
    22     9    10    1
    23     6    10    1
    24     6     1    1
    25    33    34   ar
    26    33     1    1
    27    10     3    2
    28    34     5    2
    29     1    17    1
    30     1    25    1
    31     3    18    1
    32     5    29    1
    33    18    17   ar
    34    18    19   ar
    35    29    25    2
    36    29    28    1
    37    17    21   ar
    38    25    26    1
    39    32    31    1
    40    19    22    1
    41    19    20   ar
    42    28    31    1
    43    28    27    2
    44    21    20   ar
    45    21     4    1
    46    26     4    2
    47    26    27    1
    48    20    23    1
    49    27    30    1
    50    24    23    1
