@<TRIPOS>MOLECULE
3d38_NS5_M_1.pdb
 40 39 0 0 0
SMALL
GASTEIGER

@<TRIPOS>ATOM
      1  C1       -21.6480  102.1820  103.3260 C.3   600  NS5600      0.0000
      2  CM1      -23.0820  101.9570  103.8540 C.3   600  NS5600      0.0000
      3  CM2      -20.9960  103.4120  103.9600 C.3   600  NS5600      0.0000
      4  C2       -20.7330  100.9360  103.4480 C.3   600  NS5600      0.0003
      5  C3       -19.2350  101.3060  103.4360 C.3   600  NS5600      0.0043
      6  C4       -18.3440  100.1050  103.8420 C.3   600  NS5600      0.0217
      7  C5       -17.5350  100.3150  105.1710 C.2   600  NS5600     -0.0482
      8  C6       -18.2510  100.7150  106.4790 C.3   600  NS5600      0.0260
      9  C7       -16.1630  100.1330  105.2200 C.2   600  NS5600     -0.0343
     10  C8       -15.3220   99.7240  104.0580 C.3   600  NS5600      0.0297
     11  C9       -14.2320  100.7540  103.7020 C.3   600  NS5600      0.0267
     12  C10      -14.7900  101.7090  102.6520 C.2   600  NS5600     -0.0436
     13  C11      -14.8410  103.1970  102.9370 C.3   600  NS5600      0.0264
     14  C12      -15.2400  101.2200  101.4850 C.2   600  NS5600     -0.0085
     15  C13      -15.8190  102.0560  100.4240 C.2   600  NS5600     -0.0010
     16  C14      -16.5360  101.3920   99.5080 C.2   600  NS5600     -0.0043
     17  C15      -17.2130  101.9950   98.3770 C.2   600  NS5600     -0.0218
     18  C16      -17.6190  103.4330   98.4180 C.3   600  NS5600      0.0310
     19  C17      -17.4690  101.1930   97.3230 C.2   600  NS5600     -0.0043
     20  C18      -18.1700  101.6470   96.1360 C.2   600  NS5600     -0.0003
     21  C19      -18.2310  100.9260   94.9930 C.2   600  NS5600     -0.0003
     22  C20      -17.5770   99.6240   94.7540 C.2   600  NS5600     -0.0043
     23  C21      -17.9610   98.8580   93.6910 C.2   600  NS5600     -0.0218
     24  C22      -19.0500   99.3310   92.7790 C.3   600  NS5600      0.0310
     25  C23      -17.3030   97.5570   93.4130 C.2   600  NS5600     -0.0043
     26  C24      -17.7590   96.6970   92.4940 C.2   600  NS5600     -0.0006
     27  C25      -17.0260   95.4400   92.2760 C.2   600  NS5600     -0.0043
     28  C26      -17.5850   94.3170   91.7600 C.2   600  NS5600     -0.0218
     29  C27      -19.0420   94.2660   91.3960 C.3   600  NS5600      0.0310
     30  C28      -16.7520   93.1020   91.5900 C.2   600  NS5600     -0.0043
     31  C29      -16.8510   92.2520   90.5450 C.2   600  NS5600     -0.0010
     32  C30      -15.9500   91.0930   90.5680 C.2   600  NS5600     -0.0085
     33  C31      -16.3870   89.8210   90.4300 C.2   600  NS5600     -0.0439
     34  C32      -17.8470   89.5350   90.2220 C.3   600  NS5600      0.0264
     35  C33      -15.3880   88.6700   90.5120 C.3   600  NS5600      0.0220
     36  C34      -14.9550   88.1490   89.1440 C.3   600  NS5600      0.0043
     37  C35      -13.4670   87.7560   89.1520 C.3   600  NS5600      0.0003
     38  C36      -13.2100   86.3260   89.6420 C.3   600  NS5600      0.0000
     39  CM3      -12.1360   86.3010   90.7310 C.3   600  NS5600      0.0000
     40  CM4      -12.8280   85.4110   88.4810 C.3   600  NS5600      0.0000
@<TRIPOS>BOND
     1    40    38    1
     2    36    37    1
     3    36    35    1
     4    37    38    1
     5    38    39    1
     6    34    33    1
     7    33    35    1
     8    33    32    2
     9    31    32    1
    10    31    30    2
    11    29    28    1
    12    30    28    1
    13    28    27    2
    14    27    26    1
    15    26    25    2
    16    24    23    1
    17    25    23    1
    18    23    22    2
    19    22    21    1
    20    21    20    2
    21    20    19    1
    22    19    17    2
    23    17    18    1
    24    17    16    1
    25    16    15    2
    26    15    14    1
    27    14    12    2
    28    12    13    1
    29    12    11    1
    30     1     4    1
    31     1     2    1
    32     1     3    1
    33     5     4    1
    34     5     6    1
    35    11    10    1
    36     6     7    1
    37    10     9    1
    38     7     9    2
    39     7     8    1
