@<TRIPOS>MOLECULE
3d38_UQ1_L_1.pdb
 18 18 0 0 0
SMALL
GASTEIGER

@<TRIPOS>ATOM
      1  C1       -41.0910   99.8180  107.5900 C.2   502  UQ1502      0.2285
      2  O1       -40.5880   99.4780  108.6810 O.2   502  UQ1502     -0.2835
      3  C2       -42.5760   99.9650  107.4630 C.2   502  UQ1502      0.2140
      4  O2       -43.3900   99.7210  108.5470 O.2   502  UQ1502     -0.4652
      5  CM2      -44.4740   98.8000  108.4260 C.3   502  UQ1502      0.2528
      6  C3       -43.1800  100.3760  106.1550 C.2   502  UQ1502      0.2140
      7  O3       -44.5510  100.5120  106.0480 O.2   502  UQ1502     -0.4652
      8  CM3      -45.2240  100.0900  104.8650 C.3   502  UQ1502      0.2528
      9  C4       -42.2920  100.6390  104.9760 C.2   502  UQ1502      0.2282
     10  O4       -42.7840  100.9810  103.8780 O.2   502  UQ1502     -0.2836
     11  C5       -40.8120  100.4940  105.1070 C.2   502  UQ1502      0.0198
     12  CM5      -39.9230  100.7600  103.9200 C.3   502  UQ1502      0.0343
     13  C6       -40.2050  100.0930  106.4140 C.2   502  UQ1502      0.0235
     14  C7       -38.6920   99.9340  106.5120 C.3   502  UQ1502      0.0548
     15  C8       -38.0700  100.6440  107.6850 C.2   502  UQ1502     -0.0298
     16  C9       -36.7880  101.0240  107.5670 C.2   502  UQ1502     -0.0475
     17  C10      -36.0430  100.7380  106.2930 C.3   502  UQ1502      0.0260
     18  C11      -36.0880  101.7380  108.6860 C.3   502  UQ1502      0.0260
@<TRIPOS>BOND
     1    10     9    2
     2    12    11    1
     3     8     7    1
     4     9    11    1
     5     9     6    1
     6    11    13    2
     7     7     6    1
     8     6     3    2
     9    17    16    1
    10    13    14    1
    11    13     1    1
    12    14    15    1
    13     3     1    1
    14     3     4    1
    15    16    15    2
    16    16    18    1
    17     1     2    2
    18     5     4    1
