@<TRIPOS>MOLECULE
3d3d_NAG_A_1.pdb
 15 15 0 0 0
SMALL
GASTEIGER

@<TRIPOS>ATOM
      1  C1        83.8100   88.5820  141.9820 C.3   1401  NAG1401     0.2917
      2  C2        82.8510   89.1920  140.9770 C.3   1401  NAG1401     0.1871
      3  C3        83.0840   88.5730  139.6200 C.3   1401  NAG1401     0.2095
      4  C4        84.5590   88.6240  139.2310 C.3   1401  NAG1401     0.2136
      5  C5        85.4600   88.1210  140.3520 C.3   1401  NAG1401     0.1835
      6  C6        86.9200   88.3660  140.0250 C.3   1401  NAG1401     0.2142
      7  C7        80.9080   89.7530  142.2620 C.2   1401  NAG1401     0.2421
      8  C8        79.4150   89.5520  142.4890 C.3   1401  NAG1401     0.0964
      9  N2        81.4860   88.9440  141.3850 N.am  1401  NAG1401    -0.1991
     10  O1        83.6210   89.1600  143.2200 O.3   1401  NAG1401    -0.1879
     11  O3        82.3190   89.2920  138.6670 O.3   1401  NAG1401    -0.2183
     12  O4        84.7670   87.8230  138.0610 O.3   1401  NAG1401    -0.2176
     13  O5        85.1530   88.8290  141.5660 O.3   1401  NAG1401    -0.3242
     14  O6        87.7910   87.9170  141.0560 O.3   1401  NAG1401    -0.2176
     15  O7        81.5200   90.6330  142.8710 O.2   1401  NAG1401    -0.2733
@<TRIPOS>BOND
     1    12     4    1
     2    11     3    1
     3     4     3    1
     4     4     5    1
     5     3     2    1
     6     6     5    1
     7     6    14    1
     8     5    13    1
     9     2     9    1
    10     2     1    1
    11     9     7   am
    12    13     1    1
    13     1    10    1
    14     7     8    1
    15     7    15    2
