@<TRIPOS>MOLECULE
3d3e_D3E_A_1.pdb
 31 34 0 0 0
SMALL
GASTEIGER

@<TRIPOS>ATOM
      1  F25        7.5890   -4.5930   13.9800 F     293  D3E293     -0.1671
      2  C21        8.4300   -4.5650   15.0030 C.3   293  D3E293      0.4263
      3  F23        9.5080   -3.8630   14.7190 F     293  D3E293     -0.1671
      4  F24        8.8450   -5.7950   15.2450 F     293  D3E293     -0.1671
      5  C2         7.8240   -3.9080   16.2800 C.3   293  D3E293      0.2317
      6  C1         6.9770   -4.8540   17.1510 C.3   293  D3E293      0.0465
      7  O22        9.0100   -3.6110   16.9790 O.3   293  D3E293     -0.2124
      8  C3         7.0850   -2.6080   15.9750 C.ar  293  D3E293      0.0132
      9  C8         5.7960   -2.5910   15.4340 C.ar  293  D3E293     -0.0015
     10  C7         5.1390   -1.3890   15.1660 C.ar  293  D3E293      0.0043
     11  C6         5.7460   -0.1630   15.4130 C.ar  293  D3E293      0.0536
     12  C5         7.0250   -0.1820   15.9550 C.ar  293  D3E293      0.0043
     13  C4         7.6820   -1.3770   16.2300 C.ar  293  D3E293     -0.0015
     14  C9         5.0560    1.1270   15.1620 C.2   293  D3E293      0.2489
     15  O11        4.1780    1.4860   15.9400 O.2   293  D3E293     -0.2699
     16  N10        5.4070    1.9610   14.1030 N.am  293  D3E293     -0.2793
     17  C12        5.8370    3.3120   14.4100 C.3   293  D3E293      0.0757
     18  C14        4.7910    4.0840   15.1630 C.3   293  D3E293      0.0215
     19  C13        4.8030    4.1370   13.6920 C.3   293  D3E293      0.0215
     20  C15        5.8450    1.3830   12.7990 C.3   293  D3E293      0.0756
     21  C20        7.1690    2.0590   12.3810 C.3   293  D3E293      0.0202
     22  C19        7.7350    1.4960   11.0740 C.3   293  D3E293      0.0061
     23  C18        6.6850    1.5870    9.9670 C.3   293  D3E293      0.0240
     24  C17        5.4290    0.8380   10.4090 C.3   293  D3E293      0.0061
     25  C16        4.8360    1.5060   11.6510 C.3   293  D3E293      0.0202
     26  C26        7.1470    1.0200    8.6560 C.ar  293  D3E293     -0.0033
     27  C31        7.8320   -0.1820    8.5820 C.ar  293  D3E293     -0.0011
     28  C30        8.2120   -0.6610    7.3370 C.ar  293  D3E293      0.0204
     29  C29        7.8780    0.0660    6.2010 C.ar  293  D3E293      0.0989
     30  N28        7.2070    1.2190    6.2520 N.ar  293  D3E293     -0.2426
     31  C27        6.8490    1.6740    7.4600 C.ar  293  D3E293      0.0946
@<TRIPOS>BOND
     1    29    30   ar
     2    29    28   ar
     3    30    31   ar
     4    28    27   ar
     5    31    26   ar
     6    27    26   ar
     7    26    23    1
     8    23    24    1
     9    23    22    1
    10    24    25    1
    11    22    21    1
    12    25    20    1
    13    21    20    1
    14    20    16    1
    15    19    17    1
    16    19    18    1
    17     1     2    1
    18    16    17    1
    19    16    14   am
    20    17    18    1
    21     3     2    1
    22     2     4    1
    23     2     5    1
    24    14    11    1
    25    14    15    2
    26    10    11   ar
    27    10     9   ar
    28    11    12   ar
    29     9     8   ar
    30    12    13   ar
    31     8    13   ar
    32     8     5    1
    33     5     7    1
    34     5     6    1
