@<TRIPOS>MOLECULE
3d3e_NAP_A_1.pdb
 48 52 0 0 0
SMALL
GASTEIGER

@<TRIPOS>ATOM
      1  PA         9.3530   -4.7650   23.4590 P.3     1  NAP1        0.2189
      2  O1A       10.4510   -3.9540   24.0300 O.3     1  NAP1       -0.4371
      3  O2A        9.7740   -5.5620   22.2890 O.2     1  NAP1       -0.5170
      4  O5B        8.7620   -5.7100   24.6120 O.3     1  NAP1       -0.3112
      5  C5B        7.5810   -6.4340   24.3880 C.3     1  NAP1        0.1813
      6  C4B        7.1200   -6.8830   25.7570 C.3     1  NAP1        0.1820
      7  O4B        5.9090   -7.6160   25.6590 O.3     1  NAP1       -0.3136
      8  C3B        8.1770   -7.8010   26.3510 C.3     1  NAP1        0.2157
      9  O3B        8.2880   -7.5550   27.7330 O.3     1  NAP1       -0.2175
     10  C2B        7.6140   -9.1810   26.1320 C.3     1  NAP1        0.2314
     11  O2B        8.0410  -10.0580   27.1490 O.3     1  NAP1       -0.2630
     12  C1B        6.1150   -8.9030   26.1980 C.3     1  NAP1        0.3158
     13  N9A        5.3610   -9.9480   25.5070 N.pl3   1  NAP1       -0.1439
     14  C8A        5.5730  -10.5120   24.2750 C.3     1  NAP1        0.3377
     15  N7A        4.6340  -11.4670   24.0810 N.2     1  NAP1       -0.2095
     16  C5A        3.8450  -11.5190   25.1890 C.2     1  NAP1        0.2526
     17  C6A        2.7520  -12.2930   25.5560 C.2     1  NAP1        0.4393
     18  N6A        2.2640  -13.2170   24.7400 N.pl3   1  NAP1        0.2180
     19  N1A        2.1630  -12.0960   26.7810 N.2     1  NAP1        0.0021
     20  C2A        2.6420  -11.1450   27.6480 C.3     1  NAP1        0.5254
     21  N3A        3.7250  -10.3840   27.2900 N.2     1  NAP1       -0.0055
     22  C4A        4.3030  -10.5700   26.0850 C.2     1  NAP1        0.3518
     23  O3         8.1760   -3.7430   23.1070 O.3     1  NAP1       -0.2703
     24  PN         8.3830   -2.1720   22.9200 P.3     1  NAP1        0.2189
     25  O1N        8.9060   -1.6720   24.2190 O.3     1  NAP1       -0.4371
     26  O2N        9.1180   -1.9510   21.6510 O.2     1  NAP1       -0.5170
     27  O5D        6.8870   -1.6050   22.7350 O.3     1  NAP1       -0.3112
     28  C5D        6.0180   -1.5460   23.8460 C.3     1  NAP1        0.1813
     29  C4D        4.6810   -0.9040   23.4900 C.3     1  NAP1        0.1799
     30  O4D        4.8710    0.3190   22.8040 O.3     1  NAP1       -0.3327
     31  C3D        3.8310   -1.7880   22.5900 C.3     1  NAP1        0.2158
     32  O3D        2.5100   -1.6650   23.0360 O.3     1  NAP1       -0.2175
     33  C2D        3.9540   -1.1460   21.2300 C.3     1  NAP1        0.2309
     34  O2D        2.7840   -1.3410   20.4750 O.3     1  NAP1       -0.2158
     35  C1D        4.1480    0.3110   21.5920 C.3     1  NAP1        0.2263
     36  N1N        4.9060    0.9810   20.5300 N.pl3   1  NAP1       -0.2787
     37  C2N        6.2260    0.6840   20.3520 C.3     1  NAP1        0.1244
     38  C3N        6.9380    1.3280   19.3360 C.2     1  NAP1        0.0544
     39  C7N        8.4170    1.1210   19.1690 C.2     1  NAP1        0.2818
     40  O7N        8.9990    1.4260   17.9230 O.2     1  NAP1       -0.2670
     41  N7N        9.1470    0.6600   20.1850 N.am    1  NAP1       -0.0839
     42  C4N        6.3000    2.2470   18.5070 C.2     1  NAP1        0.0033
     43  C5N        4.9540    2.5300   18.6960 C.2     1  NAP1        0.0157
     44  C6N        4.2700    1.8880   19.7250 C.2     1  NAP1        0.0633
     45  P2B        8.1540  -11.6470   26.9000 P.3     1  NAP1        0.5328
     46  O1X        8.9920  -12.2760   27.9880 O.3     1  NAP1       -0.1145
     47  O2X        6.7660  -12.2290   27.0010 O.3     1  NAP1       -0.1145
     48  O3X        8.7910  -11.9630   25.5750 O.2     1  NAP1       -0.2224
@<TRIPOS>BOND
     1    40    39    2
     2    42    43    1
     3    42    38    2
     4    43    44    2
     5    39    38    1
     6    39    41   am
     7    38    37    1
     8    44    36    1
     9    37    36    1
    10    34    33    1
    11    36    35    1
    12    33    35    1
    13    33    31    1
    14    35    30    1
    15    26    24    2
    16     3     1    2
    17    31    32    1
    18    31    29    1
    19    27    24    1
    20    27    28    1
    21    30    29    1
    22    24    23    1
    23    24    25    1
    24    23     1    1
    25     1     2    1
    26     1     4    1
    27    29    28    1
    28    15    14    1
    29    15    16    2
    30    14    13    1
    31     5     4    1
    32     5     6    1
    33    18    17    1
    34    16    17    1
    35    16    22    1
    36    13    22    1
    37    13    12    1
    38    17    19    2
    39    48    45    2
    40     7     6    1
    41     7    12    1
    42     6     8    1
    43    22    21    2
    44    10    12    1
    45    10     8    1
    46    10    11    1
    47     8     9    1
    48    19    20    1
    49    45    47    1
    50    45    11    1
    51    45    46    1
    52    21    20    1
