@<TRIPOS>MOLECULE
3d3f_NDP_A_1.pdb
 48 52 0 0 0
SMALL
GASTEIGER

@<TRIPOS>ATOM
      1  PA       -18.5240   18.8100  -30.0680 P.3     1  NDP1        0.2189
      2  O1A      -19.2510   17.5370  -29.8480 O.3     1  NDP1       -0.4371
      3  O2A      -17.1230   18.5520  -30.4530 O.2     1  NDP1       -0.5170
      4  O5B      -19.2080   19.7260  -31.2190 O.3     1  NDP1       -0.3112
      5  C5B      -20.4090   20.4320  -31.1100 C.3     1  NDP1        0.1813
      6  C4B      -20.4410   21.5950  -32.0960 C.3     1  NDP1        0.1820
      7  O4B      -20.3810   21.0580  -33.3950 O.3     1  NDP1       -0.3136
      8  C3B      -21.7890   22.2940  -31.9560 C.3     1  NDP1        0.2157
      9  O3B      -21.7530   23.7110  -32.1560 O.3     1  NDP1       -0.2175
     10  C2B      -22.6320   21.6530  -33.0390 C.3     1  NDP1        0.2314
     11  O2B      -23.5240   22.5740  -33.5780 O.3     1  NDP1       -0.2630
     12  C1B      -21.6480   21.1420  -34.0720 C.3     1  NDP1        0.3158
     13  N9A      -22.1030   19.8550  -34.6470 N.pl3   1  NDP1       -0.1439
     14  C8A      -22.5390   18.7300  -33.9730 C.3     1  NDP1        0.3377
     15  N7A      -22.9010   17.7660  -34.8620 N.2     1  NDP1       -0.2095
     16  C5A      -22.6900   18.2450  -36.1010 C.2     1  NDP1        0.2526
     17  C6A      -22.8490   17.6550  -37.3470 C.2     1  NDP1        0.4393
     18  N6A      -22.8860   16.3180  -37.4750 N.pl3   1  NDP1        0.2180
     19  N1A      -22.5630   18.4250  -38.4480 N.2     1  NDP1        0.0021
     20  C2A      -22.0930   19.7260  -38.3340 C.3     1  NDP1        0.5254
     21  N3A      -21.9040   20.2900  -37.0820 N.2     1  NDP1       -0.0055
     22  C4A      -22.2010   19.5570  -35.9820 C.2     1  NDP1        0.3518
     23  O3       -18.5490   19.8570  -28.8140 O.3     1  NDP1       -0.2703
     24  PN       -18.8160   19.6920  -27.2090 P.3     1  NDP1        0.2189
     25  O1N      -17.8550   20.6300  -26.5720 O.3     1  NDP1       -0.4371
     26  O2N      -20.2880   19.7980  -26.9420 O.2     1  NDP1       -0.5170
     27  O5D      -18.4530   18.2040  -26.7300 O.3     1  NDP1       -0.3112
     28  C5D      -19.5340   17.3180  -26.5370 C.3     1  NDP1        0.1813
     29  C4D      -19.6720   17.0590  -25.0560 C.3     1  NDP1        0.1799
     30  O4D      -18.4310   16.8390  -24.3880 O.3     1  NDP1       -0.3327
     31  C3D      -20.3050   18.2390  -24.3310 C.3     1  NDP1        0.2158
     32  O3D      -21.6770   18.4270  -24.6340 O.3     1  NDP1       -0.2175
     33  C2D      -20.0140   17.8650  -22.9000 C.3     1  NDP1        0.2309
     34  O2D      -20.9720   16.9580  -22.4030 O.3     1  NDP1       -0.2158
     35  C1D      -18.6260   17.2160  -23.0290 C.3     1  NDP1        0.2263
     36  N1N      -17.6200   18.1990  -22.5890 N.pl3   1  NDP1       -0.2787
     37  C2N      -17.0340   17.9220  -21.4240 C.3     1  NDP1        0.1244
     38  C3N      -16.0130   18.7090  -20.8970 C.2     1  NDP1        0.0544
     39  C7N      -15.4140   18.2830  -19.5800 C.2     1  NDP1        0.2818
     40  O7N      -14.6700   19.2370  -18.8880 O.2     1  NDP1       -0.2670
     41  N7N      -15.6190   17.0450  -19.0960 N.am    1  NDP1       -0.0839
     42  C4N      -15.5520   19.9570  -21.6260 C.2     1  NDP1        0.0033
     43  C5N      -16.2760   20.1780  -22.9130 C.2     1  NDP1        0.0157
     44  C6N      -17.2570   19.2960  -23.3210 C.2     1  NDP1        0.0633
     45  P2B      -25.0790   22.3940  -33.2780 P.3     1  NDP1        0.5328
     46  O1X      -25.7870   23.5910  -33.8970 O.3     1  NDP1       -0.1145
     47  O2X      -25.4000   22.1710  -31.8050 O.3     1  NDP1       -0.1145
     48  O3X      -25.6020   21.1690  -34.0060 O.2     1  NDP1       -0.2224
@<TRIPOS>BOND
     1    19    20    1
     2    19    17    2
     3    20    21    1
     4    18    17    1
     5    17    16    1
     6    21    22    2
     7    16    22    1
     8    16    15    2
     9    22    13    1
    10    15    14    1
    11    13    12    1
    12    13    14    1
    13    12     7    1
    14    12    10    1
    15    48    45    2
    16    46    45    1
    17    11    45    1
    18    11    10    1
    19     7     6    1
    20    45    47    1
    21    10     8    1
    22     9     8    1
    23     6     8    1
    24     6     5    1
    25     4     5    1
    26     4     1    1
    27     3     1    2
    28     1     2    1
    29     1    23    1
    30    23    24    1
    31    24    26    2
    32    24    27    1
    33    24    25    1
    34    27    28    1
    35    28    29    1
    36    29    30    1
    37    29    31    1
    38    32    31    1
    39    30    35    1
    40    31    33    1
    41    44    43    2
    42    44    36    1
    43    35    33    1
    44    35    36    1
    45    43    42    1
    46    33    34    1
    47    36    37    1
    48    42    38    2
    49    37    38    1
    50    38    39    1
    51    39    41   am
    52    39    40    2
