@<TRIPOS>MOLECULE
3d3p_20A_A_1.pdb
 28 31 0 0 0
SMALL
GASTEIGER

@<TRIPOS>ATOM
      1  O14       48.7370   47.4590   65.9110 O.2   505  20A505     -0.2683
      2  C8        47.6420   47.2230   66.4350 C.2   505  20A505      0.2679
      3  N5        47.4610   47.3780   67.7610 N.am  505  20A505     -0.1967
      4  C18       48.5190   47.8010   68.6620 C.3   505  20A505      0.1418
      5  C22       48.5640   49.3180   68.6080 C.ar  505  20A505     -0.0006
      6  C24       49.5440   50.0260   67.9310 C.ar  505  20A505     -0.0026
      7  C26       49.5300   51.4200   67.8750 C.ar  505  20A505     -0.0003
      8  C4        48.5330   52.0680   68.4860 C.ar  505  20A505     -0.0000
      9  C27       47.5450   51.4630   69.1490 C.ar  505  20A505     -0.0003
     10  C25       47.5400   50.0630   69.2020 C.ar  505  20A505     -0.0026
     11  C3        46.5230   46.9490   65.5170 C.ar  505  20A505      0.0891
     12  C7        45.2640   47.1010   66.0630 C.ar  505  20A505      0.1064
     13  N11       44.1410   46.9620   65.3410 N.ar  505  20A505     -0.2251
     14  C13       44.2400   46.6600   64.0360 C.ar  505  20A505      0.1621
     15  N10       43.2520   46.4720   63.0700 N.ar  505  20A505     -0.2340
     16  C17       41.7780   46.5480   63.2910 C.3   505  20A505      0.1292
     17  C21       41.2190   45.1820   63.7030 C.3   505  20A505      0.0285
     18  N12       43.8430   46.1940   61.8630 N.ar  505  20A505     -0.1663
     19  C2        45.5280   46.5060   63.4440 C.ar  505  20A505      0.0713
     20  C6        45.1960   46.1880   62.0650 C.ar  505  20A505      0.1245
     21  C1        46.7060   46.6190   64.1660 C.ar  505  20A505      0.0756
     22  N4        47.9450   46.4820   63.6620 N.pl3 505  20A505     -0.2388
     23  C9        48.3760   45.8860   62.3850 C.3   505  20A505      0.0975
     24  C15       49.5740   44.9320   62.6020 C.3   505  20A505      0.0537
     25  C19       50.0370   44.3830   61.2430 C.3   505  20A505      0.1439
     26  O23       50.3730   45.4890   60.4310 O.3   505  20A505     -0.3537
     27  C20       49.3040   46.3370   60.0250 C.3   505  20A505      0.1439
     28  C16       48.6770   46.9270   61.3080 C.3   505  20A505      0.0537
@<TRIPOS>BOND
     1    27    26    1
     2    27    28    1
     3    26    25    1
     4    25    24    1
     5    28    23    1
     6    18    20   ar
     7    18    15   ar
     8    20    19   ar
     9    23    24    1
    10    23    22    1
    11    15    16    1
    12    15    14   ar
    13    16    17    1
    14    19    14   ar
    15    19    21   ar
    16    22    21    1
    17    14    13   ar
    18    21    11   ar
    19    13    12   ar
    20    11    12   ar
    21    11     2    1
    22     1     2    2
    23     2     3   am
    24     3     4    1
    25     7     6   ar
    26     7     8   ar
    27     6     5   ar
    28     8     9   ar
    29     5     4    1
    30     5    10   ar
    31     9    10   ar
