@<TRIPOS>MOLECULE
3d3w_NAP_A_1.pdb
 48 52 0 0 0
SMALL
GASTEIGER

@<TRIPOS>ATOM
      1  PA       -16.4050   11.7510   20.2040 P.3   245  NAP245      0.2189
      2  O1A      -15.3600   12.1300   21.1290 O.3   245  NAP245     -0.4371
      3  O2A      -17.4380   12.6470   19.6130 O.2   245  NAP245     -0.5170
      4  O5B      -17.0190   10.3200   20.6590 O.3   245  NAP245     -0.3112
      5  C5B      -16.1690    9.2930   21.2330 C.3   245  NAP245      0.1813
      6  C4B      -17.1000    8.5190   22.1490 C.3   245  NAP245      0.1820
      7  O4B      -16.2880    7.4370   22.7260 O.3   245  NAP245     -0.3136
      8  C3B      -17.5880    9.3900   23.2970 C.3   245  NAP245      0.2157
      9  O3B      -18.9550    9.0830   23.6190 O.3   245  NAP245     -0.2175
     10  C2B      -16.6220    8.9640   24.3940 C.3   245  NAP245      0.2314
     11  O2B      -17.1150    9.2100   25.7260 O.3   245  NAP245     -0.2630
     12  C1B      -16.4730    7.4370   24.0970 C.3   245  NAP245      0.3158
     13  N9A      -15.2950    7.0050   24.8810 N.pl3 245  NAP245     -0.1439
     14  C8A      -14.0130    7.5080   24.8370 C.3   245  NAP245      0.3377
     15  N7A      -13.2260    6.9120   25.7320 N.2   245  NAP245     -0.2095
     16  C5A      -14.0290    6.0420   26.3300 C.2   245  NAP245      0.2526
     17  C6A      -13.7060    5.1350   27.3950 C.2   245  NAP245      0.4393
     18  N6A      -12.5290    5.0150   27.9810 N.pl3 245  NAP245      0.2180
     19  N1A      -14.7380    4.3420   27.7900 N.2   245  NAP245      0.0021
     20  C2A      -16.0090    4.3920   27.3170 C.3   245  NAP245      0.5254
     21  N3A      -16.3100    5.2480   26.3260 N.2   245  NAP245     -0.0055
     22  C4A      -15.3410    6.0880   25.8340 C.2   245  NAP245      0.3518
     23  O3       -15.5350   11.1150   18.9910 O.3   245  NAP245     -0.2703
     24  PN       -15.8500   10.7170   17.4460 P.3   245  NAP245      0.2189
     25  O1N      -15.3580   11.8650   16.6060 O.2   245  NAP245     -0.5170
     26  O2N      -17.2700   10.2580   17.3640 O.3   245  NAP245     -0.4371
     27  O5D      -14.9010    9.4150   17.3220 O.3   245  NAP245     -0.3112
     28  C5D      -15.4030    8.1070   17.0030 C.3   245  NAP245      0.1813
     29  C4D      -14.3470    7.2050   16.3600 C.3   245  NAP245      0.1799
     30  O4D      -13.9210    7.8810   15.1540 O.3   245  NAP245     -0.3327
     31  C3D      -13.0520    6.9200   17.1370 C.3   245  NAP245      0.2158
     32  O3D      -12.6240    5.5640   17.0870 O.3   245  NAP245     -0.2175
     33  C2D      -12.1270    8.0300   16.6650 C.3   245  NAP245      0.2309
     34  O2D      -10.7860    7.6320   16.9500 O.3   245  NAP245     -0.2158
     35  C1D      -12.4890    7.9870   15.1550 C.3   245  NAP245      0.2263
     36  N1N      -12.0950    9.1290   14.2800 N.pl3 245  NAP245     -0.2787
     37  C2N      -12.4890   10.4480   14.6540 C.3   245  NAP245      0.1244
     38  C3N      -12.1120   11.4930   13.7950 C.2   245  NAP245      0.0544
     39  C7N      -12.4340   12.9730   14.0300 C.2   245  NAP245      0.2818
     40  O7N      -11.4920   13.7770   14.0230 O.2   245  NAP245     -0.2670
     41  N7N      -13.7080   13.2970   14.2210 N.am  245  NAP245     -0.0839
     42  C4N      -11.3910   11.1820   12.6160 C.2   245  NAP245      0.0033
     43  C5N      -10.9870    9.9190   12.2020 C.2   245  NAP245      0.0157
     44  C6N      -11.3620    8.9030   13.0510 C.2   245  NAP245      0.0633
     45  P2B      -16.8240   10.5670   26.5970 P.3   245  NAP245      0.5328
     46  O1X      -17.0400   11.6750   25.6480 O.2   245  NAP245     -0.2224
     47  O2X      -17.8900   10.3350   27.6020 O.3   245  NAP245     -0.1145
     48  O3X      -15.4510   10.3420   27.0210 O.3   245  NAP245     -0.1145
@<TRIPOS>BOND
     1    43    42    1
     2    43    44    2
     3    42    38    2
     4    44    36    1
     5    38    39    1
     6    38    37    1
     7    40    39    2
     8    39    41   am
     9    36    37    1
    10    36    35    1
    11    30    35    1
    12    30    29    1
    13    35    33    1
    14    29    28    1
    15    29    31    1
    16    25    24    2
    17    33    34    1
    18    33    31    1
    19    28    27    1
    20    32    31    1
    21    27    24    1
    22    26    24    1
    23    24    23    1
    24    23     1    1
    25     3     1    2
    26     1     4    1
    27     1     2    1
    28     4     5    1
    29     5     6    1
    30     6     7    1
    31     6     8    1
    32     7    12    1
    33     8     9    1
    34     8    10    1
    35    12    10    1
    36    12    13    1
    37    10    11    1
    38    14    13    1
    39    14    15    1
    40    13    22    1
    41    46    45    2
    42    11    45    1
    43    15    16    2
    44    22    21    2
    45    22    16    1
    46    21    20    1
    47    16    17    1
    48    45    48    1
    49    45    47    1
    50    20    19    1
    51    17    19    2
    52    17    18    1
