@<TRIPOS>MOLECULE
3d3z_D3Z_A_1.pdb
 16 17 0 0 0
SMALL
GASTEIGER

@<TRIPOS>ATOM
      1  N1        32.0460   28.5770   -6.0310 N.am  252  D3Z252     -0.1766
      2  C2        30.9160   28.4880   -5.1950 C.1   252  D3Z252      0.2845
      3  N3        30.3430   29.6010   -4.7470 N.2   252  D3Z252     -0.2452
      4  C4        30.8140   30.8100   -5.0550 C.1   252  D3Z252      0.2182
      5  C5        31.9140   30.9030   -5.8660 C.2   252  D3Z252      0.1242
      6  C6        32.5340   29.7630   -6.3590 C.2   252  D3Z252      0.0929
      7  O2        30.4330   27.3840   -4.8670 O.2   252  D3Z252     -0.1918
      8  O4        30.2820   31.8640   -4.6490 O.2   252  D3Z252     -0.2085
      9  C1'       32.6970   27.3890   -6.5220 C.3   252  D3Z252      0.2400
     10  C2'       32.3620   26.2980   -5.5260 C.3   252  D3Z252      0.2318
     11  O2'       31.4870   25.3310   -6.1350 O.3   252  D3Z252     -0.2157
     12  C3'       33.6940   25.7510   -5.0440 C.3   252  D3Z252      0.2133
     13  C4'       34.7780   26.5070   -5.7910 C.3   252  D3Z252      0.1502
     14  O3'       33.8510   25.9710   -3.6520 O.3   252  D3Z252     -0.2176
     15  O4'       34.1250   27.5640   -6.5210 O.3   252  D3Z252     -0.3346
     16  C5'       35.8120   27.0290   -4.8000 C.3   252  D3Z252      0.0349
@<TRIPOS>BOND
     1     9    15    1
     2     9     1    1
     3     9    10    1
     4    15    13    1
     5     6     1    1
     6     6     5    2
     7    11    10    1
     8     1     2   am
     9     5     4    1
    10    13    12    1
    11    13    16    1
    12    10    12    1
    13     2     7    2
    14     2     3    2
    15     4     3    2
    16     4     8    2
    17    12    14    1
