@<TRIPOS>MOLECULE
3d42_III_B_1.pdb
 39 39 0 0 0
SMALL
GASTEIGER

@<TRIPOS>ATOM
      1  N         -1.5590   17.5010  -22.1630 N.3   183  THR183     -0.1203
      2  CA        -0.8280   18.4750  -21.3030 C.3   183  THR183      0.1994
      3  C         -1.2280   18.2670  -19.8050 C.2   183  THR183      0.2618
      4  O         -1.4970   17.1010  -19.3740 O.2   183  THR183     -0.2717
      5  CB        -0.9490   19.9500  -21.8820 C.3   183  THR183      0.1784
      6  OG1       -2.2450   20.5100  -21.5990 O.3   183  THR183     -0.2211
      7  CG2       -0.7620   19.9550  -23.4380 C.3   183  THR183      0.0376
      8  N         -1.2460   19.3400  -18.9980 N.am  184  GLU184     -0.1965
      9  CA        -1.6090   19.2010  -17.5780 C.3   184  GLU184      0.1733
     10  C         -3.0260   19.7910  -17.2910 C.2   184  GLU184      0.2616
     11  O         -3.2790   20.9940  -17.5440 O.2   184  GLU184     -0.2715
     12  CB        -0.5170   19.8520  -16.6850 C.3   184  GLU184      0.0429
     13  CG        -0.7500   21.3780  -16.3170 C.3   184  GLU184      0.1163
     14  CD         0.1370   22.3860  -17.0930 C.2   184  GLU184      0.3649
     15  OE1       -0.2460   23.6050  -17.0770 O.co2 184  GLU184     -0.2457
     16  OE2        1.2060   21.9810  -17.6830 O.co2 184  GLU184     -0.2457
     17  N         -3.9350   18.9320  -16.8050 N.am  185  TYR185     -0.1960
     18  CA        -5.2780   19.3220  -16.2640 C.3   185  TYR185      0.1771
     19  C         -5.1890   19.1040  -14.7220 C.2   185  TYR185      0.2619
     20  O         -5.9330   19.7710  -13.9450 O.2   185  TYR185     -0.2715
     21  CB        -6.3850   18.4920  -16.9460 C.3   185  TYR185      0.0574
     22  CG        -7.8430   18.9210  -16.7440 C.ar  185  TYR185     -0.0198
     23  CD1       -8.6880   18.1910  -15.8930 C.ar  185  TYR185     -0.0011
     24  CD2       -8.3980   20.0000  -17.4480 C.ar  185  TYR185     -0.0011
     25  CE1      -10.0240   18.5480  -15.7040 C.ar  185  TYR185      0.0371
     26  CE2       -9.7260   20.3640  -17.2720 C.ar  185  TYR185      0.0371
     27  CZ       -10.5600   19.6260  -16.4100 C.ar  185  TYR185      0.1490
     28  OH       -11.7840   19.9520  -16.2370 O.3   185  TYR185     -0.3998
     29  P        -13.0890   19.1980  -16.7990 P.3   185  TYR185      0.5887
     30  O1P      -12.9540   17.7660  -16.6000 O.3   185  TYR185     -0.1039
     31  O2P      -13.2880   19.4280  -18.2740 O.2   185  TYR185     -0.2114
     32  O3P      -14.3350   19.7600  -16.0950 O.3   185  TYR185     -0.1039
     33  N         -4.3130   18.1530  -14.3000 N.am  186  VAL186     -0.1977
     34  CA        -3.5670   18.1980  -12.9980 C.3   186  VAL186      0.1596
     35  C         -2.1020   17.6720  -13.1600 C.2   186  VAL186      0.2287
     36  O         -1.2510   18.2370  -13.9130 O.2   186  VAL186     -0.2864
     37  CB        -4.2080   17.3480  -11.8660 C.3   186  VAL186      0.0276
     38  CG1       -3.0960   16.9360  -10.8600 C.3   186  VAL186      0.0022
     39  CG2       -5.3300   18.1400  -11.1130 C.3   186  VAL186      0.0022
@<TRIPOS>BOND
     1     7     5    1
     2     1     2    1
     3     5     6    1
     4     5     2    1
     5     2     3    1
     6     3     4    2
     7     3     8   am
     8     8     9    1
     9    31    29    2
    10    16    14   ar
    11     9    10    1
    12     9    12    1
    13    11    10    2
    14    24    26   ar
    15    24    22   ar
    16    10    17   am
    17    26    27   ar
    18    14    15   ar
    19    14    13    1
    20    21    22    1
    21    21    18    1
    22    17    18    1
    23    29    30    1
    24    29    28    1
    25    29    32    1
    26    22    23   ar
    27    12    13    1
    28    27    28    1
    29    27    25   ar
    30    18    19    1
    31    23    25   ar
    32    19    33   am
    33    19    20    2
    34    33    34    1
    35    36    35    2
    36    35    34    1
    37    34    37    1
    38    37    39    1
    39    37    38    1
