@<TRIPOS>MOLECULE
3d44_III_B_1.pdb
 40 40 0 0 0
SMALL
GASTEIGER

@<TRIPOS>ATOM
      1  N        -35.6970   18.8750  -12.1590 N.3   183  ASP183     -0.1225
      2  CA       -34.8110   19.7510  -12.9810 C.3   183  ASP183      0.1805
      3  C        -34.4030   19.0320  -14.2690 C.2   183  ASP183      0.2598
      4  O        -34.3640   17.7980  -14.3070 O.2   183  ASP183     -0.2718
      5  CB       -33.5690   20.1520  -12.1720 C.3   183  ASP183      0.1424
      6  CG       -33.0530   21.5550  -12.5120 C.2   183  ASP183      0.3668
      7  OD1      -33.2740   22.0470  -13.6470 O.co2 183  ASP183     -0.2456
      8  OD2      -32.4090   22.1650  -11.6250 O.co2 183  ASP183     -0.2456
      9  N        -34.1080   19.8110  -15.3130 N.am  184  GLU184     -0.1965
     10  CA       -33.7190   19.2730  -16.6210 C.3   184  GLU184      0.1733
     11  C        -32.4500   19.9240  -17.1550 C.2   184  GLU184      0.2616
     12  O        -32.3610   21.1480  -17.2070 O.2   184  GLU184     -0.2715
     13  CB       -34.8450   19.4850  -17.6240 C.3   184  GLU184      0.0429
     14  CG       -34.9420   18.4160  -18.6850 C.3   184  GLU184      0.1163
     15  CD       -36.3840   18.0120  -18.9330 C.2   184  GLU184      0.3649
     16  OE1      -37.1980   18.8820  -19.3170 O.co2 184  GLU184     -0.2457
     17  OE2      -36.7050   16.8240  -18.7260 O.co2 184  GLU184     -0.2457
     18  N        -31.4870   19.1040  -17.5750 N.am  185  TYR185     -0.1960
     19  CA       -30.1880   19.6110  -18.0530 C.3   185  TYR185      0.1771
     20  C        -29.9940   19.4860  -19.5670 C.2   185  TYR185      0.2619
     21  O        -29.1540   20.1750  -20.1410 O.2   185  TYR185     -0.2715
     22  CB       -29.0570   18.9030  -17.3090 C.3   185  TYR185      0.0574
     23  CG       -27.6400   19.4040  -17.5660 C.ar  185  TYR185     -0.0198
     24  CD1      -26.7810   18.6850  -18.3890 C.ar  185  TYR185     -0.0011
     25  CD2      -27.1420   20.5510  -16.9400 C.ar  185  TYR185     -0.0011
     26  CE1      -25.4720   19.1090  -18.6160 C.ar  185  TYR185      0.0371
     27  CE2      -25.8220   20.9800  -17.1470 C.ar  185  TYR185      0.0371
     28  CZ       -24.9870   20.2420  -17.9840 C.ar  185  TYR185      0.1490
     29  OH       -23.8100   20.6010  -18.2070 O.3   185  TYR185     -0.3998
     30  P        -22.5040   19.8800  -17.5730 P.3   185  TYR185      0.5887
     31  O1P      -22.6360   18.4150  -17.5980 O.3   185  TYR185     -0.1039
     32  O2P      -22.4120   20.2790  -16.0990 O.3   185  TYR185     -0.1039
     33  O3P      -21.2500   20.3910  -18.3060 O.2   185  TYR185     -0.2114
     34  N        -30.7370   18.6030  -20.2270 N.am  186  VAL186     -0.1977
     35  CA       -30.6690   18.5920  -21.6880 C.3   186  VAL186      0.1596
     36  C        -31.9650   19.0740  -22.3410 C.2   186  VAL186      0.2287
     37  O        -33.0530   18.6170  -21.9900 O.2   186  VAL186     -0.2864
     38  CB       -30.2280   17.2420  -22.2620 C.3   186  VAL186      0.0276
     39  CG1      -29.6690   17.4450  -23.6750 C.3   186  VAL186      0.0022
     40  CG2      -29.2080   16.5590  -21.3350 C.3   186  VAL186      0.0022
@<TRIPOS>BOND
     1    39    38    1
     2    36    37    2
     3    36    35    1
     4    38    35    1
     5    38    40    1
     6    35    34    1
     7    34    20   am
     8    21    20    2
     9    20    19    1
    10    16    15   ar
    11    15    17   ar
    12    15    14    1
    13    14    13    1
    14    26    24   ar
    15    26    28   ar
    16    24    23   ar
    17    33    30    2
    18    29    28    1
    19    29    30    1
    20    19    18    1
    21    19    22    1
    22    28    27   ar
    23    13    10    1
    24    31    30    1
    25    18    11   am
    26    30    32    1
    27    23    22    1
    28    23    25   ar
    29    12    11    2
    30    11    10    1
    31    27    25   ar
    32    10     9    1
    33     9     3   am
    34     4     3    2
    35     3     2    1
    36     7     6   ar
    37     2     5    1
    38     2     1    1
    39     6     5    1
    40     6     8   ar
