@<TRIPOS>MOLECULE
3d45_7MG_A_1.pdb
 24 26 0 0 0
SMALL
GASTEIGER

@<TRIPOS>ATOM
      1  P          7.0270   14.5830   25.2190 P.3   651  7MG651      0.3942
      2  OP1        6.2560   14.9550   26.4420 O.3   651  7MG651     -0.1425
      3  OP2        8.4710   14.8740   25.0230 O.3   651  7MG651     -0.1425
      4  O5'        6.9250   13.0230   25.0030 O.3   651  7MG651     -0.2926
      5  C5'        7.9510   12.3640   25.6340 C.3   651  7MG651      0.1830
      6  C4'        7.6340   10.9090   25.8700 C.3   651  7MG651      0.1800
      7  O4'        8.1510   10.5860   27.1760 O.3   651  7MG651     -0.3326
      8  C3'        6.1820   10.4640   25.8250 C.3   651  7MG651      0.2158
      9  O3'        6.2020    9.2260   25.1800 O.3   651  7MG651     -0.2175
     10  C2'        5.7910   10.2050   27.2600 C.3   651  7MG651      0.2310
     11  O2'        5.3510    8.8780   27.4580 O.3   651  7MG651     -0.2158
     12  C1'        7.0850   10.3180   28.0410 C.3   651  7MG651      0.2287
     13  N9         6.9290   11.3250   29.0590 N.pl3 651  7MG651     -0.2454
     14  C8         6.7770   12.6840   28.9250 C.3   651  7MG651      0.1735
     15  N7         6.6200   13.2470   30.0910 N.3   651  7MG651     -0.2343
     16  C5         6.6700   12.2040   30.9950 C.3   651  7MG651      0.2475
     17  C6         6.5490   12.2270   32.3840 C.1   651  7MG651      0.2145
     18  O6         6.3840   13.2160   33.1080 O.2   651  7MG651     -0.2115
     19  N1         6.6590   10.9510   32.9290 N.2   651  7MG651     -0.2526
     20  C2         6.8520    9.7770   32.2400 C.1   651  7MG651      0.2525
     21  N2         6.9290    8.6550   32.9950 N.pl3 651  7MG651     -0.0226
     22  N3         6.9500    9.7590   30.9100 N.2   651  7MG651     -0.3118
     23  C4         6.8510   11.0080   30.3790 C.2   651  7MG651      0.2086
     24  CM7        6.5070   14.6710   30.4290 C.3   651  7MG651      0.0924
@<TRIPOS>BOND
     1     4     1    1
     2     4     5    1
     3     3     1    1
     4     9     8    1
     5     1     2    1
     6     5     6    1
     7     8     6    1
     8     8    10    1
     9     6     7    1
    10     7    12    1
    11    10    11    1
    12    10    12    1
    13    12    13    1
    14    14    13    1
    15    14    15    1
    16    13    23    1
    17    15    24    1
    18    15    16    1
    19    23    22    2
    20    23    16    1
    21    22    20    2
    22    16    17    1
    23    20    19    2
    24    20    21    1
    25    17    19    2
    26    17    18    2
