@<TRIPOS>MOLECULE
3d45_GDP_A_1.pdb
 28 30 0 0 0
SMALL
GASTEIGER

@<TRIPOS>ATOM
      1  PB         5.0270   14.1980   23.0580 P.3   652  GDP652      0.5373
      2  O1B        5.2530   12.8460   22.4390 O.2   652  GDP652     -0.2221
      3  O2B        4.5510   14.0200   24.4770 O.3   652  GDP652     -0.1143
      4  O3B        6.3300   14.9560   22.9390 O.3   652  GDP652     -0.1143
      5  O3A        3.8470   14.9920   22.3250 O.3   652  GDP652     -0.2261
      6  PA         4.0730   16.4150   21.6160 P.3   652  GDP652      0.2231
      7  O1A        2.6990   17.0280   21.3490 O.2   652  GDP652     -0.5169
      8  O2A        4.9940   17.3530   22.3660 O.3   652  GDP652     -0.4370
      9  O5'        4.7030   15.9030   20.2420 O.3   652  GDP652     -0.3111
     10  C5'        3.9660   14.9080   19.5410 C.3   652  GDP652      0.1813
     11  C4'        4.1750   15.0500   18.0520 C.3   652  GDP652      0.1799
     12  O4'        5.4670   14.5580   17.7140 O.3   652  GDP652     -0.3326
     13  C3'        3.1890   14.1810   17.3190 C.3   652  GDP652      0.2158
     14  O3'        2.2380   15.0640   16.7370 O.3   652  GDP652     -0.2175
     15  C2'        3.9760   13.4110   16.2800 C.3   652  GDP652      0.2310
     16  O2'        3.6280   13.8100   14.9600 O.3   652  GDP652     -0.2158
     17  C1'        5.4200   13.7980   16.5110 C.3   652  GDP652      0.2293
     18  N9         6.3060   12.6070   16.6020 N.pl3 652  GDP652     -0.2354
     19  C8         5.9470   11.3190   16.8190 C.3   652  GDP652      0.2246
     20  N7         7.0240   10.4870   16.8060 N.2   652  GDP652     -0.2322
     21  C5         8.1020   11.2530   16.5860 C.2   652  GDP652      0.2182
     22  C6         9.5580   11.0340   16.4550 C.1   652  GDP652      0.2372
     23  O6        10.0450    9.8950   16.5590 O.2   652  GDP652     -0.2069
     24  N1        10.3550   12.0720   16.2200 N.2   652  GDP652     -0.2485
     25  C2         9.8620   13.3080   16.1110 C.1   652  GDP652      0.2531
     26  N2        10.7430   14.3090   15.8810 N.pl3 652  GDP652     -0.0226
     27  N3         8.5390   13.5980   16.2130 N.2   652  GDP652     -0.3074
     28  C4         7.6300   12.6350   16.4490 C.2   652  GDP652      0.2300
@<TRIPOS>BOND
     1    16    15    1
     2    26    25    1
     3    25    27    2
     4    25    24    2
     5    27    28    2
     6    24    22    2
     7    15    17    1
     8    15    13    1
     9    28    21    1
    10    28    18    1
    11    22    23    2
    12    22    21    1
    13    17    18    1
    14    17    12    1
    15    21    20    2
    16    18    19    1
    17    14    13    1
    18    20    19    1
    19    13    11    1
    20    12    11    1
    21    11    10    1
    22    10     9    1
    23     9     6    1
    24     7     6    2
    25     6     5    1
    26     6     8    1
    27     5     1    1
    28     2     1    2
    29     4     1    1
    30     1     3    1
