@<TRIPOS>MOLECULE
3d4a_3GP_B_1.pdb
 24 26 0 0 0
SMALL
GASTEIGER

@<TRIPOS>ATOM
      1  P         58.5590  -27.5790   28.9050 P.3    99  3GP99       0.5327
      2  O1P       57.1170  -27.1660   29.0810 O.3    99  3GP99      -0.1145
      3  O2P       58.6830  -29.0880   28.9160 O.3    99  3GP99      -0.1145
      4  O3P       59.0320  -27.1160   27.5410 O.2    99  3GP99      -0.2224
      5  O5'       57.2260  -23.7230   31.9000 O.3    99  3GP99      -0.2176
      6  C5'       58.4520  -23.4840   31.2410 C.3    99  3GP99       0.2141
      7  C4'       58.9030  -24.6510   30.3420 C.3    99  3GP99       0.1802
      8  O4'       60.1950  -24.3620   29.8570 O.3    99  3GP99      -0.3326
      9  C3'       59.1240  -25.9800   31.0460 C.3    99  3GP99       0.1903
     10  O3'       59.4600  -26.9660   30.0860 O.3    99  3GP99      -0.2674
     11  C2'       60.4180  -25.7160   31.7840 C.3    99  3GP99       0.2283
     12  O2'       61.0170  -26.9320   32.1870 O.3    99  3GP99      -0.2159
     13  C1'       61.1770  -25.0360   30.6460 C.3    99  3GP99       0.2292
     14  N9        62.2520  -24.0770   30.9740 N.pl3  99  3GP99      -0.2354
     15  C8        62.1220  -22.7220   31.1520 C.3    99  3GP99       0.2246
     16  N7        63.3480  -22.1940   31.3900 N.2    99  3GP99      -0.2322
     17  C5        64.2540  -23.1980   31.3410 C.2    99  3GP99       0.2182
     18  C6        65.6330  -23.2300   31.5220 C.1    99  3GP99       0.2372
     19  O6        66.2540  -22.1960   31.7530 O.2    99  3GP99      -0.2069
     20  N1        66.3050  -24.4380   31.4220 N.2    99  3GP99      -0.2485
     21  C2        65.6140  -25.6010   31.1600 C.1    99  3GP99       0.2531
     22  N2        66.2880  -26.7520   31.0630 N.pl3  99  3GP99      -0.0226
     23  N3        64.2410  -25.5650   30.9980 N.2    99  3GP99      -0.3074
     24  C4        63.5780  -24.3890   31.0770 C.2    99  3GP99       0.2300
@<TRIPOS>BOND
     1     4     1    2
     2     1     3    1
     3     1     2    1
     4     1    10    1
     5     8     7    1
     6     8    13    1
     7    10     9    1
     8     7     9    1
     9     7     6    1
    10    13    14    1
    11    13    11    1
    12    14    24    1
    13    14    15    1
    14    23    24    2
    15    23    21    2
    16     9    11    1
    17    22    21    1
    18    24    17    1
    19    15    16    1
    20    21    20    2
    21     6     5    1
    22    17    16    2
    23    17    18    1
    24    20    18    2
    25    18    19    2
    26    11    12    1
