@<TRIPOS>MOLECULE
3d4c_MAL_A_1.pdb
 23 24 0 0 0
SMALL
GASTEIGER

@<TRIPOS>ATOM
      1  C1       -26.2080   16.1530  -21.4520 C.3   482  MAL482      0.2695
      2  C2       -27.5840   15.9020  -22.0420 C.3   482  MAL482      0.2406
      3  C3       -28.4460   15.1490  -21.0330 C.3   482  MAL482      0.2198
      4  C4       -27.7080   13.8990  -20.5450 C.3   482  MAL482      0.2144
      5  C5       -26.3040   14.2200  -20.0860 C.3   482  MAL482      0.1835
      6  C6       -25.5590   12.9410  -19.7680 C.3   482  MAL482      0.2142
      7  O1       -26.3190   16.9420  -20.2950 O.3   482  MAL482     -0.3257
      8  O2       -28.1850   17.1330  -22.3660 O.3   482  MAL482     -0.2149
      9  O3       -29.6860   14.7930  -21.6230 O.3   482  MAL482     -0.2174
     10  O4       -28.4000   13.3270  -19.4640 O.3   482  MAL482     -0.2176
     11  O5       -25.6450   14.9020  -21.1200 O.3   482  MAL482     -0.3256
     12  O6       -24.2820   13.2910  -19.2800 O.3   482  MAL482     -0.2176
     13  C1'      -24.9130   20.5590  -18.9060 C.3   482  MAL482      0.3023
     14  C2'      -25.3550   20.5350  -20.3690 C.3   482  MAL482      0.2433
     15  C3'      -26.1920   19.2940  -20.6670 C.3   482  MAL482      0.2168
     16  C4'      -25.4640   18.0450  -20.1930 C.3   482  MAL482      0.1804
     17  C5'      -25.0290   18.2040  -18.7430 C.3   482  MAL482      0.1804
     18  C6'      -24.2500   16.9690  -18.2670 C.3   482  MAL482      0.2141
     19  O1'      -26.0590   20.6430  -18.0830 O.3   482  MAL482     -0.1869
     20  O2'      -26.1310   21.6820  -20.6350 O.3   482  MAL482     -0.2148
     21  O3'      -26.4440   19.2120  -22.0530 O.3   482  MAL482     -0.2175
     22  O5'      -24.2240   19.3670  -18.6020 O.3   482  MAL482     -0.3237
     23  O6'      -24.0070   17.0500  -16.8630 O.3   482  MAL482     -0.2176
@<TRIPOS>BOND
     1     8     2    1
     2    21    15    1
     3     2     1    1
     4     2     3    1
     5     9     3    1
     6     1    11    1
     7     1     7    1
     8    11     5    1
     9     3     4    1
    10    15    14    1
    11    15    16    1
    12    20    14    1
    13     4     5    1
    14     4    10    1
    15    14    13    1
    16     7    16    1
    17    16    17    1
    18     5     6    1
    19     6    12    1
    20    13    22    1
    21    13    19    1
    22    17    22    1
    23    17    18    1
    24    18    23    1
