@<TRIPOS>MOLECULE
3d4d_THP_A_1.pdb
 25 26 0 0 0
SMALL
GASTEIGER

@<TRIPOS>ATOM
      1  P2        23.4880    5.5140    8.1140 P.3   151  THP151      0.5327
      2  O4P       22.2120    5.9630    7.4580 O.3   151  THP151     -0.1145
      3  O5P       23.5220    5.7500    9.6030 O.3   151  THP151     -0.1145
      4  O6P       24.7620    5.9180    7.4100 O.2   151  THP151     -0.2224
      5  P1        26.8700    1.8430    4.6330 P.3   151  THP151      0.5326
      6  O1P       27.9160    0.8910    4.0900 O.3   151  THP151     -0.1145
      7  O2P       27.3690    2.6770    5.7730 O.3   151  THP151     -0.1145
      8  O3P       26.0990    2.5930    3.5750 O.2   151  THP151     -0.2224
      9  O5'       23.4250    3.9060    7.9830 O.3   151  THP151     -0.2675
     10  C5'       23.5100    3.2300    6.7250 C.3   151  THP151      0.1857
     11  C4'       24.4910    2.0610    6.8520 C.3   151  THP151      0.1748
     12  O4'       24.1610    1.2340    7.9710 O.3   151  THP151     -0.3340
     13  C3'       24.4960    1.1490    5.6360 C.3   151  THP151      0.1600
     14  O3'       25.8460    0.8280    5.3310 O.3   151  THP151     -0.2700
     15  C2'       23.8240   -0.1400    6.0710 C.3   151  THP151      0.0847
     16  C1'       23.8480   -0.1060    7.5910 C.3   151  THP151      0.2089
     17  N1        22.5300   -0.5150    8.1270 N.am  151  THP151     -0.1794
     18  C2        22.2420   -1.8950    8.3430 C.1   151  THP151      0.2844
     19  O2        23.1170   -2.7540    8.0910 O.2   151  THP151     -0.1918
     20  N3        21.0420   -2.2930    8.8140 N.2   151  THP151     -0.2455
     21  C4        20.0820   -1.3980    9.1010 C.1   151  THP151      0.2134
     22  O4        18.9780   -1.7840    9.5310 O.2   151  THP151     -0.2088
     23  C5        20.3530    0.0510    8.8870 C.2   151  THP151      0.0891
     24  C5M       19.3290    1.1130    9.1800 C.3   151  THP151      0.0462
     25  C6        21.5990    0.4190    8.3940 C.2   151  THP151      0.0877
@<TRIPOS>BOND
     1     8     5    2
     2     6     5    1
     3     5    14    1
     4     5     7    1
     5    14    13    1
     6    13    15    1
     7    13    11    1
     8    15    16    1
     9    10    11    1
    10    10     9    1
    11    11    12    1
    12     4     1    2
    13     2     1    1
    14    16    12    1
    15    16    17    1
    16     9     1    1
    17    19    18    2
    18     1     3    1
    19    17    18   am
    20    17    25    1
    21    18    20    2
    22    25    23    2
    23    20    21    2
    24    23    21    1
    25    23    24    1
    26    21    22    2
