@<TRIPOS>MOLECULE
3d4f_LN1_A_1.pdb
 34 36 0 0 0
SMALL
GASTEIGER

@<TRIPOS>ATOM
      1  O8        34.4240   59.9260    3.8910 O.2   601  LN1601     -0.2830
      2  C7        34.1880   60.9080    4.6010 C.2   601  LN1601      0.2370
      3  C6        34.4240   62.3760    4.2470 C.ar  601  LN1601      0.0753
      4  C9        34.0040   63.3770    5.0240 C.ar  601  LN1601      0.0236
      5  CG        34.1730   64.5290    4.3750 C.ar  601  LN1601      0.0654
      6  CD1       33.9080   65.8500    4.7300 C.ar  601  LN1601      0.0176
      7  CE1       34.1820   66.8670    3.8160 C.ar  601  LN1601      0.0030
      8  CZ        34.7060   66.5490    2.5660 C.ar  601  LN1601      0.0191
      9  CE2       34.9710   65.2310    2.2040 C.ar  601  LN1601      0.0812
     10  ND2       34.7120   64.2040    3.1240 N.ar  601  LN1601     -0.2924
     11  C5        34.9080   62.8220    3.0180 C.ar  601  LN1601      0.1361
     12  N4        35.3090   61.9670    2.0750 N.pl3 601  LN1601     -0.2096
     13  C3        36.6560   62.1020    1.5050 C.3   601  LN1601      0.2197
     14  C3A       37.7180   61.8140    2.5690 C.2   601  LN1601      0.3860
     15  O3A       37.5070   60.8790    3.3660 O.co2 601  LN1601     -0.2437
     16  O3B       38.7430   62.5290    2.5510 O.co2 601  LN1601     -0.2437
     17  C2        36.8010   61.1750    0.2950 C.3   601  LN1601      0.1768
     18  S1        35.3660   61.4260   -0.8120 S.3   601  LN1601     -0.0158
     19  O12       35.6360   60.8110   -2.0800 O.3   601  LN1601     -0.0781
     20  O13       35.3040   62.9140   -0.9980 O.3   601  LN1601     -0.0781
     21  CG2       36.8410   59.7000    0.7080 C.3   601  LN1601      0.0296
     22  CG1       38.0670   61.5610   -0.4520 C.3   601  LN1601      0.2320
     23  OAV       39.1970   61.3510    0.4060 O.3   601  LN1601     -0.4464
     24  CAX       40.3320   61.5360   -0.3150 C.2   601  LN1601      0.3215
     25  OAD       40.5070   62.5820   -0.9390 O.2   601  LN1601     -0.2497
     26  CAS       41.3860   60.4280   -0.3170 C.3   601  LN1601      0.1360
     27  CAY       42.6520   60.9910   -0.9580 C.ar  601  LN1601     -0.0077
     28  CAQ       42.6960   61.1850   -2.3330 C.ar  601  LN1601      0.0417
     29  CAM       43.7320   61.3560   -0.1630 C.ar  601  LN1601     -0.0002
     30  CAN       44.8610   61.9200   -0.7460 C.ar  601  LN1601      0.0451
     31  CAZ       44.9090   62.1170   -2.1220 C.ar  601  LN1601      0.2342
     32  OAH       46.0460   62.6200   -2.6750 O.3   601  LN1601     -0.2831
     33  CBA       43.8250   61.7490   -2.9160 C.ar  601  LN1601      0.2340
     34  OAI       43.8500   61.9090   -4.2670 O.3   601  LN1601     -0.2832
@<TRIPOS>BOND
     1    34    33    1
     2    33    28   ar
     3    33    31   ar
     4    32    31    1
     5    28    27   ar
     6    31    30   ar
     7    19    18    1
     8    20    18    1
     9    27    26    1
    10    27    29   ar
    11    25    24    2
    12    18    17    1
    13    30    29   ar
    14    22    17    1
    15    22    23    1
    16    26    24    1
    17    24    23    1
    18    17    21    1
    19    17    13    1
    20    13    12    1
    21    13    14    1
    22    12    11    1
    23     9     8   ar
    24     9    10   ar
    25    16    14   ar
    26     8     7   ar
    27    14    15   ar
    28    11    10   ar
    29    11     3   ar
    30    10     5   ar
    31     7     6   ar
    32     1     2    2
    33     3     2    1
    34     3     4   ar
    35     5     6   ar
    36     5     4   ar
