@<TRIPOS>MOLECULE
3d4f_MA4_A_1.pdb
 35 37 0 0 0
SMALL
GASTEIGER

@<TRIPOS>ATOM
      1  C1        60.3880   53.1830    2.2040 C.3   400  MA4400      0.2695
      2  C2        60.9790   52.4870    0.9560 C.3   400  MA4400      0.2406
      3  C3        60.6340   51.0100    0.9410 C.3   400  MA4400      0.2198
      4  C4        61.0580   50.3380    2.2380 C.3   400  MA4400      0.2144
      5  C5        60.4510   51.1150    3.4390 C.3   400  MA4400      0.1835
      6  C6        60.9090   50.5150    4.7400 C.3   400  MA4400      0.2142
      7  O2        60.4560   53.1640   -0.2140 O.3   400  MA4400     -0.2149
      8  O3        61.2900   50.4350   -0.2230 O.3   400  MA4400     -0.2174
      9  O5        60.8390   52.4860    3.4060 O.3   400  MA4400     -0.3256
     10  O6        62.3350   50.6230    4.9050 O.3   400  MA4400     -0.2176
     11  O1        58.9660   53.1250    2.0970 O.3   400  MA4400     -0.3257
     12  O4        60.5960   48.9900    2.2700 O.3   400  MA4400     -0.2176
     13  C10       55.5790   55.4350    2.5200 C.3   400  MA4400      0.2695
     14  C20       56.4030   55.7280    1.2600 C.3   400  MA4400      0.2404
     15  C30       57.2850   54.4870    1.0580 C.3   400  MA4400      0.2167
     16  C40       58.1440   54.3150    2.2870 C.3   400  MA4400      0.1804
     17  C50       57.3150   54.1190    3.5180 C.3   400  MA4400      0.1803
     18  C60       58.1220   54.0030    4.8200 C.3   400  MA4400      0.2141
     19  O10       54.7460   56.5350    2.7850 O.3   400  MA4400     -0.3286
     20  O20       55.5720   55.9250    0.1440 O.3   400  MA4400     -0.2149
     21  O30       58.1050   54.6960   -0.0800 O.3   400  MA4400     -0.2175
     22  O50       56.4430   55.2340    3.6700 O.3   400  MA4400     -0.3257
     23  O60       59.0260   55.1520    4.9000 O.3   400  MA4400     -0.2176
     24  C11       53.6970   56.2180    3.7350 C.3   400  MA4400      0.1449
     25  C21       52.4830   55.8620    2.9430 C.3   400  MA4400      0.0322
     26  C31       51.4220   55.5410    3.9790 C.3   400  MA4400      0.0026
     27  C41       50.1020   56.0850    3.4810 C.3   400  MA4400      0.0001
     28  C51       48.9450   55.8620    4.4140 C.3   400  MA4400      0.0000
     29  C61       49.0810   55.6160    5.8780 C.3   400  MA4400      0.0000
     30  C12       47.7690   55.4280    6.6190 C.3   400  MA4400      0.0000
     31  C22       47.9460   55.7890    8.1030 C.3   400  MA4400      0.0000
     32  C32       48.4450   54.6420    9.0210 C.3   400  MA4400      0.0000
     33  C42       47.8210   53.2840    8.7750 C.3   400  MA4400      0.0000
     34  C52       47.7730   52.9330    7.2970 C.3   400  MA4400      0.0000
     35  C62       47.2480   54.0250    6.3810 C.3   400  MA4400      0.0000
@<TRIPOS>BOND
     1     8     3    1
     2     7     2    1
     3    21    15    1
     4    20    14    1
     5     3     2    1
     6     3     4    1
     7     2     1    1
     8    15    14    1
     9    15    16    1
    10    14    13    1
    11    11     1    1
    12    11    16    1
    13     1     9    1
    14     4    12    1
    15     4     5    1
    16    16    17    1
    17    13    19    1
    18    13    22    1
    19    19    24    1
    20    25    24    1
    21    25    26    1
    22     9     5    1
    23     5     6    1
    24    27    26    1
    25    27    28    1
    26    17    22    1
    27    17    18    1
    28    28    29    1
    29     6    10    1
    30    18    23    1
    31    29    30    1
    32    35    30    1
    33    35    34    1
    34    30    31    1
    35    34    33    1
    36    31    32    1
    37    33    32    1
