@<TRIPOS>MOLECULE
3d4g_MAL_A_1.pdb
 23 24 0 0 0
SMALL
GASTEIGER

@<TRIPOS>ATOM
      1  C1       -26.2050  -16.7440   21.0630 C.3   482  MAL482      0.2695
      2  C2       -27.5720  -16.4130   21.6770 C.3   482  MAL482      0.2406
      3  C3       -28.4060  -15.6610   20.6540 C.3   482  MAL482      0.2198
      4  C4       -27.6760  -14.3900   20.2440 C.3   482  MAL482      0.2144
      5  C5       -26.2540  -14.6890   19.7820 C.3   482  MAL482      0.1835
      6  C6       -25.4940  -13.3690   19.6110 C.3   482  MAL482      0.2142
      7  O1       -26.3030  -17.5360   19.8770 O.3   482  MAL482     -0.3257
      8  O2       -28.2160  -17.6120   22.0850 O.3   482  MAL482     -0.2149
      9  O3       -29.6660  -15.3460   21.2290 O.3   482  MAL482     -0.2174
     10  O4       -28.3610  -13.8120   19.1620 O.3   482  MAL482     -0.2176
     11  O5       -25.5530  -15.5130   20.7370 O.3   482  MAL482     -0.3256
     12  O6       -24.2210  -13.5970   19.0180 O.3   482  MAL482     -0.2176
     13  C1'      -24.4460  -21.0080   18.5240 C.3   482  MAL482      0.3023
     14  C2'      -25.0050  -21.0670   19.9700 C.3   482  MAL482      0.2433
     15  C3'      -25.9240  -19.8730   20.2280 C.3   482  MAL482      0.2168
     16  C4'      -25.2830  -18.5570   19.7890 C.3   482  MAL482      0.1804
     17  C5'      -24.7970  -18.6080   18.3520 C.3   482  MAL482      0.1804
     18  C6'      -24.0330  -17.2740   17.9990 C.3   482  MAL482      0.2141
     19  O1'      -25.4520  -21.3160   17.5490 O.3   482  MAL482     -0.1869
     20  O2'      -25.7360  -22.2790   20.1430 O.3   482  MAL482     -0.2148
     21  O3'      -26.2900  -19.7910   21.6150 O.3   482  MAL482     -0.2175
     22  O5'      -23.8720  -19.7000   18.1920 O.3   482  MAL482     -0.3237
     23  O6'      -23.8700  -17.0900   16.5800 O.3   482  MAL482     -0.2176
@<TRIPOS>BOND
     1    23    18    1
     2    19    13    1
     3    18    17    1
     4    22    17    1
     5    22    13    1
     6    17    16    1
     7    13    14    1
     8    12     6    1
     9    10     4    1
    10     6     5    1
    11     5     4    1
    12     5    11    1
    13    16     7    1
    14    16    15    1
    15     7     1    1
    16    14    20    1
    17    14    15    1
    18    15    21    1
    19     4     3    1
    20     3     9    1
    21     3     2    1
    22    11     1    1
    23     1     2    1
    24     2     8    1
