@<TRIPOS>MOLECULE
3d4k_H1M_A_1.pdb
 15 15 0 0 0
SMALL
GASTEIGER

@<TRIPOS>ATOM
      1  C9         1.6470  -18.8220   59.7600 C.3   241  H1M241      0.1768
      2  O1         1.4600  -18.1170   58.5040 O.3   241  H1M241     -0.3277
      3  C1         1.7870  -16.7520   58.4680 C.3   241  H1M241      0.2378
      4  C2         1.2520  -16.0910   57.1820 C.3   241  H1M241      0.0921
      5  C7         1.5310  -14.5810   57.2290 C.3   241  H1M241      0.0432
      6  C8         0.5950  -13.8830   58.2220 C.3   241  H1M241      0.1824
      7  O8         0.9420  -12.4900   58.3090 O.3   241  H1M241     -0.2204
      8  C3         1.9510  -16.7450   55.9830 C.3   241  H1M241      0.1895
      9  O3         1.5180  -16.1000   54.7660 O.3   241  H1M241     -0.2202
     10  C4         3.4540  -16.5530   56.1140 C.3   241  H1M241      0.2118
     11  O4         4.0970  -17.2050   55.0290 O.3   241  H1M241     -0.2177
     12  C5         3.9100  -17.2040   57.4240 C.3   241  H1M241      0.1833
     13  O5         3.2200  -16.5900   58.5390 O.3   241  H1M241     -0.3275
     14  C6         5.3990  -16.9820   57.6540 C.3   241  H1M241      0.2142
     15  O6         5.6660  -15.5640   57.7360 O.3   241  H1M241     -0.2176
@<TRIPOS>BOND
     1     9     8    1
     2    11    10    1
     3     8    10    1
     4     8     4    1
     5    10    12    1
     6     4     5    1
     7     4     3    1
     8     5     6    1
     9    12    14    1
    10    12    13    1
    11    14    15    1
    12     6     7    1
    13     3     2    1
    14     3    13    1
    15     2     1    1
