@<TRIPOS>MOLECULE
3d4k_MAN_A_1.pdb
 11 11 0 0 0
SMALL
GASTEIGER

@<TRIPOS>ATOM
      1  C1         7.0360  -15.2720   57.6910 C.3   240  MAN240      0.1777
      2  C2         7.2640  -13.7900   58.0080 C.3   240  MAN240      0.2141
      3  C3         6.7010  -12.9300   56.8670 C.3   240  MAN240      0.2173
      4  C4         7.4130  -13.3230   55.5750 C.3   240  MAN240      0.2142
      5  C5         7.1450  -14.8120   55.3180 C.3   240  MAN240      0.1810
      6  C6         7.8530  -15.3250   54.0760 C.3   240  MAN240      0.2141
      7  O2         8.6530  -13.5460   58.1680 O.3   240  MAN240     -0.2176
      8  O3         6.9250  -11.5510   57.1470 O.3   240  MAN240     -0.2175
      9  O4         6.8970  -12.5520   54.4980 O.3   240  MAN240     -0.2176
     10  O5         7.6310  -15.5980   56.4300 O.3   240  MAN240     -0.3481
     11  O6         9.2690  -15.2670   54.2280 O.3   240  MAN240     -0.2176
@<TRIPOS>BOND
     1     6    11    1
     2     6     5    1
     3     9     4    1
     4     5     4    1
     5     5    10    1
     6     4     3    1
     7    10     1    1
     8     3     8    1
     9     3     2    1
    10     1     2    1
    11     2     7    1
