@<TRIPOS>MOLECULE
3d4l_605_A_1.pdb
 26 28 0 0 0
SMALL
GASTEIGER

@<TRIPOS>ATOM
      1  C1        34.5290   50.6440   36.2730 C.ar  1521  6051521     0.0316
      2  C2        35.8890   51.0210   36.5050 C.ar  1521  6051521     0.1363
      3  C3        36.9850   50.0950   36.3740 C.ar  1521  6051521     0.0093
      4  C4        36.7160   48.7360   35.9030 C.ar  1521  6051521     0.0276
      5  C5        35.3450   48.3500   35.6540 C.ar  1521  6051521     0.1400
      6  C6        34.2400   49.2970   35.8090 C.ar  1521  6051521     0.0319
      7  C10       38.4110   50.4910   36.6230 C.3   1521  6051521     0.0522
      8  C11       39.0860   50.6780   35.1980 C.3   1521  6051521     0.1184
      9  C14       40.5140   51.0440   35.3430 C.ar  1521  6051521    -0.0046
     10  N15       38.3660   51.7690   34.4270 N.3   1521  6051521    -0.1278
     11  C17       41.3460   50.0200   35.9890 C.ar  1521  6051521    -0.0029
     12  C18       42.7230   50.2080   36.1690 C.ar  1521  6051521    -0.0003
     13  C19       43.3890   51.4280   35.7260 C.ar  1521  6051521    -0.0000
     14  C20       42.5660   52.5000   35.0620 C.ar  1521  6051521    -0.0003
     15  C21       41.1480   52.3080   34.8710 C.ar  1521  6051521    -0.0029
     16  C26       44.8660   51.5200   35.9430 C.ar  1521  6051521     0.0001
     17  C27       45.5940   51.0480   37.1540 C.ar  1521  6051521     0.0000
     18  C28       47.0410   51.1810   37.2440 C.ar  1521  6051521     0.0001
     19  C29       47.8030   51.7740   36.1520 C.ar  1521  6051521     0.0046
     20  C30       47.0940   52.2490   34.9300 C.ar  1521  6051521     0.0567
     21  C31       45.6500   52.1060   34.8670 C.ar  1521  6051521     0.0046
     22  F34       35.0740   47.1530   35.2390 F     1521  6051521    -0.2042
     23  F35       36.1150   52.2280   36.9100 F     1521  6051521    -0.2045
     24  C40       47.7730   52.8640   33.7720 C.2   1521  6051521     0.2842
     25  N41       47.1900   53.9200   33.1910 N.am  1521  6051521    -0.0837
     26  O42       48.8340   52.4420   33.3410 O.2   1521  6051521    -0.2667
@<TRIPOS>BOND
     1    25    24   am
     2    26    24    2
     3    24    20    1
     4    10     8    1
     5    21    20   ar
     6    21    16   ar
     7    15    14   ar
     8    15     9   ar
     9    20    19   ar
    10    14    13   ar
    11     8     9    1
    12     8     7    1
    13    22     5    1
    14     9    11   ar
    15     5     6   ar
    16     5     4   ar
    17    13    16    1
    18    13    12   ar
    19     6     1   ar
    20     4     3   ar
    21    16    17   ar
    22    11    12   ar
    23    19    18   ar
    24     1     2   ar
    25     3     2   ar
    26     3     7    1
    27     2    23    1
    28    17    18   ar
