@<TRIPOS>MOLECULE
3d4n_NAP_A_1.pdb
 48 52 0 0 0
SMALL
GASTEIGER

@<TRIPOS>ATOM
      1  PA         9.0290   -5.0310   22.6410 P.3     1  NAP1        0.2189
      2  O1A       10.3750   -4.5030   22.9670 O.3     1  NAP1       -0.4371
      3  O2A        9.0580   -5.9110   21.4520 O.2     1  NAP1       -0.5170
      4  O5B        8.4130   -5.8240   23.8930 O.3     1  NAP1       -0.3112
      5  C5B        7.1090   -6.3400   23.7870 C.3     1  NAP1        0.1813
      6  C4B        6.7190   -6.9750   25.1100 C.3     1  NAP1        0.1820
      7  O4B        5.5860   -7.8070   24.9320 O.3     1  NAP1       -0.3136
      8  C3B        7.8340   -7.8650   25.6290 C.3     1  NAP1        0.2157
      9  O3B        7.8980   -7.7280   27.0330 O.3     1  NAP1       -0.2175
     10  C2B        7.3770   -9.2630   25.2880 C.3     1  NAP1        0.2314
     11  O2B        7.8970  -10.1780   26.2300 O.3     1  NAP1       -0.2630
     12  C1B        5.8780   -9.1000   25.4190 C.3     1  NAP1        0.3158
     13  N9A        5.1260  -10.1230   24.6890 N.pl3   1  NAP1       -0.1439
     14  C8A        5.3370  -10.6310   23.4340 C.3     1  NAP1        0.3377
     15  N7A        4.3800  -11.5620   23.1920 N.2     1  NAP1       -0.2095
     16  C5A        3.5710  -11.6440   24.2730 C.2     1  NAP1        0.2526
     17  C6A        2.4570  -12.4160   24.5720 C.2     1  NAP1        0.4393
     18  N6A        1.9800  -13.2960   23.6930 N.pl3   1  NAP1        0.2180
     19  N1A        1.8450  -12.2690   25.7990 N.2     1  NAP1        0.0021
     20  C2A        2.3270  -11.3600   26.7180 C.3     1  NAP1        0.5254
     21  N3A        3.4320  -10.5930   26.4200 N.2     1  NAP1       -0.0055
     22  C4A        4.0360  -10.7440   25.2190 C.2     1  NAP1        0.3518
     23  O3         8.0020   -3.8160   22.4100 O.3     1  NAP1       -0.2703
     24  PN         8.2760   -2.2390   22.2410 P.3     1  NAP1        0.2189
     25  O1N        8.8400   -1.7520   23.5230 O.3     1  NAP1       -0.4371
     26  O2N        9.0250   -2.0190   20.9860 O.2     1  NAP1       -0.5170
     27  O5D        6.7910   -1.6480   22.0230 O.3     1  NAP1       -0.3112
     28  C5D        5.9130   -1.5540   23.1160 C.3     1  NAP1        0.1813
     29  C4D        4.6200   -0.9060   22.6630 C.3     1  NAP1        0.1799
     30  O4D        4.9060    0.2940   21.9730 O.3     1  NAP1       -0.3327
     31  C3D        3.8670   -1.8150   21.7130 C.3     1  NAP1        0.2158
     32  O3D        2.4990   -1.7420   22.0260 O.3     1  NAP1       -0.2175
     33  C2D        4.0780   -1.1820   20.3640 C.3     1  NAP1        0.2309
     34  O2D        2.9370   -1.3580   19.5630 O.3     1  NAP1       -0.2158
     35  C1D        4.2790    0.2780   20.7130 C.3     1  NAP1        0.2263
     36  N1N        5.1080    0.9190   19.6840 N.pl3   1  NAP1       -0.2787
     37  C2N        6.4520    0.6920   19.6330 C.3     1  NAP1        0.1244
     38  C3N        7.1960    1.3120   18.6380 C.2     1  NAP1        0.0544
     39  C7N        8.6790    1.1520   18.5590 C.2     1  NAP1        0.2818
     40  O7N        9.3480    1.7540   17.4760 O.2     1  NAP1       -0.2670
     41  N7N        9.3160    0.4570   19.4960 N.am    1  NAP1       -0.0839
     42  C4N        6.5840    2.1410   17.7120 C.2     1  NAP1        0.0033
     43  C5N        5.2200    2.3580   17.7780 C.2     1  NAP1        0.0157
     44  C6N        4.4900    1.7340   18.7760 C.2     1  NAP1        0.0633
     45  P2B        7.8720  -11.7750   26.0170 P.3     1  NAP1        0.5328
     46  O1X        8.7970  -12.3940   27.0330 O.3     1  NAP1       -0.1145
     47  O2X        6.4630  -12.2620   26.2560 O.3     1  NAP1       -0.1145
     48  O3X        8.3120  -12.1640   24.6270 O.2     1  NAP1       -0.2224
@<TRIPOS>BOND
     1    40    39    2
     2    42    43    1
     3    42    38    2
     4    43    44    2
     5    39    38    1
     6    39    41   am
     7    38    37    1
     8    44    36    1
     9    34    33    1
    10    37    36    1
    11    36    35    1
    12    33    35    1
    13    33    31    1
    14    35    30    1
    15    26    24    2
    16     3     1    2
    17    31    32    1
    18    31    29    1
    19    30    29    1
    20    27    24    1
    21    27    28    1
    22    24    23    1
    23    24    25    1
    24    23     1    1
    25     1     2    1
    26     1     4    1
    27    29    28    1
    28    15    14    1
    29    15    16    2
    30    14    13    1
    31    18    17    1
    32     5     4    1
    33     5     6    1
    34    16    17    1
    35    16    22    1
    36    17    19    2
    37    48    45    2
    38    13    22    1
    39    13    12    1
    40     7     6    1
    41     7    12    1
    42     6     8    1
    43    22    21    2
    44    10    12    1
    45    10     8    1
    46    10    11    1
    47     8     9    1
    48    19    20    1
    49    45    11    1
    50    45    47    1
    51    45    46    1
    52    21    20    1
