@<TRIPOS>MOLECULE
3d4n_D4N_A_1.pdb
 30 32 0 0 0
SMALL
GASTEIGER

@<TRIPOS>ATOM
      1  O1         6.6560    3.0040    5.6540 O.2   293  D4N293     -0.2716
      2  C1         7.1730    1.6100    7.4560 C.3   293  D4N293      0.0867
      3  C2         7.2070   -3.4580   13.0810 C.3   293  D4N293      0.4263
      4  C3         7.0830    2.9580    6.7930 C.2   293  D4N293      0.2611
      5  C5         6.9500   -2.7730   14.4160 C.3   293  D4N293      0.2317
      6  C6         6.0300    0.7050    7.0340 C.3   293  D4N293      0.0106
      7  C7         5.9150   -3.5280   15.2350 C.3   293  D4N293      0.0465
      8  C8         6.4900   -1.3600   14.2060 C.ar  293  D4N293      0.0132
      9  C9         7.3700   -0.3100   14.4390 C.ar  293  D4N293     -0.0003
     10  C10        6.9540    1.0020   14.2500 C.ar  293  D4N293      0.0197
     11  C11        5.6570    1.2620   13.8240 C.ar  293  D4N293      0.1222
     12  C12        4.7770    0.2120   13.5950 C.ar  293  D4N293      0.0197
     13  C13        5.1930   -1.0970   13.7850 C.ar  293  D4N293     -0.0003
     14  C14        7.4350    0.4650    6.4870 C.3   293  D4N293      0.0106
     15  C18        4.8950    2.6790   11.0410 C.3   293  D4N293      0.1131
     16  F4         8.2630   -2.8850   12.5340 F     293  D4N293     -0.1671
     17  F1         6.1630   -3.3440   12.2750 F     293  D4N293     -0.1671
     18  F3         7.4560   -4.7390   13.2980 F     293  D4N293     -0.1671
     19  O6         8.1920   -2.7560   15.1190 O.3   293  D4N293     -0.2124
     20  S14        5.1820    2.7690   13.6060 S.O2  293  D4N293      0.0633
     21  O15        5.7530    3.5790   14.6470 O.2   293  D4N293     -0.1528
     22  O16        3.7520    2.8280   13.7330 O.2   293  D4N293     -0.1528
     23  N17        5.6330    3.3380   12.1490 N.3   293  D4N293     -0.1541
     24  C22        7.1120    3.3760   12.0070 C.3   293  D4N293      0.0956
     25  C68        7.4840    4.7490   11.4710 C.3   293  D4N293      0.0206
     26  C21        7.7190    2.3010   11.1130 C.3   293  D4N293      0.0900
     27  C19        5.6950    1.7080   10.1810 C.3   293  D4N293      0.0915
     28  N20        6.9960    2.2840    9.8470 N.3   293  D4N293     -0.2698
     29  C23        7.7200    1.4460    8.8750 C.3   293  D4N293      0.0809
     30  N1         7.4630    4.0370    7.4760 N.am  293  D4N293     -0.0878
@<TRIPOS>BOND
     1     1     4    2
     2    14     6    1
     3    14     2    1
     4     4     2    1
     5     4    30   am
     6     6     2    1
     7     2    29    1
     8    29    28    1
     9    28    27    1
    10    28    26    1
    11    27    15    1
    12    15    23    1
    13    26    24    1
    14    25    24    1
    15    24    23    1
    16    23    20    1
    17    17     3    1
    18    16     3    1
    19     3    18    1
    20     3     5    1
    21    12    13   ar
    22    12    11   ar
    23    20    22    2
    24    20    11    1
    25    20    21    2
    26    13     8   ar
    27    11    10   ar
    28     8     5    1
    29     8     9   ar
    30    10     9   ar
    31     5    19    1
    32     5     7    1
