@<TRIPOS>MOLECULE
3d4q_SM5_A_1.pdb
 28 32 0 0 0
SMALL
GASTEIGER

@<TRIPOS>ATOM
      1  C18       87.5860    6.9220   -7.5930 C.3     1  SM51        0.1081
      2  N4        86.1670    7.2950   -7.6370 N.ar    1  SM51       -0.2513
      3  C14       81.6530    4.6490   -5.7640 C.2     1  SM51       -0.0198
      4  C13       82.7000    5.5100   -6.1410 C.3     1  SM51        0.0525
      5  C12       82.5440    6.4220   -7.1840 C.2     1  SM51       -0.0148
      6  C17       81.1940    6.4880   -7.9520 C.2     1  SM51       -0.0038
      7  C16       80.1590    5.5860   -7.5350 C.2     1  SM51        0.0010
      8  C15       80.4380    4.6840   -6.4410 C.2     1  SM51        0.0160
      9  C11       81.8330    9.3240   -7.5860 C.ar    1  SM51        0.0222
     10  N3        85.7210    8.5800   -8.0120 N.ar    1  SM51       -0.1693
     11  C10       80.9140   10.3890   -7.8650 C.ar    1  SM51        0.0989
     12  C8        82.5030   11.5550   -9.1340 C.ar    1  SM51        0.0989
     13  C22       89.8700    7.4050   -7.8600 C.3     1  SM51        0.0907
     14  C7        83.5760   10.4790   -8.9100 C.ar    1  SM51        0.0222
     15  C5        85.1430    6.4040   -7.3060 C.ar    1  SM51        0.0962
     16  C6        83.2120    9.4050   -8.1440 C.ar    1  SM51        0.0225
     17  C1        83.7340    7.1640   -7.4610 C.ar    1  SM51        0.0344
     18  C19       87.7740    5.4600   -8.0120 C.3     1  SM51        0.0432
     19  C20       89.2320    4.9460   -7.7250 C.3     1  SM51        0.0907
     20  C2        84.0570    8.4330   -7.8780 C.ar    1  SM51        0.1021
     21  N9        81.2270   11.4930   -8.6190 N.ar    1  SM51       -0.2423
     22  N21       90.2100    5.9550   -8.2090 N.3     1  SM51       -0.2179
     23  C23       88.4150    7.7280   -8.2820 C.3     1  SM51        0.0432
     24  C24       78.7450    5.3560   -8.0390 C.2     1  SM51        0.0016
     25  C25       78.1780    4.1230   -7.0480 C.2     1  SM51        0.0214
     26  C26       79.3620    3.8420   -6.1140 C.2     1  SM51        0.1104
     27  N27       79.4410    3.0460   -5.1830 N.4     1  SM51       -0.0964
     28  O28       78.2300    2.3440   -5.0280 O.3     1  SM51       -0.0605
@<TRIPOS>BOND
     1    12    14   ar
     2    12    21   ar
     3    14    16   ar
     4    21    11   ar
     5    23    13    1
     6    23     1    1
     7    22    13    1
     8    22    19    1
     9    16    20    1
    10    16     9   ar
    11    24     7    2
    12    24    25    1
    13    18    19    1
    14    18     1    1
    15    10    20   ar
    16    10     2   ar
    17     6     7    1
    18     6     5    2
    19    20    17   ar
    20    11     9   ar
    21     2     1    1
    22     2    15   ar
    23     7     8    1
    24    17    15   ar
    25    17     5    1
    26     5     4    1
    27    25    26    2
    28     8    26    1
    29     8     3    2
    30     4     3    1
    31    26    27    1
    32    27    28    1
