@<TRIPOS>MOLECULE
3d4s_TIM_A_1.pdb
 21 22 0 0 0
SMALL
GASTEIGER

@<TRIPOS>ATOM
      1  C5         3.0370    1.1450   51.1390 C.3   401  TIM401      0.1244
      2  C6         3.2270    1.1810   52.6570 C.3   401  TIM401      0.1636
      3  O1         2.5250    0.1090   53.2570 O.3   401  TIM401     -0.3501
      4  C2         1.1250    0.2240   53.0440 C.3   401  TIM401      0.1636
      5  C3         0.7100    0.3790   51.5700 C.3   401  TIM401      0.1244
      6  N4         1.6400    1.1180   50.7540 N.pl3 401  TIM401     -0.2838
      7  C7         1.3060    1.5940   49.5090 C.ar  401  TIM401      0.1954
      8  N8         0.6450    0.8220   48.6310 N.ar  401  TIM401     -0.1716
      9  S9         0.3760    1.6670   47.2510 S.2   401  TIM401      0.1206
     10  N10        1.0840    3.0830   47.6660 N.ar  401  TIM401     -0.1530
     11  C11        1.5540    2.9670   48.8980 C.ar  401  TIM401      0.2661
     12  O12        2.2330    3.9730   49.5430 O.3   401  TIM401     -0.4551
     13  C13        2.2270    5.3000   48.9410 C.3   401  TIM401      0.2413
     14  C14        3.2130    6.0320   49.8630 C.3   401  TIM401      0.2126
     15  O15        3.8880    7.0830   49.2350 O.3   401  TIM401     -0.2176
     16  C16        2.4800    6.5150   51.1020 C.3   401  TIM401      0.1253
     17  N17        3.0430    7.5930   51.8810 N.3   401  TIM401     -0.2180
     18  C18        2.5420    7.4360   53.2700 C.3   401  TIM401      0.0596
     19  C19        2.6000    8.7570   54.0240 C.3   401  TIM401      0.0174
     20  C20        1.0670    6.9630   53.2160 C.3   401  TIM401      0.0174
     21  C21        3.4040    6.3930   54.0110 C.3   401  TIM401      0.0174
@<TRIPOS>BOND
     1     9    10   ar
     2     9     8   ar
     3    10    11   ar
     4     8     7   ar
     5    11     7   ar
     6    11    12    1
     7    13    12    1
     8    13    14    1
     9    15    14    1
    10     7     6    1
    11    14    16    1
    12     6     1    1
    13     6     5    1
    14    16    17    1
    15     1     2    1
    16     5     4    1
    17    17    18    1
    18     2     3    1
    19     4     3    1
    20    20    18    1
    21    18    21    1
    22    18    19    1
