@<TRIPOS>MOLECULE
3d4s_CLR_A_1.pdb
 28 31 0 0 0
SMALL
GASTEIGER

@<TRIPOS>ATOM
      1  C1       -11.5700   10.2150   30.5720 C.3   402  CLR402      0.0063
      2  C2       -11.4880   10.1970   29.0530 C.3   402  CLR402      0.0335
      3  C3       -10.0470   10.2060   28.5490 C.3   402  CLR402      0.1560
      4  C4        -9.3060    8.9900   29.1060 C.3   402  CLR402      0.0545
      5  C5        -9.2590    9.2070   30.5780 C.2   402  CLR402     -0.0466
      6  C6        -8.0590    9.3730   31.1600 C.2   402  CLR402     -0.0345
      7  C7        -7.8310    9.6120   32.5990 C.3   402  CLR402      0.0254
      8  C8        -9.0540    9.2230   33.4250 C.3   402  CLR402      0.0046
      9  C9       -10.3450    9.7460   32.7880 C.3   402  CLR402      0.0038
     10  C10      -10.5770    9.2910   31.3200 C.3   402  CLR402      0.0150
     11  C11      -11.5760    9.6850   33.7020 C.3   402  CLR402      0.0003
     12  C12      -11.3270   10.2200   35.0950 C.3   402  CLR402      0.0000
     13  C13      -10.1090    9.6010   35.7890 C.3   402  CLR402      0.0000
     14  C14       -8.9150    9.7720   34.8320 C.3   402  CLR402      0.0003
     15  C15       -7.6530    9.6650   35.6760 C.3   402  CLR402      0.0000
     16  C16       -8.0880   10.1240   37.0610 C.3   402  CLR402      0.0000
     17  C17       -9.5890   10.4380   36.9980 C.3   402  CLR402      0.0000
     18  C18      -10.3380    8.1390   36.1360 C.3   402  CLR402      0.0000
     19  C19      -11.2630    7.9140   31.3770 C.3   402  CLR402      0.0040
     20  C20      -10.2680   10.2050   38.3410 C.3   402  CLR402      0.0000
     21  C21      -11.7300   10.6140   38.2830 C.3   402  CLR402      0.0000
     22  C22       -9.5250   10.9290   39.4640 C.3   402  CLR402      0.0000
     23  C23      -10.0740   10.5360   40.8270 C.3   402  CLR402      0.0000
     24  C24       -9.0160   10.6680   41.9040 C.3   402  CLR402      0.0000
     25  C25       -9.2780   11.8060   42.8910 C.3   402  CLR402      0.0000
     26  C26       -9.1170   11.3470   44.3280 C.3   402  CLR402      0.0000
     27  C27      -10.6400   12.4210   42.6680 C.3   402  CLR402      0.0000
     28  O1        -9.9590   10.1850   27.1290 O.3   402  CLR402     -0.2228
@<TRIPOS>BOND
     1    28     3    1
     2     3     2    1
     3     3     4    1
     4     2     1    1
     5     4     5    1
     6     1    10    1
     7     5     6    2
     8     5    10    1
     9     6     7    1
    10    10    19    1
    11    10     9    1
    12     7     8    1
    13     9     8    1
    14     9    11    1
    15     8    14    1
    16    11    12    1
    17    14    15    1
    18    14    13    1
    19    12    13    1
    20    15    16    1
    21    13    18    1
    22    13    17    1
    23    17    16    1
    24    17    20    1
    25    21    20    1
    26    20    22    1
    27    22    23    1
    28    23    24    1
    29    24    25    1
    30    27    25    1
    31    25    26    1
