@<TRIPOS>MOLECULE
3d4x_HEM_A_1.pdb
 43 50 0 0 0
SMALL
GASTEIGER

@<TRIPOS>ATOM
      1 FE         -0.9140    0.0060    1.9950 Fe    143  HEM143      0.0000
      2  CHA       -4.1030    0.5580    1.0330 C.2   143  HEM143      0.0000
      3  CHB        0.1830    0.9100   -1.2510 C.2   143  HEM143      0.0000
      4  CHC        2.4110   -0.2970    2.8790 C.2   143  HEM143      0.0000
      5  CHD       -1.8660   -1.2700    5.0610 C.2   143  HEM143      0.0000
      6  NA        -1.7900    0.6690    0.2100 N.ar  143  HEM143      0.0000
      7  C1A       -3.1560    0.7420    0.0310 C.ar  143  HEM143      0.0000
      8  C2A       -3.3750    1.0190   -1.3830 C.ar  143  HEM143      0.0000
      9  C3A       -2.1880    1.0990   -2.0010 C.ar  143  HEM143      0.0000
     10  C4A       -1.1650    0.8860   -1.0090 C.ar  143  HEM143      0.0000
     11  CMA       -1.8840    1.3660   -3.4870 C.3   143  HEM143      0.0000
     12  CAA       -4.7450    1.1520   -2.0680 C.3   143  HEM143      0.0000
     13  CBA       -5.3620    2.4890   -1.6740 C.3   143  HEM143      0.0000
     14  CGA       -6.1640    3.0800   -2.8050 C.2   143  HEM143      0.0000
     15  O1A       -6.8100    4.1390   -2.5700 O.co2 143  HEM143      0.0000
     16  O2A       -6.1470    2.4960   -3.9230 O.co2 143  HEM143      0.0000
     17  NB         0.9590    0.2410    0.9960 N.2   143  HEM143      0.0000
     18  C1B        1.1630    0.6340   -0.3230 C.2   143  HEM143      0.0000
     19  C2B        2.5940    0.6890   -0.5740 C.2   143  HEM143      0.0000
     20  C3B        3.2210    0.3620    0.5620 C.2   143  HEM143      0.0000
     21  C4B        2.2050    0.0680    1.5630 C.2   143  HEM143      0.0000
     22  CMB        3.2170    1.0890   -1.9330 C.3   143  HEM143      0.0000
     23  CAB        4.7530    0.3050    0.8050 C.2   143  HEM143      0.0000
     24  CBB        5.6370   -0.1120   -0.1080 C.2   143  HEM143      0.0000
     25  NC         0.0740   -0.6440    3.6640 N.ar  143  HEM143      0.0000
     26  C1C        1.4470   -0.7100    3.7950 C.ar  143  HEM143      0.0000
     27  C2C        1.7240   -1.2950    5.0800 C.ar  143  HEM143      0.0000
     28  C3C        0.5480   -1.5800    5.6740 C.ar  143  HEM143      0.0000
     29  C4C       -0.5110   -1.1620    4.8010 C.ar  143  HEM143      0.0000
     30  CMC        3.1520   -1.5570    5.6100 C.3   143  HEM143      0.0000
     31  CAC        0.3100   -2.2390    7.0490 C.2   143  HEM143      0.0000
     32  CBC        0.4910   -3.5550    7.1710 C.2   143  HEM143      0.0000
     33  ND        -2.7090   -0.3040    2.9360 N.2   143  HEM143      0.0000
     34  C1D       -2.8730   -0.8640    4.2020 C.2   143  HEM143      0.0000
     35  C2D       -4.2810   -0.9690    4.4510 C.2   143  HEM143      0.0000
     36  C3D       -4.9600   -0.4080    3.1940 C.2   143  HEM143      0.0000
     37  C4D       -3.9190   -0.0190    2.2880 C.2   143  HEM143      0.0000
     38  CMD       -4.9920   -1.5190    5.7000 C.3   143  HEM143      0.0000
     39  CAD       -6.4720   -0.3130    2.9750 C.3   143  HEM143      0.0000
     40  CBD       -6.8580   -1.5750    2.2360 C.3   143  HEM143      0.0000
     41  CGD       -8.3120   -1.4110    1.9190 C.2   143  HEM143      0.0000
     42  O1D       -8.6620   -0.4950    1.1400 O.co2 143  HEM143      0.0000
     43  O2D       -9.1310   -2.1790    2.4680 O.co2 143  HEM143      0.0000
@<TRIPOS>BOND
     1    16    14   ar
     2    11     9    1
     3    14    15   ar
     4    14    13    1
     5    12    13    1
     6    12     8    1
     7     9     8   ar
     8     9    10   ar
     9    22    19    1
    10     8     7   ar
    11     3    10    2
    12     3    18    1
    13    10     6   ar
    14    19    18    1
    15    19    20    2
    16    18    17    2
    17    24    23    2
    18     7     6   ar
    19     7     2    2
    20     6     1    1
    21    20    23    1
    22    20    21    1
    23    17    21    1
    24    17     1    1
    25     2    37    1
    26    42    41   ar
    27    21     4    2
    28    41    40    1
    29    41    43   ar
    30     1    33    1
    31     1    25    1
    32    40    39    1
    33    37    33    2
    34    37    36    1
    35     4    26    1
    36    33    34    1
    37    39    36    1
    38    36    35    2
    39    25    26   ar
    40    25    29   ar
    41    26    27   ar
    42    34    35    1
    43    34     5    2
    44    35    38    1
    45    29     5    1
    46    29    28   ar
    47    27    30    1
    48    27    28   ar
    49    28    31    1
    50    31    32    2
