@<TRIPOS>MOLECULE
3d4y_MVL_A_1.pdb
 14 15 0 0 0
SMALL
GASTEIGER

@<TRIPOS>ATOM
      1  C1        30.9340   65.6600   10.2270 C.ar  1049  MVL1049     0.1538
      2  N10       29.8310   65.9680    9.4220 N.ar  1049  MVL1049    -0.3082
      3  C3        32.5490   66.0090    8.2860 C.3   1049  MVL1049     0.2215
      4  C4        31.2980   65.8130    7.4150 C.3   1049  MVL1049     0.2082
      5  C5        29.9510   66.2590    7.9880 C.3   1049  MVL1049     0.1525
      6  C6        28.8310   65.6510    7.1850 C.3   1049  MVL1049     0.2072
      7  C7        29.1610   65.7970   11.5000 C.ar  1049  MVL1049     0.1189
      8  C8        28.7570   66.0700   10.2400 C.ar  1049  MVL1049     0.0979
      9  N1        30.4730   65.5630   11.4940 N.ar  1049  MVL1049    -0.2266
     10  O3        33.6670   65.4600    7.6320 O.3   1049  MVL1049    -0.2171
     11  O2        33.1470   64.3740    9.9060 O.3   1049  MVL1049    -0.2121
     12  O4        31.4580   66.6910    6.2940 O.3   1049  MVL1049    -0.2182
     13  C2        32.3960   65.5560    9.6900 C.3   1049  MVL1049     0.2405
     14  O6        27.5810   66.1010    7.6760 O.3   1049  MVL1049    -0.2182
@<TRIPOS>BOND
     1    12     4    1
     2     6    14    1
     3     6     5    1
     4     4     5    1
     5     4     3    1
     6    10     3    1
     7     5     2    1
     8     3    13    1
     9     2     1   ar
    10     2     8   ar
    11    13    11    1
    12    13     1    1
    13     1     9   ar
    14     8     7   ar
    15     9     7   ar
