@<TRIPOS>MOLECULE
3d4z_GIM_A_1.pdb
 14 15 0 0 0
SMALL
GASTEIGER

@<TRIPOS>ATOM
      1  C1        30.7970   65.9420    9.6970 C.ar  1048  GIM1048     0.1538
      2  C2        31.9610   65.3180    8.9250 C.3   1048  GIM1048     0.2405
      3  N10       29.8090   66.5940    8.9820 N.ar  1048  GIM1048    -0.3082
      4  C3        32.3650   66.3030    7.8260 C.3   1048  GIM1048     0.2215
      5  C4        31.1990   66.4350    6.8650 C.3   1048  GIM1048     0.2082
      6  C5        29.8750   66.8470    7.5350 C.3   1048  GIM1048     0.1525
      7  C6        28.7490   66.0830    6.7850 C.3   1048  GIM1048     0.2072
      8  C7        29.3520   66.6560   11.1160 C.ar  1048  GIM1048     0.1189
      9  C8        28.8980   66.9960    9.9080 C.ar  1048  GIM1048     0.0979
     10  N1        30.5160   65.9940   10.9800 N.ar  1048  GIM1048    -0.2266
     11  O3        33.4910   65.6800    7.1400 O.3   1048  GIM1048    -0.2171
     12  O2        33.0570   64.9380    9.7170 O.3   1048  GIM1048    -0.2121
     13  O4        31.4880   67.4510    5.8940 O.3   1048  GIM1048    -0.2182
     14  O6        27.4750   66.5040    7.2990 O.3   1048  GIM1048    -0.2182
@<TRIPOS>BOND
     1    13     5    1
     2     7    14    1
     3     7     6    1
     4     5     6    1
     5     5     4    1
     6    11     4    1
     7     6     3    1
     8     4     2    1
     9     2     1    1
    10     2    12    1
    11     3     1   ar
    12     3     9   ar
    13     1    10   ar
    14     9     8   ar
    15    10     8   ar
