@<TRIPOS>MOLECULE
3d50_OEV_A_1.pdb
 20 20 0 0 0
SMALL
GASTEIGER

@<TRIPOS>ATOM
      1  C1        31.0090   66.4990    9.8830 C.3   1048  OEV1048     0.1272
      2  N1        30.6640   65.6540   10.9880 N.3   1048  OEV1048    -0.2124
      3  C2        32.0920   65.7570    9.0390 C.3   1048  OEV1048     0.2049
      4  O2        33.1750   65.4250    9.8250 O.3   1048  OEV1048    -0.2184
      5  C3        32.4520   66.6210    7.8710 C.3   1048  OEV1048     0.2179
      6  O3        33.5420   66.2060    7.1200 O.3   1048  OEV1048    -0.2172
      7  C4        31.2470   66.7780    6.9260 C.3   1048  OEV1048     0.2053
      8  O4        31.4800   67.7320    5.9490 O.3   1048  OEV1048    -0.2157
      9  C5        29.9150   67.0050    7.6700 C.2   1048  OEV1048     0.0180
     10  C6        28.6920   67.3290    6.8370 C.3   1048  OEV1048     0.2066
     11  O6        27.5090   67.0920    7.5090 O.3   1048  OEV1048    -0.2155
     12  C7        29.8170   66.8480    9.0230 C.2   1048  OEV1048    -0.0100
     13  C8        29.5290   66.1410   11.7530 C.3   1048  OEV1048     0.0895
     14  C9        29.7400   67.5650   12.2080 C.3   1048  OEV1048     0.0235
     15  C10       28.9420   67.9290   13.4760 C.3   1048  OEV1048     0.0272
     16  C11       27.4620   68.1630   13.2640 C.2   1048  OEV1048    -0.0307
     17  C12       26.9860   68.0100   11.8560 C.2   1048  OEV1048    -0.0307
     18  C13       25.5470   68.5010   11.5720 C.3   1048  OEV1048     0.0257
     19  C14       24.5710   67.3530   11.5300 C.3   1048  OEV1048     0.0047
     20  C15       23.8660   67.1690   10.1960 C.3   1048  OEV1048     0.0004
@<TRIPOS>BOND
     1     8     7    1
     2    10    11    1
     3    10     9    1
     4     7     9    1
     5     7     5    1
     6     6     5    1
     7     9    12    2
     8     5     3    1
     9    12     1    1
    10     3     4    1
    11     3     1    1
    12     1     2    1
    13    20    19    1
    14     2    13    1
    15    19    18    1
    16    18    17    1
    17    13    14    1
    18    17    16    2
    19    14    15    1
    20    16    15    1
