@<TRIPOS>MOLECULE
3d51_GOX_A_1.pdb
 13 13 0 0 0
SMALL
GASTEIGER

@<TRIPOS>ATOM
      1  C1        30.8330   65.8530    9.7600 C.2   1048  GOX1048     0.4163
      2  N1        30.7250   65.8020   11.0680 N.4   1048  GOX1048     0.1455
      3  C2        31.9830   65.2300    9.0090 C.3   1048  GOX1048     0.2978
      4  N5        29.8530   66.4580    9.0170 N.2   1048  GOX1048    -0.0582
      5  O7        29.6260   66.4080   11.6110 O.3   1048  GOX1048     0.0696
      6  O2        33.0870   64.8900    9.8330 O.3   1048  GOX1048    -0.2066
      7  C3        32.4080   66.1970    7.9130 C.3   1048  GOX1048     0.2291
      8  O3        33.5370   65.5880    7.2760 O.3   1048  GOX1048    -0.2168
      9  C4        31.2630   66.2720    6.9030 C.3   1048  GOX1048     0.2365
     10  O4        31.5320   67.2240    5.8920 O.3   1048  GOX1048    -0.2155
     11  C5        29.9020   66.6560    7.5430 C.3   1048  GOX1048     0.2803
     12  C6        28.7560   65.9480    6.8330 C.3   1048  GOX1048     0.2377
     13  O6        27.5330   66.3900    7.4590 O.3   1048  GOX1048    -0.2155
@<TRIPOS>BOND
     1    10     9    1
     2    12    13    1
     3    12    11    1
     4     9    11    1
     5     9     7    1
     6     8     7    1
     7    11     4    1
     8     7     3    1
     9     3     1    1
    10     3     6    1
    11     4     1    2
    12     1     2    1
    13     2     5    1
