@<TRIPOS>MOLECULE
3d52_GHR_A_1.pdb
 23 24 0 0 0
SMALL
GASTEIGER

@<TRIPOS>ATOM
      1  C1        30.5980   65.1430   10.0330 C.2   1048  GHR1048     0.4253
      2  N5        29.6260   65.8060    9.2940 N.2   1048  GHR1048    -0.0575
      3  C5        29.6950   65.9730    7.8240 C.3   1048  GHR1048     0.2803
      4  C6        28.5110   65.3100    7.1290 C.3   1048  GHR1048     0.2377
      5  O6        27.3290   65.7390    7.7610 O.3   1048  GHR1048    -0.2155
      6  C4        31.0410   65.5370    7.1970 C.3   1048  GHR1048     0.2365
      7  O4        31.3380   66.4650    6.1820 O.3   1048  GHR1048    -0.2155
      8  C3        32.1680   65.4450    8.2060 C.3   1048  GHR1048     0.2292
      9  O3        33.3090   64.9260    7.5660 O.3   1048  GHR1048    -0.2168
     10  C2        31.7360   64.4680    9.2740 C.3   1048  GHR1048     0.2987
     11  O2        32.8110   64.1350   10.1190 O.3   1048  GHR1048    -0.2066
     12  N1        30.5570   65.0900   11.3650 N.4   1048  GHR1048     0.1683
     13 CL12       31.3950   67.9590   17.8590 Cl    1048  GHR1048    -0.0822
     14  C12       30.5630   67.8750   16.3350 C.ar  1048  GHR1048     0.0578
     15  C11       31.2040   67.3920   15.2100 C.ar  1048  GHR1048     0.0127
     16  C10       30.5600   67.3110   13.9940 C.ar  1048  GHR1048     0.0176
     17  C13       29.2390   68.2830   16.2240 C.ar  1048  GHR1048     0.0127
     18  C14       28.5820   68.2050   14.9960 C.ar  1048  GHR1048     0.0176
     19  C9        29.2410   67.7200   13.8780 C.ar  1048  GHR1048     0.0769
     20  N9        28.5980   67.6440   12.7150 N.am  1048  GHR1048    -0.1389
     21  C8        28.7600   66.6360   11.8400 C.2   1048  GHR1048     0.4742
     22  O8        28.0840   66.6080   10.8170 O.2   1048  GHR1048    -0.2197
     23  O7        29.6010   65.6130   12.1990 O.3   1048  GHR1048    -0.1927
@<TRIPOS>BOND
     1     7     6    1
     2     4     5    1
     3     4     3    1
     4     6     3    1
     5     6     8    1
     6     9     8    1
     7     3     2    1
     8     8    10    1
     9    10     1    1
    10    10    11    1
    11     2     1    2
    12     1    12    1
    13    22    21    2
    14    12    23    1
    15    21    23    1
    16    21    20   am
    17    20    19    1
    18    19    16   ar
    19    19    18   ar
    20    16    15   ar
    21    18    17   ar
    22    15    14   ar
    23    17    14   ar
    24    14    13    1
