@<TRIPOS>MOLECULE
3d54_ADP_A_1.pdb
 27 29 0 0 0
SMALL
GASTEIGER

@<TRIPOS>ATOM
      1  PB        34.7030   40.4980    9.2080 P.3   2004  ADP2004     0.5373
      2  O1B       36.0840   41.1630    8.7200 O.2   2004  ADP2004    -0.2221
      3  O2B       34.8480   39.0850    9.6230 O.3   2004  ADP2004    -0.1143
      4  O3B       34.1550   41.4400   10.3910 O.3   2004  ADP2004    -0.1143
      5  PA        32.1590   41.0870    8.3580 P.3   2004  ADP2004     0.2231
      6  O1A       31.9280   40.7250    9.7740 O.3   2004  ADP2004    -0.4370
      7  O2A       31.2770   40.4970    7.3260 O.2   2004  ADP2004    -0.5169
      8  O3A       33.6730   40.6990    7.9910 O.3   2004  ADP2004    -0.2261
      9  O5'       32.1780   42.6890    8.2090 O.3   2004  ADP2004    -0.3111
     10  C5'       32.7990   43.4950    9.2120 C.3   2004  ADP2004     0.1813
     11  C4'       32.7290   44.9760    8.8380 C.3   2004  ADP2004     0.1821
     12  O4'       31.3550   45.3930    8.9030 O.3   2004  ADP2004    -0.3135
     13  C3'       33.4240   45.7710    9.9420 C.3   2004  ADP2004     0.2184
     14  O3'       33.5160   47.1420    9.5510 O.3   2004  ADP2004    -0.2174
     15  C2'       32.3530   45.6350   11.0180 C.3   2004  ADP2004     0.2570
     16  O2'       32.5690   46.6230   12.0270 O.3   2004  ADP2004    -0.2130
     17  C1'       31.1620   46.0600   10.1610 C.3   2004  ADP2004     0.3186
     18  N9        29.9130   45.6320   10.8210 N.pl3 2004  ADP2004    -0.1439
     19  C8        29.4200   44.3970   10.8210 C.3   2004  ADP2004     0.3377
     20  N7        28.3160   44.3610   11.5630 N.2   2004  ADP2004    -0.2095
     21  C5        28.1020   45.5820   12.0380 C.2   2004  ADP2004     0.2526
     22  C6        27.1390   46.1400   12.8680 C.2   2004  ADP2004     0.4393
     23  N6        26.1670   45.3890   13.3740 N.pl3 2004  ADP2004     0.2180
     24  N1        27.2220   47.4410   13.1690 N.2   2004  ADP2004     0.0021
     25  C2        28.2020   48.1870   12.6910 C.3   2004  ADP2004     0.5254
     26  N3        29.1380   47.6890   11.9030 N.2   2004  ADP2004    -0.0055
     27  C4        29.1170   46.3960   11.5600 C.2   2004  ADP2004     0.3518
@<TRIPOS>BOND
     1     7     5    2
     2     8     5    1
     3     8     1    1
     4     9     5    1
     5     9    10    1
     6     5     6    1
     7     2     1    2
     8    11    12    1
     9    11    10    1
    10    11    13    1
    11    12    17    1
    12     1     3    1
    13     1     4    1
    14    14    13    1
    15    13    15    1
    16    17    18    1
    17    17    15    1
    18    19    18    1
    19    19    20    1
    20    18    27    1
    21    15    16    1
    22    27    26    2
    23    27    21    1
    24    20    21    2
    25    26    25    1
    26    21    22    1
    27    25    24    1
    28    22    24    2
    29    22    23    1
