@<TRIPOS>MOLECULE
3d57_4HY_A_1.pdb
 21 22 0 0 0
SMALL
GASTEIGER

@<TRIPOS>ATOM
      1  C1        46.2090   -1.2550   35.0260 C.ar  500  4HY500     -0.0099
      2  C2        45.1620   -0.0570   39.8930 C.ar  500  4HY500      0.1460
      3  C3        47.2970   -1.2380   36.0000 C.ar  500  4HY500      0.0051
      4  C4        45.3710   -0.1540   41.2450 C.ar  500  4HY500      0.0465
      5  C5        46.9890   -1.2590   37.3670 C.ar  500  4HY500      0.0647
      6  C6        45.2270    0.9260   42.0730 C.ar  500  4HY500      0.0720
      7  C7        45.6550   -1.2970   37.8130 C.ar  500  4HY500      0.1558
      8  C8        44.8410    2.1940   41.5330 C.ar  500  4HY500      0.2012
      9  C9        44.5820   -1.3260   36.8420 C.ar  500  4HY500      0.0647
     10  C10       44.6200    2.3260   40.1370 C.ar  500  4HY500      0.0456
     11  C11       44.8950   -1.2980   35.4330 C.ar  500  4HY500      0.0051
     12  C12       44.7800    1.1900   39.3080 C.ar  500  4HY500      0.0408
     13  C13       46.5260   -1.2370   33.5740 C.3   500  4HY500      0.1404
     14  C14       46.6150   -2.6500   32.8650 C.2   500  4HY500      0.3692
     15  I1        48.5430   -1.3100   38.8270 I     500  4HY500     -0.0393
     16  I2        45.5920    0.6820   44.0980 I     500  4HY500     -0.0391
     17  I3        42.5540   -1.4870   37.5100 I     500  4HY500     -0.0393
     18  O3        46.0870   -3.6410   33.4590 O.co2 500  4HY500     -0.2453
     19  O2        45.3350   -1.2520   39.1600 O.3   500  4HY500     -0.4526
     20  O1        44.6690    3.2860   42.3940 O.3   500  4HY500     -0.2861
     21  O4        47.2080   -2.6790   31.7540 O.co2 500  4HY500     -0.2453
@<TRIPOS>BOND
     1    21    14   ar
     2    14    18   ar
     3    14    13    1
     4    13     1    1
     5     1    11   ar
     6     1     3   ar
     7    11     9   ar
     8     3     5   ar
     9     9    17    1
    10     9     7   ar
    11     5     7   ar
    12     5    15    1
    13     7    19    1
    14    19     2    1
    15    12     2   ar
    16    12    10   ar
    17     2     4   ar
    18    10     8   ar
    19     4     6   ar
    20     8     6   ar
    21     8    20    1
    22     6    16    1
