@<TRIPOS>MOLECULE
3d5f_L41_A_1.pdb
 29 30 0 0 0
SMALL
GASTEIGER

@<TRIPOS>ATOM
      1  C1        30.5500    5.1480   56.9670 C.2   501  L41501      0.0471
      2  C2        31.5710    4.1480   57.0340 C.2   501  L41501      0.1370
      3  C3        30.1480    5.6340   55.6620 C.2   501  L41501      0.1826
      4  C4        29.9190    5.6740   58.2950 C.3   501  L41501      0.0324
      5  C5        32.1970    3.6040   55.8690 C.2   501  L41501      0.0329
      6  O6        31.8880    3.7510   58.3320 O.2   501  L41501     -0.4756
      7  C7        30.7790    5.0870   54.4920 C.3   501  L41501      0.1410
      8  O8        29.2790    6.4950   55.5430 O.2   501  L41501     -0.2908
      9  C9        30.7910    6.7610   58.9430 C.3   501  L41501      0.0049
     10  C10       31.8070    4.0730   54.6060 C.2   501  L41501     -0.0083
     11  C11       33.0360    2.9440   58.6300 C.3   501  L41501      0.2093
     12  C12       30.3610    5.5740   53.1510 C.2   501  L41501      0.1621
     13  C13       30.3930    7.1200   60.3590 C.3   501  L41501      0.0004
     14  C14       33.1390    2.8290   60.1450 C.3   501  L41501      0.0946
     15  C15       30.8980    4.8510   51.9100 C.3   501  L41501      0.0731
     16  O16       29.6000    6.5180   52.9420 O.2   501  L41501     -0.2953
     17  C17       33.5180    4.1900   60.6660 C.3   501  L41501      0.2093
     18  O18       34.8230    4.5670   60.1440 O.3   501  L41501     -0.4753
     19  C19       35.3020    5.9410   60.1440 C.ar  501  L41501      0.1388
     20  C20       36.5820    6.2100   59.4680 C.ar  501  L41501      0.0400
     21  C21       34.5190    6.9510   60.8180 C.ar  501  L41501      0.0400
     22  C22       37.0450    7.5820   59.4520 C.ar  501  L41501      0.0400
     23  C23       34.9690    8.2720   60.7600 C.ar  501  L41501      0.0400
     24  C24       36.1880    8.5770   60.0660 C.ar  501  L41501      0.1396
     25  O25       36.6450    9.8860   59.9900 O.3   501  L41501     -0.4637
     26  C26       35.8530   11.0720   60.2700 C.3   501  L41501      0.3186
     27  C27       35.8450   11.4040   61.7920 C.2   501  L41501      0.4084
     28  O28       35.1230   12.3600   62.2070 O.co2 501  L41501     -0.2415
     29  O29       36.5580   10.6860   62.5190 O.co2 501  L41501     -0.2415
@<TRIPOS>BOND
     1    15    12    1
     2    16    12    2
     3    12     7    1
     4     7    10    1
     5     7     3    1
     6    10     5    2
     7     8     3    2
     8     3     1    1
     9     5     2    1
    10     1     2    2
    11     1     4    1
    12     2     6    1
    13     4     9    1
    14     6    11    1
    15    11    14    1
    16     9    13    1
    17    22    20   ar
    18    22    24   ar
    19    20    19   ar
    20    25    24    1
    21    25    26    1
    22    24    23   ar
    23    18    19    1
    24    18    17    1
    25    19    21   ar
    26    14    17    1
    27    26    27    1
    28    23    21   ar
    29    27    28   ar
    30    27    29   ar
