@<TRIPOS>MOLECULE
3d5i_SGP_B_1.pdb
 23 26 0 0 0
SMALL
GASTEIGER

@<TRIPOS>ATOM
      1  P         58.4720  -27.0950   28.8560 P.3    98  SGP98       0.4036
      2  S1P       59.4580  -27.5050   27.2450 S.3    98  SGP98       0.0393
      3  O1P       56.7340  -27.2620   28.5660 O.2    98  SGP98      -0.2449
      4  O5'       61.6500  -28.0660   32.7640 O.3    98  SGP98      -0.2176
      5  C5'       60.2780  -27.8100   33.1050 C.3    98  SGP98       0.2141
      6  C4'       59.6780  -26.7480   32.1860 C.3    98  SGP98       0.1800
      7  O4'       60.1780  -25.4190   32.3990 O.3    98  SGP98      -0.3327
      8  C3'       60.0350  -27.0710   30.7610 C.3    98  SGP98       0.1860
      9  O3'       59.0370  -27.8730   30.1280 O.3    98  SGP98      -0.2835
     10  C2'       60.1380  -25.7140   30.0880 C.3    98  SGP98       0.2011
     11  O2'       58.9420  -25.6280   29.3270 O.3    98  SGP98      -0.2818
     12  C1'       60.2410  -24.6670   31.1700 C.3    98  SGP98       0.2264
     13  N9        61.5020  -23.8590   31.2040 N.pl3  98  SGP98      -0.2354
     14  C8        61.5540  -22.5030   31.2920 C.3    98  SGP98       0.2246
     15  N7        62.8410  -22.0590   31.3730 N.2    98  SGP98      -0.2322
     16  C5        63.6380  -23.1380   31.3460 C.2    98  SGP98       0.2182
     17  C6        65.0970  -23.3850   31.3890 C.1    98  SGP98       0.2372
     18  O6        65.9030  -22.4390   31.4830 O.2    98  SGP98      -0.2069
     19  N1        65.5180  -24.6680   31.3360 N.2    98  SGP98      -0.2485
     20  C2        64.6580  -25.7030   31.2580 C.1    98  SGP98       0.2531
     21  N2        65.1510  -26.9620   31.2170 N.pl3  98  SGP98      -0.0226
     22  N3        63.3190  -25.5540   31.2130 N.2    98  SGP98      -0.3074
     23  C4        62.7570  -24.3230   31.2520 C.2    98  SGP98       0.2300
@<TRIPOS>BOND
     1     2     1    1
     2     3     1    2
     3     1    11    1
     4     1     9    1
     5    11    10    1
     6    10     8    1
     7    10    12    1
     8     9     8    1
     9     8     6    1
    10    12    13    1
    11    12     7    1
    12    13    23    1
    13    13    14    1
    14    22    23    2
    15    22    20    2
    16    21    20    1
    17    23    16    1
    18    20    19    2
    19    14    15    1
    20    19    17    2
    21    16    15    2
    22    16    17    1
    23    17    18    2
    24     6     7    1
    25     6     5    1
    26     4     5    1
