@<TRIPOS>MOLECULE
3d5j_GSH_A_1.pdb
 20 19 0 0 0
SMALL
GASTEIGER

@<TRIPOS>ATOM
      1  N1         2.4460   -7.0930  -12.7150 N.3   201  GSH201     -0.1208
      2  CA1        3.4550   -6.0800  -12.4030 C.3   201  GSH201      0.1948
      3  C1         4.5850   -6.1920  -13.4030 C.2   201  GSH201      0.3819
      4  O11        5.0630   -7.3370  -13.5260 O.co2 201  GSH201     -0.2441
      5  O12        5.0800   -5.2250  -14.0570 O.co2 201  GSH201     -0.2441
      6  CB1        2.8520   -4.6900  -12.2580 C.3   201  GSH201      0.0402
      7  CG1        3.9130   -3.6290  -12.0310 C.3   201  GSH201      0.0889
      8  CD1        3.6430   -2.6860  -10.8590 C.2   201  GSH201      0.2418
      9  OE1        2.6490   -2.9800   -9.9140 O.2   201  GSH201     -0.2733
     10  N2         4.4200   -1.6160  -10.7790 N.am  201  GSH201     -0.1968
     11  CA2        4.2570   -0.5620   -9.7760 C.3   201  GSH201      0.1843
     12  C2         3.4340    0.5690  -10.3330 C.2   201  GSH201      0.2627
     13  O2         3.5990    0.8910  -11.6740 O.2   201  GSH201     -0.2714
     14  CB2        5.6120   -0.0100   -9.3730 C.3   201  GSH201      0.0997
     15  SG2        6.7830   -1.2920   -8.8310 S.3   201  GSH201     -0.0797
     16  N3         2.5840    1.2480   -9.5580 N.am  201  GSH201     -0.1917
     17  CA3        1.9500    2.5090   -9.9600 C.3   201  GSH201      0.2285
     18  C3         2.8520    3.6420  -10.4410 C.2   201  GSH201      0.3865
     19  O31        4.0430    3.4390  -10.8090 O.co2 201  GSH201     -0.2437
     20  O32        2.4070    4.8290  -10.4870 O.co2 201  GSH201     -0.2437
@<TRIPOS>BOND
     1     5     3   ar
     2     4     3   ar
     3     3     2    1
     4     1     2    1
     5     2     6    1
     6     6     7    1
     7     7     8    1
     8    13    12    2
     9     8    10   am
    10     8     9    2
    11    19    18   ar
    12    10    11    1
    13    20    18   ar
    14    18    17    1
    15    12    11    1
    16    12    16   am
    17    17    16    1
    18    11    14    1
    19    14    15    1
