@<TRIPOS>MOLECULE
3d5m_4MS_A_1.pdb
 37 40 0 0 0
SMALL
GASTEIGER

@<TRIPOS>ATOM
      1  C4        93.9240   63.8280   52.5060 C.ar  579  4MS579     -0.0003
      2  C5        92.6050   63.5130   52.1630 C.ar  579  4MS579      0.0302
      3  C6        94.3780   64.6020   50.2760 C.ar  579  4MS579      0.0111
      4  C7        96.5650   62.5440   57.1740 C.ar  579  4MS579      0.0383
      5  C8        94.8120   64.3810   51.5780 C.ar  579  4MS579     -0.0013
      6  C10       92.1620   63.7460   50.8600 C.ar  579  4MS579      0.1506
      7  C13       97.0750   61.7570   56.0270 C.2   579  4MS579      0.1108
      8  C15       97.1160   61.4490   53.5310 C.2   579  4MS579      0.1968
      9  C17       96.9690   62.2050   52.2390 C.3   579  4MS579      0.1377
     10  C20       98.6450   60.8040   50.9240 C.3   579  4MS579      0.0021
     11  C21       98.8840   61.4870   63.6980 C.3   579  4MS579      0.1975
     12  C22       96.2420   64.6780   51.9860 C.3   579  4MS579      0.1208
     13  C24       98.3230   62.2230   51.4700 C.3   579  4MS579      0.0239
     14 CL37       92.5580   64.6150   48.3060 Cl    579  4MS579     -0.0799
     15  C12       93.0570   64.2950   49.9240 C.ar  579  4MS579      0.0848
     16  F34       90.8860   63.4300   50.5460 F     579  4MS579     -0.2033
     17  N26       96.6130   63.5230   52.7820 N.am  579  4MS579     -0.2665
     18  C19       99.4910   62.7170   52.3670 C.3   579  4MS579      0.0021
     19  C18       98.3300   63.1600   50.2410 C.3   579  4MS579      0.0021
     20  O33       97.4580   60.1310   53.5190 O.2   579  4MS579     -0.2894
     21  C16       96.5940   63.5530   54.1640 C.2   579  4MS579      0.2539
     22  O28       96.3400   64.5140   54.8680 O.2   579  4MS579     -0.2697
     23  C14       96.8900   62.1780   54.6350 C.2   579  4MS579      0.1090
     24  C2        95.7860   63.6910   57.2610 C.ar  579  4MS579      0.0029
     25  N25       97.7880   60.7100   56.3330 N.2   579  4MS579     -0.1275
     26  S35       97.9240   60.5160   57.9640 S.O2  579  4MS579      0.1003
     27  O29       99.3150   60.7330   58.3250 O.2   579  4MS579     -0.1463
     28  O30       97.1720   59.3680   58.4120 O.2   579  4MS579     -0.1463
     29  C11       96.9850   61.9290   58.3490 C.ar  579  4MS579      0.1280
     30  C9        96.6570   62.4080   59.6040 C.ar  579  4MS579      0.0163
     31  C3        95.8720   63.5690   59.6960 C.ar  579  4MS579     -0.0015
     32  C1        95.4420   64.2070   58.5210 C.ar  579  4MS579     -0.0001
     33  C23       97.1320   61.7100   60.8150 C.3   579  4MS579      0.1427
     34  N27       97.0610   62.4990   62.0140 N.3   579  4MS579     -0.0771
     35  S36       97.1290   61.5700   63.4350 S.O2  579  4MS579      0.0595
     36  O31       96.6860   60.2160   63.1350 O.2   579  4MS579     -0.1561
     37  O32       96.5810   62.3050   64.5500 O.2   579  4MS579     -0.1561
@<TRIPOS>BOND
     1    14    15    1
     2    15     3   ar
     3    15     6   ar
     4    19    13    1
     5     3     5   ar
     6    16     6    1
     7     6     2   ar
     8    10    13    1
     9    13     9    1
    10    13    18    1
    11     5    12    1
    12     5     1   ar
    13    12    17    1
    14     2     1   ar
    15     9    17    1
    16     9     8    1
    17    17    21   am
    18    20     8    1
    19     8    23    2
    20    21    23    1
    21    21    22    2
    22    23     7    1
    23     7    25    2
    24     7     4    1
    25    25    26    1
    26     4    24   ar
    27     4    29   ar
    28    24    32   ar
    29    26    27    2
    30    26    29    1
    31    26    28    2
    32    29    30   ar
    33    32    31   ar
    34    30    31   ar
    35    30    33    1
    36    33    34    1
    37    34    35    1
    38    36    35    2
    39    35    11    1
    40    35    37    2
