@<TRIPOS>MOLECULE
3d5q_T30_A_1.pdb
 29 32 0 0 0
SMALL
GASTEIGER

@<TRIPOS>ATOM
      1  F21        7.0380   -6.0890   11.6570 F     293  T30293     -0.2042
      2  C18        7.1550   -5.0670   12.5380 C.ar  293  T30293      0.1401
      3  C14        6.0180   -4.4320   13.0270 C.ar  293  T30293      0.0293
      4  C9         6.1340   -3.3880   13.9300 C.ar  293  T30293     -0.0016
      5  C13        8.4130   -4.6400   12.9540 C.ar  293  T30293      0.0293
      6  C8         8.5270   -3.5860   13.8510 C.ar  293  T30293     -0.0016
      7  C3         7.3880   -2.9610   14.3430 C.ar  293  T30293     -0.0159
      8  C1         7.4950   -1.8210   15.3120 C.3   293  T30293      0.0713
      9  C4         7.2960   -2.2600   16.7610 C.3   293  T30293      0.0120
     10  C5         8.6600   -1.7640   16.2880 C.3   293  T30293      0.0120
     11  C2         6.7920   -0.5380   14.9670 C.ar  293  T30293      0.1461
     12  N6         7.0590    0.1900   13.8730 N.ar  293  T30293     -0.3004
     13  C11        8.0880   -0.0630   12.8220 C.3   293  T30293      0.0882
     14  C16        8.6400    1.2500   12.2640 C.3   293  T30293      0.0246
     15  C17        7.5320   -0.9140   11.6920 C.3   293  T30293      0.0246
     16  N7         5.7970   -0.0640   15.7380 N.ar  293  T30293     -0.1330
     17  N12        5.4230    1.1050   15.0570 N.ar  293  T30293     -0.1291
     18  C10        6.2010    1.2300   13.9540 C.ar  293  T30293      0.1661
     19  C15        6.0320    2.3490   12.9970 C.ar  293  T30293      0.0361
     20  C19        5.9570    3.6560   13.4440 C.ar  293  T30293      0.0062
     21  C22        5.7760    4.6630   12.5030 C.ar  293  T30293      0.0373
     22  C20        5.9070    2.0460   11.6480 C.ar  293  T30293      0.0062
     23  C23        5.7250    3.0510   10.7140 C.ar  293  T30293      0.0373
     24  C24        5.6530    4.3660   11.1470 C.ar  293  T30293      0.1468
     25  O25        5.4620    5.3700   10.2220 O.3   293  T30293     -0.4045
     26  C26        4.1540    5.7650    9.7650 C.3   293  T30293      0.5753
     27  F29        3.2670    4.8010    9.9390 F     293  T30293     -0.1328
     28  F27        4.1840    6.0990    8.4900 F     293  T30293     -0.1328
     29  F28        3.7890    6.8240   10.4420 F     293  T30293     -0.1328
@<TRIPOS>BOND
     1    28    26    1
     2    26    27    1
     3    26    25    1
     4    26    29    1
     5    25    24    1
     6    23    24   ar
     7    23    22   ar
     8    24    21   ar
     9    22    19   ar
    10     1     2    1
    11    15    13    1
    12    14    13    1
    13    21    20   ar
    14     2     5   ar
    15     2     3   ar
    16    13    12    1
    17     5     6   ar
    18    19    20   ar
    19    19    18    1
    20     3     4   ar
    21     6     7   ar
    22    12    18   ar
    23    12    11   ar
    24     4     7   ar
    25    18    17   ar
    26     7     8    1
    27    11     8    1
    28    11    16   ar
    29    17    16   ar
    30     8    10    1
    31     8     9    1
    32    10     9    1
