@<TRIPOS>MOLECULE
3d5q_NAP_A_1.pdb
 48 52 0 0 0
SMALL
GASTEIGER

@<TRIPOS>ATOM
      1  PA        10.0520   -4.9800   22.8650 P.3     1  NAP1        0.2189
      2  O1A       11.2640   -4.2840   23.3660 O.3     1  NAP1       -0.4371
      3  O2A       10.3560   -6.0630   21.9000 O.2     1  NAP1       -0.5170
      4  O5B        9.2390   -5.5480   24.1220 O.3     1  NAP1       -0.3112
      5  C5B        8.1790   -6.4500   23.9100 C.3     1  NAP1        0.1813
      6  C4B        7.7470   -6.9190   25.2960 C.3     1  NAP1        0.1820
      7  O4B        6.5330   -7.6730   25.2880 O.3     1  NAP1       -0.3136
      8  C3B        8.8650   -7.8090   25.8150 C.3     1  NAP1        0.2157
      9  O3B        9.0550   -7.5760   27.1860 O.3     1  NAP1       -0.2175
     10  C2B        8.3180   -9.1930   25.5870 C.3     1  NAP1        0.2314
     11  O2B        8.8740  -10.0850   26.5240 O.3     1  NAP1       -0.2630
     12  C1B        6.8070   -8.9800   25.7330 C.3     1  NAP1        0.3158
     13  N9A        6.0770  -10.0050   24.9830 N.pl3   1  NAP1       -0.1439
     14  C8A        6.3760  -10.5010   23.7450 C.3     1  NAP1        0.3377
     15  N7A        5.4670  -11.4610   23.4380 N.2     1  NAP1       -0.2095
     16  C5A        4.6020  -11.5970   24.4700 C.2     1  NAP1        0.2526
     17  C6A        3.4960  -12.4160   24.6950 C.2     1  NAP1        0.4393
     18  N6A        3.0950  -13.3040   23.7820 N.pl3   1  NAP1        0.2180
     19  N1A        2.8070  -12.3200   25.8910 N.2     1  NAP1        0.0021
     20  C2A        3.2060  -11.4120   26.8380 C.3     1  NAP1        0.5254
     21  N3A        4.2980  -10.6020   26.6130 N.2     1  NAP1       -0.0055
     22  C4A        4.9850  -10.6910   25.4520 C.2     1  NAP1        0.3518
     23  O3         9.0970   -3.8820   22.1990 O.3     1  NAP1       -0.2703
     24  PN         9.2190   -2.2970   22.2660 P.3     1  NAP1        0.2189
     25  O1N        9.7920   -1.9380   23.5840 O.3     1  NAP1       -0.4371
     26  O2N        9.9340   -1.8100   21.0620 O.2     1  NAP1       -0.5170
     27  O5D        7.6590   -1.8440   22.1500 O.3     1  NAP1       -0.3112
     28  C5D        6.8470   -1.6320   23.2740 C.3     1  NAP1        0.1813
     29  C4D        5.5410   -0.9600   22.8870 C.3     1  NAP1        0.1799
     30  O4D        5.7780    0.2480   22.2070 O.3     1  NAP1       -0.3327
     31  C3D        4.6950   -1.8160   21.9600 C.3     1  NAP1        0.2158
     32  O3D        3.3440   -1.6380   22.3210 O.3     1  NAP1       -0.2175
     33  C2D        4.8930   -1.1870   20.6100 C.3     1  NAP1        0.2309
     34  O2D        3.7530   -1.2880   19.7950 O.3     1  NAP1       -0.2158
     35  C1D        5.0990    0.2530   20.9690 C.3     1  NAP1        0.2263
     36  N1N        5.8360    0.8730   19.8540 N.pl3   1  NAP1       -0.2787
     37  C2N        7.1780    0.6950   19.7070 C.3     1  NAP1        0.1244
     38  C3N        7.8410    1.2980   18.6390 C.2     1  NAP1        0.0544
     39  C7N        9.3230    1.1110   18.4720 C.2     1  NAP1        0.2818
     40  O7N        9.9590    1.5040   17.2860 O.2     1  NAP1       -0.2670
     41  N7N       10.0410    0.5640   19.4540 N.am    1  NAP1       -0.0839
     42  C4N        7.1330    2.0600   17.7260 C.2     1  NAP1        0.0033
     43  C5N        5.7720    2.2320   17.8960 C.2     1  NAP1        0.0157
     44  C6N        5.1240    1.6260   18.9600 C.2     1  NAP1        0.0633
     45  P2B        8.8970  -11.6710   26.2390 P.3     1  NAP1        0.5328
     46  O1X       10.0640  -12.3060   26.9410 O.3     1  NAP1       -0.1145
     47  O2X        7.6230  -12.2680   26.7480 O.3     1  NAP1       -0.1145
     48  O3X        9.0080  -11.9840   24.7730 O.2     1  NAP1       -0.2224
@<TRIPOS>BOND
     1    40    39    2
     2    42    43    1
     3    42    38    2
     4    43    44    2
     5    39    38    1
     6    39    41   am
     7    38    37    1
     8    44    36    1
     9    37    36    1
    10    34    33    1
    11    36    35    1
    12    33    35    1
    13    33    31    1
    14    35    30    1
    15    26    24    2
    16     3     1    2
    17    31    32    1
    18    31    29    1
    19    27    24    1
    20    27    28    1
    21    23    24    1
    22    23     1    1
    23    30    29    1
    24    24    25    1
    25     1     2    1
    26     1     4    1
    27    29    28    1
    28    15    14    1
    29    15    16    2
    30    14    13    1
    31    18    17    1
    32     5     4    1
    33     5     6    1
    34    16    17    1
    35    16    22    1
    36    17    19    2
    37    48    45    2
    38    13    22    1
    39    13    12    1
    40     7     6    1
    41     7    12    1
    42     6     8    1
    43    22    21    2
    44    10    12    1
    45    10     8    1
    46    10    11    1
    47     8     9    1
    48    19    20    1
    49    45    11    1
    50    45    47    1
    51    45    46    1
    52    21    20    1
