@<TRIPOS>MOLECULE
3d5w_ADP_A_1.pdb
 27 29 0 0 0
SMALL
GASTEIGER

@<TRIPOS>ATOM
      1  PB        49.3320   22.8230   74.1510 P.3   313  ADP313      0.5373
      2  O1B       48.6510   23.6590   75.2100 O.3   313  ADP313     -0.1143
      3  O2B       50.8410   22.8110   74.2350 O.3   313  ADP313     -0.1143
      4  O3B       48.8020   23.0370   72.7510 O.2   313  ADP313     -0.2221
      5  PA        47.5650   20.6360   73.9630 P.3   313  ADP313      0.2231
      6  O1A       46.4630   21.6700   73.9850 O.3   313  ADP313     -0.4370
      7  O2A       47.9070   19.9270   72.6730 O.2   313  ADP313     -0.5169
      8  O3A       48.9120   21.3140   74.5360 O.3   313  ADP313     -0.2261
      9  O5'       47.2150   19.5210   75.0710 O.3   313  ADP313     -0.3111
     10  C5'       48.1310   18.4710   75.3750 C.3   313  ADP313      0.1813
     11  C4'       47.7140   17.7780   76.6660 C.3   313  ADP313      0.1821
     12  O4'       47.3490   18.7480   77.6530 O.3   313  ADP313     -0.3135
     13  C3'       46.5140   16.8690   76.4430 C.3   313  ADP313      0.2184
     14  O3'       46.9140   15.4950   76.4680 O.3   313  ADP313     -0.2174
     15  C2'       45.5420   17.1910   77.5640 C.3   313  ADP313      0.2570
     16  O2'       45.4380   16.1060   78.4910 O.3   313  ADP313     -0.2130
     17  C1'       46.1000   18.4200   78.2720 C.3   313  ADP313      0.3186
     18  N9        45.1340   19.5460   78.1550 N.pl3 313  ADP313     -0.1439
     19  C8        45.2230   20.5880   77.3060 C.3   313  ADP313      0.3377
     20  N7        44.1740   21.4380   77.4530 N.2   313  ADP313     -0.2095
     21  C5        43.3850   20.9380   78.4200 C.2   313  ADP313      0.2526
     22  C6        42.1130   21.3310   79.0780 C.2   313  ADP313      0.4393
     23  N6        41.4590   22.4620   78.7190 N.pl3 313  ADP313      0.2180
     24  N1        41.6260   20.5210   80.0490 N.2   313  ADP313      0.0021
     25  C2        42.2640   19.3920   80.4210 C.3   313  ADP313      0.5254
     26  N3        43.4190   18.9760   79.8670 N.2   313  ADP313     -0.0055
     27  C4        44.0200   19.6910   78.8800 C.2   313  ADP313      0.3518
@<TRIPOS>BOND
     1     7     5    2
     2     4     1    2
     3     5     6    1
     4     5     8    1
     5     5     9    1
     6     1     3    1
     7     1     8    1
     8     1     2    1
     9     9    10    1
    10    10    11    1
    11    13    14    1
    12    13    11    1
    13    13    15    1
    14    11    12    1
    15    19    20    1
    16    19    18    1
    17    20    21    2
    18    15    17    1
    19    15    16    1
    20    12    17    1
    21    18    17    1
    22    18    27    1
    23    21    27    1
    24    21    22    1
    25    23    22    1
    26    27    26    2
    27    22    24    2
    28    26    25    1
    29    24    25    1
