@<TRIPOS>MOLECULE
3d5x_KWT_A_1.pdb
 31 34 0 0 0
SMALL
GASTEIGER

@<TRIPOS>ATOM
      1  C1        76.3840   47.8200   19.9220 C.3     1  KWT1        0.2050
      2  O1        76.1280   49.2180   20.1790 O.3     1  KWT1       -0.4488
      3  C9        77.3790   47.2450   20.9480 C.3     1  KWT1        0.0763
      4  C23       75.0650   47.0420   19.8920 C.3     1  KWT1        0.1862
      5  C2        76.4570   49.6740   21.5330 C.2     1  KWT1        0.3204
      6  O2        76.8950   50.7930   21.7190 O.2     1  KWT1       -0.2498
      7  C3        76.2550   48.7330   22.6650 C.3     1  KWT1        0.1209
      8  C4        76.7390   47.4660   22.3090 C.2     1  KWT1        0.0146
      9  C19       75.6830   48.9170   23.9190 C.3     1  KWT1        0.0162
     10  C5        76.5850   46.4010   23.3430 C.2     1  KWT1        0.2269
     11  C6        77.0630   45.0300   23.0610 C.2     1  KWT1        0.2291
     12  O5        76.0280   46.5210   24.6010 O.2     1  KWT1       -0.2838
     13  O3        76.9260   44.1510   23.9410 O.2     1  KWT1       -0.2835
     14  C7        77.6920   44.7470   21.7360 C.2     1  KWT1        0.0159
     15  O6        77.5850   45.4890   18.2460 O.3     1  KWT1       -0.4480
     16  C11       78.4970   45.4780   19.3550 C.3     1  KWT1        0.1878
     17  C21       78.1790   45.9980   17.0090 C.2     1  KWT1        0.3177
     18  C8        77.8240   45.8110   20.6750 C.2     1  KWT1        0.0008
     19  C15       78.1930   43.3960   21.3650 C.3     1  KWT1        0.0321
     20  C10       78.6830   48.0430   20.9090 C.3     1  KWT1        0.0120
     21  C12       79.3150   44.1650   19.3250 C.3     1  KWT1        0.0552
     22  C13       79.5510   43.5490   20.7010 C.3     1  KWT1        0.0591
     23  C14       80.5520   44.3640   21.5190 C.3     1  KWT1        0.0078
     24  C18       79.9990   42.1130   20.7230 C.2     1  KWT1        0.1503
     25  C16       78.3360   42.3020   22.4270 C.3     1  KWT1        0.0126
     26  C17       79.3180   41.3060   21.8060 C.3     1  KWT1        0.0648
     27  O4        80.8270   41.6420   19.9580 O.2     1  KWT1       -0.2961
     28  O7        78.9130   45.2630   16.3640 O.2     1  KWT1       -0.2501
     29  C22       77.8710   47.3940   16.5500 C.3     1  KWT1        0.1212
     30  O8        74.1870   47.5780   18.9050 O.3     1  KWT1       -0.3472
     31  C24       72.8290   47.2270   19.1670 C.3     1  KWT1        0.1743
@<TRIPOS>BOND
     1    28    17    2
     2    29    17    1
     3    17    15    1
     4    15    16    1
     5    30    31    1
     6    30     4    1
     7    21    16    1
     8    21    22    1
     9    16    18    1
    10     4     1    1
    11     1     2    1
    12     1     3    1
    13    27    24    2
    14     2     5    1
    15    18     3    1
    16    18    14    2
    17    22    24    1
    18    22    19    1
    19    22    23    1
    20    24    26    1
    21    20     3    1
    22     3     8    1
    23    19    14    1
    24    19    25    1
    25     5     6    2
    26     5     7    1
    27    14    11    1
    28    26    25    1
    29     8     7    1
    30     8    10    2
    31     7     9    1
    32    11    10    1
    33    11    13    2
    34    10    12    1
