@<TRIPOS>MOLECULE
3d5z_FUB_A_1.pdb
 10 10 0 0 0
SMALL
GASTEIGER

@<TRIPOS>ATOM
      1  O5'      -16.7790    4.0790    3.5990 O.3   402  FUB402     -0.2176
      2  C5'      -17.6440    4.0550    2.4570 C.3   402  FUB402      0.2142
      3  C4'      -17.1020    3.1200    1.3700 C.3   402  FUB402      0.1837
      4  O4'      -17.1220    1.7090    1.7050 O.3   402  FUB402     -0.3236
      5  C3'      -15.6610    3.4180    0.9530 C.3   402  FUB402      0.2169
      6  O3'      -15.5910    4.6070    0.1670 O.3   402  FUB402     -0.2175
      7  C2'      -15.3440    2.1640    0.2120 C.3   402  FUB402      0.2433
      8  O2'      -13.9320    1.9670   -0.0070 O.3   402  FUB402     -0.2148
      9  C1'      -15.9200    1.1250    1.1270 C.3   402  FUB402      0.3024
     10  O1'      -15.0830    0.7510    2.2290 O.3   402  FUB402     -0.1869
@<TRIPOS>BOND
     1     8     7    1
     2     6     5    1
     3     7     5    1
     4     7     9    1
     5     5     3    1
     6     9     4    1
     7     9    10    1
     8     3     4    1
     9     3     2    1
    10     2     1    1
