@<TRIPOS>MOLECULE
3d61_FUB_A_1.pdb
 10 10 0 0 0
SMALL
GASTEIGER

@<TRIPOS>ATOM
      1  O5'      -16.9030    3.8770    3.5490 O.3   402  FUB402     -0.2176
      2  C5'      -17.7890    3.8260    2.4060 C.3   402  FUB402      0.2142
      3  C4'      -17.2360    2.9070    1.3090 C.3   402  FUB402      0.1837
      4  O4'      -17.2490    1.4930    1.6480 O.3   402  FUB402     -0.3236
      5  C3'      -15.7960    3.2590    0.9140 C.3   402  FUB402      0.2169
      6  O3'      -15.7770    4.2730   -0.0960 O.3   402  FUB402     -0.2175
      7  C2'      -15.2580    1.9380    0.4580 C.3   402  FUB402      0.2433
      8  O2'      -13.8170    1.8540    0.5530 O.3   402  FUB402     -0.2148
      9  C1'      -15.9170    0.9780    1.3970 C.3   402  FUB402      0.3024
     10  O1'      -15.2810    0.8480    2.6760 O.3   402  FUB402     -0.1869
@<TRIPOS>BOND
     1     6     5    1
     2     7     8    1
     3     7     5    1
     4     7     9    1
     5     5     3    1
     6     3     4    1
     7     3     2    1
     8     9     4    1
     9     9    10    1
    10     2     1    1
