@<TRIPOS>MOLECULE
3d64_NAD_A_1.pdb
 44 48 0 0 0
SMALL
GASTEIGER

@<TRIPOS>ATOM
      1  PA        87.3010  -16.2070    2.1240 P.3   601  NAD601      0.2189
      2  O1A       88.1110  -16.6620    0.9800 O.2   601  NAD601     -0.5170
      3  O2A       86.1160  -15.4050    1.8220 O.3   601  NAD601     -0.4371
      4  O5B       88.3150  -15.4200    3.0780 O.3   601  NAD601     -0.3112
      5  C5B       89.5890  -15.9100    3.4020 C.3   601  NAD601      0.1813
      6  C4B       90.5250  -14.7250    3.4630 C.3   601  NAD601      0.1821
      7  O4B       91.7900  -15.1010    3.9270 O.3   601  NAD601     -0.3135
      8  C3B       90.7200  -14.1290    2.0770 C.3   601  NAD601      0.2184
      9  O3B       90.1920  -12.8180    2.0470 O.3   601  NAD601     -0.2174
     10  C2B       92.2270  -14.1900    1.8320 C.3   601  NAD601      0.2570
     11  O2B       92.7110  -13.0140    1.2100 O.3   601  NAD601     -0.2130
     12  C1B       92.7740  -14.3860    3.2300 C.3   601  NAD601      0.3186
     13  N9A       94.0480  -15.0960    3.2930 N.pl3 601  NAD601     -0.1439
     14  C8A       94.4710  -16.1980    2.5900 C.3   601  NAD601      0.3377
     15  N7A       95.7260  -16.4860    2.9910 N.2   601  NAD601     -0.2095
     16  C5A       96.1030  -15.6180    3.9380 C.2   601  NAD601      0.2526
     17  C6A       97.2620  -15.4890    4.6550 C.2   601  NAD601      0.4393
     18  N6A       98.3220  -16.2770    4.3860 N.pl3 601  NAD601      0.2180
     19  N1A       97.3450  -14.4550    5.5760 N.2   601  NAD601      0.0021
     20  C2A       96.2990  -13.5780    5.7520 C.3   601  NAD601      0.5254
     21  N3A       95.1360  -13.7100    5.0210 N.2   601  NAD601     -0.0055
     22  C4A       95.0590  -14.7200    4.1350 C.2   601  NAD601      0.3518
     23  O3        86.7910  -17.5130    2.9200 O.3   601  NAD601     -0.2703
     24  PN        85.7230  -17.5180    4.1250 P.3   601  NAD601      0.2189
     25  O1N       84.3900  -17.7540    3.6070 O.2   601  NAD601     -0.5170
     26  O2N       86.0710  -16.4060    5.0780 O.3   601  NAD601     -0.4371
     27  O5D       86.1920  -18.8730    4.8340 O.3   601  NAD601     -0.3112
     28  C5D       87.5060  -19.0150    5.3240 C.3   601  NAD601      0.1813
     29  C4D       87.6210  -20.4520    5.8080 C.3   601  NAD601      0.1799
     30  O4D       86.6950  -20.6770    6.8450 O.3   601  NAD601     -0.3327
     31  C3D       87.2710  -21.4730    4.7200 C.3   601  NAD601      0.2158
     32  O3D       88.1090  -22.6150    4.8170 O.3   601  NAD601     -0.2175
     33  C2D       85.8830  -21.9180    5.0370 C.3   601  NAD601      0.2309
     34  O2D       85.6780  -23.2270    4.5910 O.3   601  NAD601     -0.2158
     35  C1D       85.9220  -21.8310    6.5380 C.3   601  NAD601      0.2263
     36  N1N       84.5870  -21.8330    7.1800 N.pl3 601  NAD601     -0.2787
     37  C2N       84.5620  -22.2670    8.4590 C.3   601  NAD601      0.1244
     38  C3N       83.3910  -22.3240    9.1810 C.2   601  NAD601      0.0544
     39  C7N       83.4790  -22.7020   10.6310 C.2   601  NAD601      0.2818
     40  O7N       82.3780  -23.2710   11.2080 O.2   601  NAD601     -0.2670
     41  N7N       84.5700  -22.4920   11.3640 N.am  601  NAD601     -0.0839
     42  C4N       82.2120  -21.9160    8.5850 C.2   601  NAD601      0.0033
     43  C5N       82.2450  -21.4480    7.2700 C.2   601  NAD601      0.0157
     44  C6N       83.4480  -21.4060    6.5830 C.2   601  NAD601      0.0633
@<TRIPOS>BOND
     1     2     1    2
     2    11    10    1
     3     3     1    1
     4    10     8    1
     5    10    12    1
     6     9     8    1
     7     8     6    1
     8     1    23    1
     9     1     4    1
    10    14    15    1
    11    14    13    1
    12    23    24    1
    13    15    16    2
    14     4     5    1
    15    12    13    1
    16    12     7    1
    17    13    22    1
    18     5     6    1
    19     6     7    1
    20    25    24    2
    21    16    22    1
    22    16    17    1
    23    24    27    1
    24    24    26    1
    25    22    21    2
    26    18    17    1
    27    34    33    1
    28    17    19    2
    29    31    32    1
    30    31    33    1
    31    31    29    1
    32    27    28    1
    33    21    20    1
    34    33    35    1
    35    28    29    1
    36    19    20    1
    37    29    30    1
    38    35    30    1
    39    35    36    1
    40    44    36    1
    41    44    43    2
    42    36    37    1
    43    43    42    1
    44    37    38    1
    45    42    38    2
    46    38    39    1
    47    39    40    2
    48    39    41   am
