@<TRIPOS>MOLECULE
3d6c_THP_A_1.pdb
 25 26 0 0 0
SMALL
GASTEIGER

@<TRIPOS>ATOM
      1  P2         6.2580  -14.4030   -6.2110 P.3   151  THP151      0.5327
      2  O4P        6.6650  -13.0870   -6.8010 O.2   151  THP151     -0.2224
      3  O5P        7.4410  -15.2620   -5.8240 O.3   151  THP151     -0.1145
      4  O6P        5.1730  -14.2980   -5.1330 O.3   151  THP151     -0.1145
      5  P1         4.9200  -12.3450  -12.1450 P.3   151  THP151      0.5326
      6  O1P        3.5070  -11.8470  -12.2500 O.3   151  THP151     -0.1145
      7  O2P        5.6450  -12.3760  -13.4740 O.2   151  THP151     -0.2224
      8  O3P        5.7440  -11.8960  -10.9710 O.3   151  THP151     -0.1145
      9  O5'        5.5280  -15.2000   -7.4010 O.3   151  THP151     -0.2675
     10  C5'        4.5310  -14.6340   -8.2580 C.3   151  THP151      0.1857
     11  C4'        5.0680  -14.7850   -9.6930 C.3   151  THP151      0.1748
     12  O4'        5.3550  -16.1760   -9.8910 O.3   151  THP151     -0.3340
     13  C3'        4.0340  -14.4180  -10.7430 C.3   151  THP151      0.1600
     14  O3'        4.6810  -13.9260  -11.9340 O.3   151  THP151     -0.2700
     15  C2'        3.3700  -15.7250  -11.1020 C.3   151  THP151      0.0847
     16  C1'        4.5150  -16.7240  -10.8940 C.3   151  THP151      0.2089
     17  N1         3.9610  -18.0070  -10.4640 N.am  151  THP151     -0.1794
     18  C2         3.5610  -18.9200  -11.4630 C.1   151  THP151      0.2844
     19  O2         3.7340  -18.6220  -12.6670 O.2   151  THP151     -0.1918
     20  N3         3.0450  -20.1230  -11.1490 N.2   151  THP151     -0.2455
     21  C4         2.8570  -20.4500   -9.8500 C.1   151  THP151      0.2134
     22  O4         2.3550  -21.5630   -9.5830 O.2   151  THP151     -0.2088
     23  C5         3.2690  -19.5130   -8.7640 C.2   151  THP151      0.0891
     24  C5M        3.0920  -19.8550   -7.3140 C.3   151  THP151      0.0462
     25  C6         3.8140  -18.2900   -9.1350 C.2   151  THP151      0.0877
@<TRIPOS>BOND
     1     7     5    2
     2    19    18    2
     3     6     5    1
     4     5    14    1
     5     5     8    1
     6    14    13    1
     7    18    20    2
     8    18    17   am
     9    20    21    2
    10    15    16    1
    11    15    13    1
    12    16    17    1
    13    16    12    1
    14    13    11    1
    15    17    25    1
    16    12    11    1
    17    21    22    2
    18    21    23    1
    19    11    10    1
    20    25    23    2
    21    23    24    1
    22    10     9    1
    23     9     1    1
    24     2     1    2
    25     1     3    1
    26     1     4    1
