@<TRIPOS>MOLECULE
3d6d_LRG_A_1.pdb
 24 26 0 0 0
SMALL
GASTEIGER

@<TRIPOS>ATOM
      1  CAI       15.3920   66.7150    9.8570 C.ar    1  LRG1       -0.0041
      2  CAE       15.6200   67.9530    9.2670 C.ar    1  LRG1       -0.0003
      3  CAC       16.7460   68.1500    8.4760 C.ar    1  LRG1       -0.0000
      4  CAF       17.6430   67.1070    8.2750 C.ar    1  LRG1       -0.0003
      5  CAJ       17.4150   65.8690    8.8640 C.ar    1  LRG1       -0.0041
      6  CAT       16.2880   65.6720    9.6550 C.ar    1  LRG1       -0.0180
      7  CAQ       16.0430   64.3080   10.3050 C.3     1  LRG1        0.0818
      8  CAX       15.0810   63.4400    9.4880 C.3     1  LRG1        0.2719
      9  CAS       13.6390   63.9380    9.6190 C.2     1  LRG1        0.4044
     10  OAB       12.8370   63.2290   10.2640 O.co2   1  LRG1       -0.2416
     11  OAA       13.3320   65.0180    9.0680 O.co2   1  LRG1       -0.2416
     12  OAR       15.1020   62.0700    9.9210 O.3     1  LRG1       -0.4673
     13  CAU       15.7910   61.8920   11.0810 C.ar    1  LRG1        0.1392
     14  CAN       17.1400   61.5620   11.0360 C.ar    1  LRG1        0.0369
     15  CAP       17.8450   61.3580   12.2170 C.ar    1  LRG1        0.0031
     16  CAM       15.1460   62.0170   12.3070 C.ar    1  LRG1        0.0369
     17  CAO       15.8520   61.8110   13.4880 C.ar    1  LRG1        0.0031
     18  CAW       17.2020   61.4810   13.4440 C.ar    1  LRG1        0.0002
     19  CAV       17.9100   61.2670   14.6210 C.ar    1  LRG1        0.0000
     20  CAK       17.2710   61.3990   15.8490 C.ar    1  LRG1        0.0000
     21  CAG       17.9790   61.1950   17.0280 C.ar    1  LRG1        0.0000
     22  CAD       19.3280   60.8600   16.9820 C.ar    1  LRG1        0.0000
     23  CAH       19.9680   60.7270   15.7550 C.ar    1  LRG1        0.0000
     24  CAL       19.2590   60.9300   14.5770 C.ar    1  LRG1        0.0000
@<TRIPOS>BOND
     1     4     3   ar
     2     4     5   ar
     3     3     2   ar
     4     5     6   ar
     5    11     9   ar
     6     2     1   ar
     7     8     9    1
     8     8    12    1
     9     8     7    1
    10     9    10   ar
    11     6     1   ar
    12     6     7    1
    13    12    13    1
    14    14    13   ar
    15    14    15   ar
    16    13    16   ar
    17    15    18   ar
    18    16    17   ar
    19    18    17   ar
    20    18    19    1
    21    24    19   ar
    22    24    23   ar
    23    19    20   ar
    24    23    22   ar
    25    20    21   ar
    26    22    21   ar
