@<TRIPOS>MOLECULE
3d6f_III_C_1.pdb
 31 31 0 0 0
SMALL
GASTEIGER

@<TRIPOS>ATOM
      1  C1         0.3850   35.2290   90.7540 C.2     1  PHQ1        0.4218
      2  O1         0.0270   34.8240   91.8530 O.2     1  PHQ1       -0.2245
      3  O2         0.7560   36.6260   90.5780 O.3     1  PHQ1       -0.4285
      4  C2         1.0640   37.4610   91.6960 C.3     1  PHQ1        0.2368
      5  C3         2.5260   37.8990   91.6800 C.ar    1  PHQ1        0.0213
      6  C4         2.9590   38.8580   92.6000 C.ar    1  PHQ1       -0.0007
      7  C5         4.2560   39.3700   92.5190 C.ar    1  PHQ1       -0.0002
      8  C6         5.1670   38.8190   91.6140 C.ar    1  PHQ1       -0.0000
      9  C7         4.7550   37.8130   90.7370 C.ar    1  PHQ1       -0.0002
     10  C8         3.4340   37.3620   90.7610 C.ar    1  PHQ1       -0.0007
     11  N          0.4660   34.4550   89.6740 N.am    2  VAL2       -0.1611
     12  CA        -0.2320   33.1890   89.5230 C.3     2  VAL2        0.1760
     13  C          0.6870   32.1640   88.9080 C.2     2  VAL2        0.2617
     14  O          1.5950   32.5250   88.1700 O.2     2  VAL2       -0.2715
     15  CB        -1.5310   33.4430   88.7420 C.3     2  VAL2        0.0291
     16  CG1       -1.7030   32.6160   87.4700 C.3     2  VAL2        0.0023
     17  CG2       -2.7450   33.2740   89.6520 C.3     2  VAL2        0.0023
     18  N          0.4650   30.8860   89.2270 N.am    3  ALA3       -0.1963
     19  CA         1.2560   29.7940   88.6830 C.3     3  ALA3        0.1728
     20  C          0.8970   29.4980   87.2550 C.2     3  ALA3        0.2613
     21  O         -0.2640   29.5760   86.8800 O.2     3  ALA3       -0.2715
     22  CB         1.0860   28.5390   89.5330 C.3     3  ALA3        0.0334
     23  N          1.9120   29.1520   86.4590 N.am    4  ASP4       -0.2026
     24  CA         1.7430   28.7540   85.0670 C.3     4  ASP4        0.1368
     25  C          1.5790   27.2350   84.8800 C.3     4  ASP4        0.1724
     26  O          2.4100   26.7510   83.8310 O.3     4  ASP4       -0.2213
     27  CB         2.8900   29.3340   84.2370 C.3     4  ASP4        0.1382
     28  CG         2.3950   30.4440   83.3340 C.2     4  ASP4        0.3667
     29  OD1        1.1660   30.5710   83.1330 O.co2   4  ASP4       -0.2456
     30  OD2        3.2420   31.2010   82.8130 O.co2   4  ASP4       -0.2456
     31  C1         1.8660   26.4090   86.1320 C.3     5  CF05        0.0374
@<TRIPOS>BOND
     1    30    28   ar
     2    29    28   ar
     3    28    27    1
     4    26    25    1
     5    27    24    1
     6    25    24    1
     7    25    31    1
     8    24    23    1
     9    23    20   am
    10    21    20    2
    11    20    19    1
    12    16    15    1
    13    14    13    2
    14    19    18    1
    15    19    22    1
    16    15    12    1
    17    15    17    1
    18    13    18   am
    19    13    12    1
    20    12    11    1
    21    11     1   am
    22     3     1    1
    23     3     4    1
    24     9    10   ar
    25     9     8   ar
    26     1     2    2
    27    10     5   ar
    28     8     7   ar
    29     5     4    1
    30     5     6   ar
    31     7     6   ar
