@<TRIPOS>MOLECULE
3d6g_MAN_B_1.pdb
 11 11 0 0 0
SMALL
GASTEIGER

@<TRIPOS>ATOM
      1  C1        24.9910   47.4200   84.7450 C.3     6  MAN6        0.1777
      2  C2        24.9610   48.8590   84.2410 C.3     6  MAN6        0.2141
      3  C3        26.3140   49.2630   83.6130 C.3     6  MAN6        0.2173
      4  C4        27.4550   49.0890   84.6240 C.3     6  MAN6        0.2142
      5  C5        27.4930   47.6350   85.1240 C.3     6  MAN6        0.1810
      6  C6        28.4230   47.4420   86.3230 C.3     6  MAN6        0.2141
      7  O2        24.6780   49.6970   85.3550 O.3     6  MAN6       -0.2176
      8  O3        26.2730   50.6270   83.1960 O.3     6  MAN6       -0.2175
      9  O4        28.6880   49.4570   84.0190 O.3     6  MAN6       -0.2176
     10  O5        26.1750   47.2370   85.6080 O.3     6  MAN6       -0.3481
     11  O6        28.4790   46.0440   86.6190 O.3     6  MAN6       -0.2176
@<TRIPOS>BOND
     1     8     3    1
     2     3     2    1
     3     3     4    1
     4     9     4    1
     5     2     1    1
     6     2     7    1
     7     4     5    1
     8     1    10    1
     9     5    10    1
    10     5     6    1
    11     6    11    1
