@<TRIPOS>MOLECULE
3d6g_BMA_A_1.pdb
 11 11 0 0 0
SMALL
GASTEIGER

@<TRIPOS>ATOM
      1  C1        29.4870   31.2890   80.9780 C.3     3  BMA3        0.1777
      2  C2        29.4110   32.7850   81.2440 C.3     3  BMA3        0.2141
      3  C3        30.3890   33.1480   82.3960 C.3     3  BMA3        0.2173
      4  C4        30.1080   32.3160   83.6300 C.3     3  BMA3        0.2142
      5  C5        29.9510   30.8330   83.2710 C.3     3  BMA3        0.1810
      6  C6        29.4580   30.0380   84.5040 C.3     3  BMA3        0.2141
      7  O2        28.0560   33.1830   81.5530 O.3     3  BMA3       -0.2176
      8  O3        30.1830   34.4750   82.8340 O.3     3  BMA3       -0.2175
      9  O4        31.2170   32.4600   84.4950 O.3     3  BMA3       -0.2176
     10  O5        29.0220   30.6140   82.1470 O.3     3  BMA3       -0.3481
     11  O6        29.8030   28.6850   84.0530 O.3     3  BMA3       -0.2176
@<TRIPOS>BOND
     1     1     2    1
     2     1    10    1
     3     2     7    1
     4     2     3    1
     5    10     5    1
     6     3     8    1
     7     3     4    1
     8     5     4    1
     9     5     6    1
    10     4     9    1
    11    11     6    1
