@<TRIPOS>MOLECULE
3d6h_III_C_1.pdb
 31 31 0 0 0
SMALL
GASTEIGER

@<TRIPOS>ATOM
      1  C1        26.6170    5.4890   50.3520 C.2     1  PHQ1        0.4218
      2  O1        27.1760    5.1960   51.4000 O.2     1  PHQ1       -0.2245
      3  O2        25.1990    5.8160   50.3430 O.3     1  PHQ1       -0.4285
      4  C2        24.5240    6.2980   51.5090 C.3     1  PHQ1        0.2368
      5  C3        24.0690    7.7460   51.3140 C.ar    1  PHQ1        0.0213
      6  C4        23.3090    8.3680   52.3090 C.ar    1  PHQ1       -0.0007
      7  C5        22.9760    9.7240   52.1970 C.ar    1  PHQ1       -0.0002
      8  C6        23.4300   10.4680   51.1020 C.ar    1  PHQ1       -0.0000
      9  C7        24.1580    9.8370   50.0880 C.ar    1  PHQ1       -0.0002
     10  C8        24.4130    8.4620   50.1610 C.ar    1  PHQ1       -0.0007
     11  N         27.2340    5.5180   49.1780 N.am    2  VAL2       -0.1611
     12  CA        28.4170    4.7270   48.8760 C.3     2  VAL2        0.1760
     13  C         29.3170    5.5380   47.9750 C.2     2  VAL2        0.2617
     14  O         28.8230    6.3140   47.1780 O.2     2  VAL2       -0.2715
     15  CB        27.9780    3.3660   48.3090 C.3     2  VAL2        0.0291
     16  CG1       28.7570    2.8880   47.0860 C.3     2  VAL2        0.0023
     17  CG2       28.0020    2.2940   49.3940 C.3     2  VAL2        0.0023
     18  N         30.6380    5.3940   48.1030 N.am    3  ALA3       -0.1963
     19  CA        31.5640    6.1680   47.2950 C.3     3  ALA3        0.1728
     20  C         31.6860    5.5720   45.9270 C.2     3  ALA3        0.2613
     21  O         31.6490    4.3630   45.8020 O.2     3  ALA3       -0.2715
     22  CB        32.9280    6.2040   47.9720 C.3     3  ALA3        0.0334
     23  N         31.8330    6.4180   44.9070 N.am    4  ASP4       -0.2026
     24  CA        32.0470    5.9880   43.5240 C.3     4  ASP4        0.1368
     25  C         33.5310    5.7460   43.1670 C.3     4  ASP4        0.1724
     26  O         33.9130    6.4320   41.9730 O.3     4  ASP4       -0.2213
     27  CB        31.3750    7.0070   42.5960 C.3     4  ASP4        0.1382
     28  CG        30.1710    6.4290   41.8870 C.2     4  ASP4        0.3667
     29  OD1       29.9110    5.2030   41.9970 O.co2   4  ASP4       -0.2456
     30  OD2       29.4940    7.2000   41.1660 O.co2   4  ASP4       -0.2456
     31  C1        34.5390    6.0960   44.2580 C.3     5  CF05        0.0374
@<TRIPOS>BOND
     1    30    28   ar
     2    28    29   ar
     3    28    27    1
     4    26    25    1
     5    27    24    1
     6    25    24    1
     7    25    31    1
     8    24    23    1
     9    23    20   am
    10    21    20    2
    11    20    19    1
    12    16    15    1
    13    14    13    2
    14    19    22    1
    15    19    18    1
    16    13    18   am
    17    13    12    1
    18    15    12    1
    19    15    17    1
    20    12    11    1
    21    11     1   am
    22     9    10   ar
    23     9     8   ar
    24    10     5   ar
    25     3     1    1
    26     3     4    1
    27     1     2    2
    28     8     7   ar
    29     5     4    1
    30     5     6   ar
    31     7     6   ar
