@<TRIPOS>MOLECULE
3d6m_III_C_1.pdb
 31 31 0 0 0
SMALL
GASTEIGER

@<TRIPOS>ATOM
      1  C1        66.5210   31.3170   50.4410 C.2     1  PHQ1        0.4218
      2  O1        66.1370   31.5600   51.5760 O.2     1  PHQ1       -0.2245
      3  O2        67.9250   31.0340   50.1770 O.3     1  PHQ1       -0.4285
      4  C2        68.8620   30.7680   51.2250 C.3     1  PHQ1        0.2368
      5  C3        69.1910   29.2780   51.2800 C.ar    1  PHQ1        0.0213
      6  C4        70.0500   28.7990   52.2760 C.ar    1  PHQ1       -0.0007
      7  C5        70.4310   27.4480   52.2760 C.ar    1  PHQ1       -0.0002
      8  C6        69.7320   26.5320   51.4640 C.ar    1  PHQ1       -0.0000
      9  C7        68.8650   27.0110   50.4710 C.ar    1  PHQ1       -0.0002
     10  C8        68.6350   28.3840   50.3550 C.ar    1  PHQ1       -0.0007
     11  N         65.7200   31.2850   49.3830 N.am    2  VAL2       -0.1611
     12  CA        64.4340   31.9480   49.2810 C.3     2  VAL2        0.1760
     13  C         63.4220   30.9660   48.7390 C.2     2  VAL2        0.2617
     14  O         63.7990   30.0630   48.0030 O.2     2  VAL2       -0.2715
     15  CB        64.6700   33.1970   48.4200 C.3     2  VAL2        0.0291
     16  CG1       63.6300   33.4580   47.3330 C.3     2  VAL2        0.0023
     17  CG2       64.8550   34.4240   49.3090 C.3     2  VAL2        0.0023
     18  N         62.1440   31.1000   49.1110 N.am    3  ALA3       -0.1963
     19  CA        61.0890   30.2860   48.5150 C.3     3  ALA3        0.1728
     20  C         60.7890   30.6870   47.0960 C.2     3  ALA3        0.2613
     21  O         60.7390   31.8670   46.7820 O.2     3  ALA3       -0.2715
     22  CB        59.8100   30.3460   49.3480 C.3     3  ALA3        0.0334
     23  N         60.5750   29.6930   46.2250 N.am    4  ASP4       -0.2026
     24  CA        60.0930   29.9220   44.8640 C.3     4  ASP4        0.1368
     25  C         58.5880   30.2790   44.8080 C.3     4  ASP4        0.1724
     26  O         57.9400   29.6460   43.7160 O.3     4  ASP4       -0.2213
     27  CB        60.5070   28.7750   43.9310 C.3     4  ASP4        0.1382
     28  CG        61.5870   29.2350   42.9710 C.2     4  ASP4        0.3667
     29  OD1       61.7040   30.4550   42.7270 O.co2   4  ASP4       -0.2456
     30  OD2       62.3290   28.3800   42.4390 O.co2   4  ASP4       -0.2456
     31  C1        57.7890   29.9460   46.0680 C.3     5  CF05        0.0374
@<TRIPOS>BOND
     1    30    28   ar
     2    29    28   ar
     3    28    27    1
     4    26    25    1
     5    27    24    1
     6    25    24    1
     7    25    31    1
     8    24    23    1
     9    23    20   am
    10    21    20    2
    11    20    19    1
    12    16    15    1
    13    14    13    2
    14    15    12    1
    15    15    17    1
    16    19    18    1
    17    19    22    1
    18    13    18   am
    19    13    12    1
    20    12    11    1
    21    11     1   am
    22     3     1    1
    23     3     4    1
    24    10     9   ar
    25    10     5   ar
    26     1     2    2
    27     9     8   ar
    28     4     5    1
    29     5     6   ar
    30     8     7   ar
    31     7     6   ar
