@<TRIPOS>MOLECULE
3d6n_FLC_A_1.pdb
 13 12 0 0 0
SMALL
GASTEIGER

@<TRIPOS>ATOM
      1  CAC       29.3770   18.9800  103.2320 C.2   424  FLC424      0.3680
      2  CA        30.2100   17.7160  103.5830 C.3   424  FLC424      0.1560
      3  CB        29.4470   16.6550  104.4600 C.3   424  FLC424      0.2402
      4  CBC       30.0150   15.2060  104.2110 C.2   424  FLC424      0.3927
      5  CG        29.4990   16.9410  105.9840 C.3   424  FLC424      0.1560
      6  CGC       29.6320   18.4480  106.2930 C.2   424  FLC424      0.3680
      7  OA1       29.1040   19.7620  104.1600 O.co2 424  FLC424     -0.2455
      8  OA2       29.0280   19.1630  102.0500 O.co2 424  FLC424     -0.2455
      9  OB1       30.0240   14.8050  103.0320 O.co2 424  FLC424     -0.2429
     10  OB2       30.4210   14.5340  105.1870 O.co2 424  FLC424     -0.2429
     11  OG1       30.7770   18.9440  106.1900 O.co2 424  FLC424     -0.2455
     12  OG2       28.5920   19.0900  106.6280 O.co2 424  FLC424     -0.2455
     13  OHB       28.0580   16.6670  104.0840 O.3   424  FLC424     -0.2129
@<TRIPOS>BOND
     1     8     1   ar
     2     9     4   ar
     3     1     2    1
     4     1     7   ar
     5     2     3    1
     6    13     3    1
     7     4     3    1
     8     4    10   ar
     9     3     5    1
    10     5     6    1
    11    11     6   ar
    12     6    12   ar
