@<TRIPOS>MOLECULE
3d6o_U1S_A_1.pdb
 22 24 0 0 0
SMALL
GASTEIGER

@<TRIPOS>ATOM
      1  C4        34.9830   -4.6780   12.4760 C.1   125  U1S125      0.2182
      2  C5        36.1580   -4.5630   13.2130 C.2   125  U1S125      0.1242
      3  C6        36.9630   -3.4330   13.0620 C.2   125  U1S125      0.0929
      4  N1        36.6020   -2.3900   12.1720 N.am  125  U1S125     -0.1766
      5  N3        34.6140   -3.6620   11.5760 N.2   125  U1S125     -0.2452
      6  CAV       43.6670   -1.7280   15.6860 C.3   125  U1S125      0.0029
      7  CAK       43.0740   -0.3290   15.4650 C.3   125  U1S125      0.0174
      8  CAM       42.3070   -0.2320   14.1260 C.3   125  U1S125      0.0722
      9  CAJ       43.1190   -2.7260   14.6560 C.3   125  U1S125      0.0174
     10  CAL       41.5970   -2.5850   14.4910 C.3   125  U1S125      0.0722
     11  NBA       41.2220   -1.2390   14.0040 N.3   125  U1S125     -0.2706
     12  C5'       40.0440   -0.7590   14.7480 C.3   125  U1S125      0.1048
     13  C4'       38.7520   -0.8450   13.9020 C.3   125  U1S125      0.1660
     14  O4'       38.8130   -1.4260   12.5540 O.3   125  U1S125     -0.3331
     15  C3'       38.2010    0.5180   13.5660 C.3   125  U1S125      0.2147
     16  O3'       37.7400    1.2280   14.7060 O.3   125  U1S125     -0.2176
     17  C2'       37.0080    0.1200   12.7250 C.3   125  U1S125      0.2319
     18  O2'       36.8670    1.1950   11.8120 O.3   125  U1S125     -0.2157
     19  C1'       37.4830   -1.1760   12.0090 C.3   125  U1S125      0.2400
     20  O4        34.2750   -5.6740   12.6040 O.2   125  U1S125     -0.2085
     21  C2        35.4160   -2.5160   11.4240 C.1   125  U1S125      0.2845
     22  O2        35.0660   -1.6390   10.6350 O.2   125  U1S125     -0.1918
@<TRIPOS>BOND
     1    22    21    2
     2    21     5    2
     3    21     4   am
     4     5     1    2
     5    18    17    1
     6    19     4    1
     7    19    14    1
     8    19    17    1
     9     4     3    1
    10     1    20    2
    11     1     2    1
    12    14    13    1
    13    17    15    1
    14     3     2    2
    15    15    13    1
    16    15    16    1
    17    13    12    1
    18    11     8    1
    19    11    10    1
    20    11    12    1
    21     8     7    1
    22    10     9    1
    23     9     6    1
    24     7     6    1
