@<TRIPOS>MOLECULE
3d6p_U2S_A_1.pdb
 22 24 0 0 0
SMALL
GASTEIGER

@<TRIPOS>ATOM
      1  C4        34.9410   -4.6300   12.3850 C.1   125  U2S125      0.2182
      2  C5        36.1190   -4.5230   13.1230 C.2   125  U2S125      0.1242
      3  C6        36.9100   -3.3820   12.9620 C.2   125  U2S125      0.0929
      4  N1        36.5330   -2.3310   12.0820 N.am  125  U2S125     -0.1766
      5  N3        34.5900   -3.6110   11.4940 N.2   125  U2S125     -0.2452
      6  OAM       43.6700   -1.8000   14.8010 O.3   125  U2S125     -0.3508
      7  CAK       42.7800   -2.8880   15.1260 C.3   125  U2S125      0.1595
      8  CAM       41.3900   -2.3100   15.4410 C.3   125  U2S125      0.1047
      9  CAJ       43.2450   -1.1110   13.6040 C.3   125  U2S125      0.1595
     10  CAL       41.9000   -0.4480   13.9180 C.3   125  U2S125      0.1047
     11  NBA       40.9170   -1.4680   14.3280 N.3   125  U2S125     -0.2663
     12  C5'       39.7520   -0.7290   14.8120 C.3   125  U2S125      0.1049
     13  C4'       38.5570   -0.8350   13.8490 C.3   125  U2S125      0.1660
     14  O4'       38.7090   -1.3550   12.4770 O.3   125  U2S125     -0.3331
     15  C3'       38.0160    0.5360   13.5340 C.3   125  U2S125      0.2147
     16  O3'       37.5120    1.2540   14.6550 O.3   125  U2S125     -0.2176
     17  C2'       36.8650    0.1550   12.6340 C.3   125  U2S125      0.2319
     18  O2'       36.7880    1.2580   11.7530 O.3   125  U2S125     -0.2157
     19  C1'       37.3900   -1.1080   11.9060 C.3   125  U2S125      0.2400
     20  O4        34.2210   -5.6210   12.4750 O.2   125  U2S125     -0.2085
     21  C2        35.3630   -2.4620   11.3340 C.1   125  U2S125      0.2845
     22  O2        34.9780   -1.5790   10.5680 O.2   125  U2S125     -0.1918
@<TRIPOS>BOND
     1    22    21    2
     2    21     5    2
     3    21     4   am
     4     5     1    2
     5    18    17    1
     6    19     4    1
     7    19    14    1
     8    19    17    1
     9     4     3    1
    10     1    20    2
    11     1     2    1
    12    14    13    1
    13    17    15    1
    14     3     2    2
    15    15    13    1
    16    15    16    1
    17     9    10    1
    18     9     6    1
    19    13    12    1
    20    10    11    1
    21    11    12    1
    22    11     8    1
    23     6     7    1
    24     7     8    1
