@<TRIPOS>MOLECULE
3d6q_U3S_A_1.pdb
 22 24 0 0 0
SMALL
GASTEIGER

@<TRIPOS>ATOM
      1  C4        34.8340   -4.5860   12.4600 C.1   127  U3S127      0.2182
      2  C5        36.0120   -4.5010   13.1970 C.2   127  U3S127      0.1242
      3  C6        36.8260   -3.3760   13.0620 C.2   127  U3S127      0.0929
      4  N1        36.4610   -2.3090   12.2020 N.am  127  U3S127     -0.1766
      5  N3        34.4690   -3.5520   11.5980 N.2   127  U3S127     -0.2452
      6  CAV       43.4960   -2.5520   14.1130 C.3   127  U3S127      0.0029
      7  CAK       42.2910   -3.5030   14.1750 C.3   127  U3S127      0.0174
      8  CAM       40.9410   -2.7630   14.0450 C.3   127  U3S127      0.0722
      9  CAJ       43.4070   -1.4530   15.1850 C.3   127  U3S127      0.0174
     10  CAL       41.9510   -1.1790   15.5870 C.3   127  U3S127      0.0722
     11  NBA       41.0360   -1.3370   14.4350 N.3   127  U3S127     -0.2706
     12  C5'       39.7650   -0.7660   14.9250 C.3   127  U3S127      0.1048
     13  C4'       38.5330   -0.8320   13.9700 C.3   127  U3S127      0.1660
     14  O4'       38.6600   -1.3680   12.6150 O.3   127  U3S127     -0.3331
     15  C3'       38.0070    0.5470   13.6410 C.3   127  U3S127      0.2147
     16  O3'       37.4740    1.2430   14.7580 O.3   127  U3S127     -0.2176
     17  C2'       36.8730    0.2110   12.7040 C.3   127  U3S127      0.2319
     18  O2'       36.8750    1.2950   11.7730 O.3   127  U3S127     -0.2157
     19  C1'       37.3430   -1.1040   12.0380 C.3   127  U3S127      0.2400
     20  O4        34.1020   -5.5690   12.5560 O.2   127  U3S127     -0.2085
     21  C2        35.2700   -2.4080   11.4660 C.1   127  U3S127      0.2845
     22  O2        34.9100   -1.5120   10.7080 O.2   127  U3S127     -0.1918
@<TRIPOS>BOND
     1    22    21    2
     2    21     5    2
     3    21     4   am
     4     5     1    2
     5    18    17    1
     6    19     4    1
     7    19    14    1
     8    19    17    1
     9     4     3    1
    10     1    20    2
    11     1     2    1
    12    14    13    1
    13    17    15    1
    14     3     2    2
    15    15    13    1
    16    15    16    1
    17    13    12    1
    18     8     7    1
    19     8    11    1
    20     6     7    1
    21     6     9    1
    22    11    12    1
    23    11    10    1
    24     9    10    1
