@<TRIPOS>MOLECULE
3d6t_GDP_B_1.pdb
 28 30 0 0 0
SMALL
GASTEIGER

@<TRIPOS>ATOM
      1  PB        12.0070  -18.0640   18.3850 P.3     1  GDP1        0.5373
      2  O1B       12.0070  -17.8730   19.8570 O.3     1  GDP1       -0.1143
      3  O2B       13.4730  -18.3260   18.0700 O.3     1  GDP1       -0.1143
      4  O3B       11.4760  -16.7920   17.8300 O.2     1  GDP1       -0.2221
      5  O3A       11.0770  -19.2850   17.8980 O.3     1  GDP1       -0.2261
      6  PA        11.4130  -20.7460   17.4180 P.3     1  GDP1        0.2231
      7  O1A       11.7090  -21.0750   15.9860 O.2     1  GDP1       -0.5169
      8  O2A       12.4560  -21.2830   18.3120 O.3     1  GDP1       -0.4370
      9  O5'       10.1300  -21.4990   17.8820 O.3     1  GDP1       -0.3111
     10  C5'        8.8040  -21.3310   17.5360 C.3     1  GDP1        0.1813
     11  C4'        8.1240  -22.7190   17.6210 C.3     1  GDP1        0.1799
     12  O4'        7.0750  -22.6390   16.6560 O.3     1  GDP1       -0.3326
     13  C3'        8.9780  -23.9200   17.2010 C.3     1  GDP1        0.2158
     14  O3'        8.5900  -25.1550   17.8220 O.3     1  GDP1       -0.2175
     15  C2'        8.7080  -24.1630   15.7350 C.3     1  GDP1        0.2310
     16  O2'        8.7390  -25.5730   15.3720 O.3     1  GDP1       -0.2158
     17  C1'        7.3270  -23.5520   15.5960 C.3     1  GDP1        0.2293
     18  N9         7.2580  -22.6840   14.4490 N.pl3   1  GDP1       -0.2354
     19  C8         8.0340  -21.6390   14.1240 C.3     1  GDP1        0.2246
     20  N7         7.6250  -21.1120   12.9710 N.2     1  GDP1       -0.2322
     21  C5         6.5810  -21.8480   12.5520 C.2     1  GDP1        0.2182
     22  C6         5.6450  -21.8600   11.4250 C.1     1  GDP1        0.2372
     23  O6         5.7510  -20.9820   10.5190 O.2     1  GDP1       -0.2069
     24  N1         4.6790  -22.8280   11.4180 N.2     1  GDP1       -0.2485
     25  C2         4.4930  -23.7720   12.3570 C.1     1  GDP1        0.2531
     26  N2         3.4910  -24.6660   12.2470 N.pl3   1  GDP1       -0.0226
     27  N3         5.3410  -23.8150   13.3960 N.2     1  GDP1       -0.3074
     28  C4         6.3440  -22.9000   13.5330 C.2     1  GDP1        0.2300
@<TRIPOS>BOND
     1    23    22    2
     2    24    22    2
     3    24    25    2
     4    22    21    1
     5    26    25    1
     6    25    27    2
     7    21    20    2
     8    21    28    1
     9    20    19    1
    10    27    28    2
    11    28    18    1
    12    19    18    1
    13    18    17    1
    14    16    15    1
    15    17    15    1
    16    17    12    1
    17    15    13    1
    18     7     6    2
    19    12    11    1
    20    13    11    1
    21    13    14    1
    22     6     9    1
    23     6     5    1
    24     6     8    1
    25    10    11    1
    26    10     9    1
    27     4     1    2
    28     5     1    1
    29     3     1    1
    30     1     2    1
