@<TRIPOS>MOLECULE
3d6u_T11_A_1.pdb
 19 20 0 0 0
SMALL
GASTEIGER

@<TRIPOS>ATOM
      1  F17       -4.6680  -22.8220  -24.4210 F     315  T11315     -0.1668
      2  C14       -5.7000  -23.1460  -23.6650 C.3   315  T11315      0.4309
      3  F15       -5.5110  -24.3660  -23.2820 F     315  T11315     -0.1668
      4  F16       -5.7120  -22.4390  -22.5600 F     315  T11315     -0.1668
      5  C13       -7.0550  -23.1460  -24.3670 C.3   315  T11315      0.2573
      6  N19       -7.0900  -23.3040  -25.8070 N.3   315  T11315     -0.1015
      7  N18       -7.2970  -22.1460  -25.3830 N.3   315  T11315     -0.1015
      8  C1        -8.2600  -23.0940  -23.4870 C.ar  315  T11315      0.0180
      9  C6        -9.1200  -21.9960  -23.4810 C.ar  315  T11315     -0.0016
     10  C5       -10.2110  -22.0180  -22.5980 C.ar  315  T11315     -0.0044
     11  C4       -10.4270  -23.1280  -21.7890 C.ar  315  T11315     -0.0202
     12  C3        -9.5640  -24.2280  -21.8240 C.ar  315  T11315     -0.0044
     13  C2        -8.4930  -24.2020  -22.6860 C.ar  315  T11315     -0.0016
     14  C7       -11.6200  -23.1610  -20.8540 C.3   315  T11315      0.0569
     15  CA       -12.2910  -24.5090  -20.8560 C.3   315  T11315      0.1986
     16  N        -12.9840  -24.8290  -22.1110 N.3   315  T11315     -0.1205
     17  C        -13.3150  -24.4550  -19.7610 C.2   315  T11315      0.3822
     18  O        -14.3320  -25.2250  -19.8730 O.co2 315  T11315     -0.2440
     19  OXT      -13.1250  -23.6310  -18.8350 O.co2 315  T11315     -0.2440
@<TRIPOS>BOND
     1     6     7    1
     2     6     5    1
     3     7     5    1
     4     1     2    1
     5     5     2    1
     6     5     8    1
     7     2     3    1
     8     2     4    1
     9     8     9   ar
    10     8    13   ar
    11     9    10   ar
    12    13    12   ar
    13    10    11   ar
    14    16    15    1
    15    12    11   ar
    16    11    14    1
    17    15    14    1
    18    15    17    1
    19    18    17   ar
    20    17    19   ar
