@<TRIPOS>MOLECULE
3d6v_TFQ_A_1.pdb
 17 17 0 0 0
SMALL
GASTEIGER

@<TRIPOS>ATOM
      1  F16       -5.7420   22.2760    5.5810 F     400  TFQ400     -0.1697
      2  C14       -5.6090   23.3910    6.2400 C.3   400  TFQ400      0.4017
      3  F17       -4.4610   23.2940    6.8880 F     400  TFQ400     -0.1697
      4  F15       -5.4680   24.4020    5.3760 F     400  TFQ400     -0.1697
      5  C13       -6.8750   23.5100    7.1420 C.3   400  TFQ400      0.1297
      6  C1        -8.0410   23.3670    6.1880 C.ar  400  TFQ400     -0.0138
      7  C6        -8.9240   22.2960    6.2270 C.ar  400  TFQ400     -0.0043
      8  C5       -10.0070   22.2380    5.2890 C.ar  400  TFQ400     -0.0045
      9  C2        -8.2950   24.3620    5.2210 C.ar  400  TFQ400     -0.0043
     10  C3        -9.3760   24.2950    4.3110 C.ar  400  TFQ400     -0.0045
     11  C4       -10.2760   23.2310    4.3480 C.ar  400  TFQ400     -0.0202
     12  C7       -11.4580   23.1570    3.3290 C.3   400  TFQ400      0.0569
     13  C8       -12.2110   24.4890    3.1320 C.3   400  TFQ400      0.1986
     14  N9       -13.1060   24.9450    4.2430 N.3   400  TFQ400     -0.1205
     15  C10      -13.1480   24.3790    1.9850 C.2   400  TFQ400      0.3822
     16  O12      -12.8750   23.5890    1.0620 O.co2 400  TFQ400     -0.2440
     17  O11      -14.1960   25.0910    2.0570 O.co2 400  TFQ400     -0.2440
@<TRIPOS>BOND
     1    16    15   ar
     2    15    17   ar
     3    15    13    1
     4    13    12    1
     5    13    14    1
     6    12    11    1
     7    10    11   ar
     8    10     9   ar
     9    11     8   ar
    10     9     6   ar
    11     8     7   ar
    12     4     2    1
    13     1     2    1
    14     6     7   ar
    15     6     5    1
    16     2     3    1
    17     2     5    1
