@<TRIPOS>MOLECULE
3d6y_BER_A_1.pdb
 25 29 0 0 0
SMALL
GASTEIGER

@<TRIPOS>ATOM
      1  C1        58.2700   24.3480   68.0980 C.3   964  BER964      0.1177
      2  C2        58.2600   25.0430   69.4320 C.ar  964  BER964     -0.0009
      3  N1        59.2680   24.8090   67.1040 N.pl3 964  BER964     -0.3004
      4  C3        57.3610   23.2610   67.7800 C.2   964  BER964     -0.0021
      5  C4        59.5080   25.8200   69.8150 C.ar  964  BER964     -0.0194
      6  C5        57.1040   24.9890   70.3270 C.ar  964  BER964      0.0375
      7  C6        59.3320   24.2000   65.8010 C.2   964  BER964      0.0649
      8  C7        60.2600   25.9410   67.4670 C.3   964  BER964      0.0960
      9  C8        57.4460   22.6560   66.4900 C.ar  964  BER964      0.0020
     10  C9        59.5460   26.5050   71.0970 C.ar  964  BER964      0.0357
     11  C10       60.7210   25.8860   68.8320 C.3   964  BER964      0.0476
     12  C11       57.1590   25.6780   71.5900 C.ar  964  BER964      0.1762
     13  C12       58.4280   23.1160   65.4660 C.ar  964  BER964      0.0513
     14  C13       56.4670   21.4560   66.1370 C.ar  964  BER964      0.0031
     15  C14       58.3730   26.4380   71.9940 C.ar  964  BER964      0.1761
     16  O1        56.2360   25.7910   72.5920 O.3   964  BER964     -0.4346
     17  C15       58.4840   22.4780   64.1310 C.ar  964  BER964      0.1735
     18  C16       56.5680   20.8600   64.8380 C.ar  964  BER964      0.0400
     19  O2        58.1380   26.9890   73.2550 O.3   964  BER964     -0.4346
     20  C17       56.6980   26.9140   73.4300 C.3   964  BER964      0.4294
     21  C18       57.5340   21.3170   63.8110 C.ar  964  BER964      0.1724
     22  O3        59.4610   23.0270   63.2240 O.3   964  BER964     -0.4683
     23  O4        57.5640   20.6560   62.5250 O.3   964  BER964     -0.4684
     24  C19       59.7090   22.5970   61.8630 C.3   964  BER964      0.2526
     25  C20       56.6870   19.5380   62.1540 C.3   964  BER964      0.2526
@<TRIPOS>BOND
     1    24    22    1
     2    25    23    1
     3    23    21    1
     4    22    17    1
     5    21    17   ar
     6    21    18   ar
     7    17    13   ar
     8    18    14   ar
     9    13     7    2
    10    13     9   ar
    11     7     3    1
    12    14     9   ar
    13     9     4    2
    14     3     8    1
    15     3     1    1
    16     8    11    1
    17     4     1    1
    18     1     2    1
    19    11     5    1
    20     2     5   ar
    21     2     6   ar
    22     5    10   ar
    23     6    12   ar
    24    10    15   ar
    25    12    15   ar
    26    12    16    1
    27    15    19    1
    28    16    20    1
    29    19    20    1
