@<TRIPOS>MOLECULE
3d6z_RHQ_A_1.pdb
 33 36 0 0 0
SMALL
GASTEIGER

@<TRIPOS>ATOM
      1  C1        59.1030   24.9440   68.1320 C.ar  300  RHQ300      0.1464
      2  C2        57.6810   24.5340   67.7010 C.ar  300  RHQ300      0.0341
      3  C3        56.6210   24.5820   68.6560 C.ar  300  RHQ300      0.0000
      4  C4        56.8940   25.0500   70.0980 C.ar  300  RHQ300     -0.0068
      5  C5        58.2570   25.4500   70.5010 C.ar  300  RHQ300      0.0644
      6  C6        59.4410   25.4270   69.5690 C.ar  300  RHQ300      0.0532
      7  O1        60.2740   24.9410   67.2220 O.3   300  RHQ300     -0.4537
      8  C7        59.9180   24.4750   65.8050 C.2   300  RHQ300      0.1428
      9  C8        58.4500   24.0350   65.3390 C.2   300  RHQ300      0.0166
     10  C9        57.2980   24.0120   66.1540 C.2   300  RHQ300      0.0024
     11  C10       61.0110   24.4670   64.8690 C.2   300  RHQ300      0.0526
     12  C11       60.8830   24.0790   63.5070 C.2   300  RHQ300      0.0607
     13  C12       59.4810   23.6080   62.9430 C.2   300  RHQ300     -0.0245
     14  C13       58.3260   23.5850   63.8060 C.3   300  RHQ300      0.0527
     15  N1        62.0950   24.1840   62.8330 N.pl3 300  RHQ300     -0.2381
     16  C14       55.7860   23.4590   65.7450 C.ar  300  RHQ300      0.0061
     17  C15       54.8970   24.2860   64.8490 C.ar  300  RHQ300      0.0002
     18  C16       53.5810   23.8990   64.4310 C.ar  300  RHQ300      0.0000
     19  C17       52.9520   22.5540   64.8840 C.ar  300  RHQ300      0.0002
     20  C18       53.7480   21.6760   65.7640 C.ar  300  RHQ300      0.0064
     21  C19       55.0960   22.1180   66.1670 C.ar  300  RHQ300      0.0756
     22  C20       59.2150   23.1530   61.4670 C.3   300  RHQ300      0.0280
     23  C21       55.7100   25.1210   71.1990 C.3   300  RHQ300      0.0324
     24  C22       63.1980   23.1340   62.5760 C.3   300  RHQ300      0.1122
     25  C23       64.5860   23.7670   62.9940 C.3   300  RHQ300      0.0251
     26  N2        58.8360   25.9310   71.7720 N.pl3 300  RHQ300     -0.2378
     27  C24       58.3570   26.2270   73.1390 C.3   300  RHQ300      0.1122
     28  C25       59.4850   27.1340   73.8110 C.3   300  RHQ300      0.0251
     29  C26       55.7830   21.1900   67.0180 C.2   300  RHQ300      0.3412
     30  O27       55.0890   20.6290   68.0170 O.2   300  RHQ300     -0.2449
     31  O2        57.2380   20.9960   66.6740 O.3   300  RHQ300     -0.4454
     32  C28       58.2510   20.1490   67.3340 C.3   300  RHQ300      0.2089
     33  C29       59.5880   20.8960   67.4550 C.3   300  RHQ300      0.0513
@<TRIPOS>BOND
     1    22    13    1
     2    24    15    1
     3    24    25    1
     4    15    12    1
     5    13    12    2
     6    13    14    1
     7    12    11    1
     8    14     9    1
     9    18    17   ar
    10    18    19   ar
    11    17    16   ar
    12    11     8    2
    13    19    20   ar
    14     9     8    1
    15     9    10    2
    16    16    10    1
    17    16    21   ar
    18    20    21   ar
    19     8     7    1
    20    10     2    1
    21    21    29    1
    22    31    29    1
    23    31    32    1
    24    29    30    2
    25     7     1    1
    26    32    33    1
    27     2     1   ar
    28     2     3   ar
    29     1     6   ar
    30     3     4   ar
    31     6     5   ar
    32     4     5   ar
    33     4    23    1
    34     5    26    1
    35    26    27    1
    36    27    28    1
