@<TRIPOS>MOLECULE
3d73_NBB_A_1.pdb
 14 14 0 0 0
SMALL
GASTEIGER

@<TRIPOS>ATOM
      1  O1S       15.6490   16.6910    2.1840 O.2   120  NBB120     -0.1516
      2  S         14.4490   17.4950    1.9580 S.O2  120  NBB120      0.0768
      3  O2S       14.5380   18.1510    0.6410 O.2   120  NBB120     -0.1516
      4  N10       14.3070   18.6390    2.9520 N.3   120  NBB120     -0.0778
      5  C11       12.9760   19.0200    3.4320 C.3   120  NBB120      0.1155
      6  C12       13.1590   20.0250    4.5590 C.3   120  NBB120      0.0208
      7  C13       12.0440   19.9560    5.5960 C.3   120  NBB120      0.0015
      8  C14       10.9260   20.8720    5.1550 C.3   120  NBB120      0.0000
      9  C4        13.1100   16.6070    2.0570 C.ar  120  NBB120      0.1235
     10  C5        12.9250   15.7370    3.1240 C.ar  120  NBB120      0.0200
     11  C6        11.7510   14.9780    3.1960 C.ar  120  NBB120      0.0014
     12  C1        10.7620   15.0970    2.2250 C.ar  120  NBB120      0.0001
     13  C2        10.9320   15.9900    1.1740 C.ar  120  NBB120      0.0014
     14  C3        12.0950   16.7300    1.0950 C.ar  120  NBB120      0.0200
@<TRIPOS>BOND
     1     3     2    2
     2    14    13   ar
     3    14     9   ar
     4    13    12   ar
     5     2     9    1
     6     2     1    2
     7     2     4    1
     8     9    10   ar
     9    12    11   ar
    10     4     5    1
    11    10    11   ar
    12     5     6    1
    13     6     7    1
    14     8     7    1
