@<TRIPOS>MOLECULE
3d74_NBB_A_1.pdb
 14 14 0 0 0
SMALL
GASTEIGER

@<TRIPOS>ATOM
      1  O1S       15.2830   16.8370    2.1320 O.2   120  NBB120     -0.1516
      2  S         14.0580   17.6270    2.0470 S.O2  120  NBB120      0.0768
      3  O2S       14.0900   18.5100    0.8700 O.2   120  NBB120     -0.1516
      4  N10       13.8260   18.5780    3.2240 N.3   120  NBB120     -0.0778
      5  C11       12.5890   19.3490    3.3500 C.3   120  NBB120      0.1155
      6  C12       12.3400   19.6320    4.8320 C.3   120  NBB120      0.0208
      7  C13       10.9810   20.3050    5.0650 C.3   120  NBB120      0.0015
      8  C14       11.0660   21.4940    6.0150 C.3   120  NBB120      0.0000
      9  C4        12.7660   16.6480    2.0310 C.ar  120  NBB120      0.1235
     10  C5        12.6250   15.6700    3.0110 C.ar  120  NBB120      0.0200
     11  C6        11.4990   14.8570    3.0220 C.ar  120  NBB120      0.0014
     12  C1        10.5080   15.0030    2.0640 C.ar  120  NBB120      0.0001
     13  C2        10.6320   15.9820    1.0830 C.ar  120  NBB120      0.0014
     14  C3        11.7510   16.8020    1.0770 C.ar  120  NBB120      0.0200
@<TRIPOS>BOND
     1     3     2    2
     2    14    13   ar
     3    14     9   ar
     4    13    12   ar
     5     9     2    1
     6     9    10   ar
     7     2     1    2
     8     2     4    1
     9    12    11   ar
    10    10    11   ar
    11     4     5    1
    12     5     6    1
    13     6     7    1
    14     7     8    1
