@<TRIPOS>MOLECULE
3d75_NBB_A_1.pdb
 14 14 0 0 0
SMALL
GASTEIGER

@<TRIPOS>ATOM
      1  O1S       13.4050   14.2410   -3.0620 O.2   120  NBB120     -0.1516
      2  S         13.6140   13.6500   -1.7830 S.O2  120  NBB120      0.0768
      3  O2S       12.6290   12.6430   -1.5770 O.2   120  NBB120     -0.1516
      4  N10       13.4810   14.6830   -0.6930 N.3   120  NBB120     -0.0778
      5  C11       12.8170   14.3290    0.5450 C.3   120  NBB120      0.1155
      6  C12       13.9340   14.3310    1.5730 C.3   120  NBB120      0.0208
      7  C13       14.1320   15.7230    2.1450 C.3   120  NBB120      0.0015
      8  C14       15.0280   15.6750    3.3580 C.3   120  NBB120      0.0000
      9  C4        15.0700   13.0610   -1.7430 C.ar  120  NBB120      0.1235
     10  C5        15.2720   11.7080   -1.9310 C.ar  120  NBB120      0.0200
     11  C6        16.5610   11.2020   -1.8980 C.ar  120  NBB120      0.0014
     12  C1        17.6280   12.0580   -1.6750 C.ar  120  NBB120      0.0001
     13  C2        17.4180   13.4170   -1.4860 C.ar  120  NBB120      0.0014
     14  C3        16.1290   13.9210   -1.5250 C.ar  120  NBB120      0.0200
@<TRIPOS>BOND
     1     1     2    2
     2    10    11   ar
     3    10     9   ar
     4    11    12   ar
     5     2     9    1
     6     2     3    2
     7     2     4    1
     8     9    14   ar
     9    12    13   ar
    10    14    13   ar
    11     4     5    1
    12     5     6    1
    13     6     7    1
    14     7     8    1
