@<TRIPOS>MOLECULE
3d76_NBB_A_1.pdb
 14 14 0 0 0
SMALL
GASTEIGER

@<TRIPOS>ATOM
      1  O1S       14.3600   13.8460   -3.2470 O.2   121  NBB121     -0.1516
      2  S         14.8110   13.4530   -2.0230 S.O2  121  NBB121      0.0768
      3  O2S       14.5080   12.1380   -1.7860 O.2   121  NBB121     -0.1516
      4  N10       14.0650   14.3080   -1.0980 N.3   121  NBB121     -0.0778
      5  C11       12.6960   14.1070   -0.6880 C.3   121  NBB121      0.1155
      6  C12       12.8470   14.9400    0.5670 C.3   121  NBB121      0.0208
      7  C13       14.2010   14.6190    1.1750 C.3   121  NBB121      0.0015
      8  C14       14.7240   15.6320    2.1560 C.3   121  NBB121      0.0000
      9  C4        16.3370   13.6060   -1.7010 C.ar  121  NBB121      0.1235
     10  C5        17.1430   12.4860   -1.6140 C.ar  121  NBB121      0.0200
     11  C6        18.4920   12.6060   -1.2760 C.ar  121  NBB121      0.0014
     12  C1        19.0460   13.8490   -0.9940 C.ar  121  NBB121      0.0001
     13  C2        18.2190   14.9450   -1.0970 C.ar  121  NBB121      0.0014
     14  C3        16.8860   14.8240   -1.4160 C.ar  121  NBB121      0.0200
@<TRIPOS>BOND
     1     1     2    2
     2     2     3    2
     3     2     9    1
     4     2     4    1
     5     9    10   ar
     6     9    14   ar
     7    10    11   ar
     8    14    13   ar
     9    11    12   ar
    10     4     5    1
    11    13    12   ar
    12     5     6    1
    13     6     7    1
    14     7     8    1
