@<TRIPOS>MOLECULE
3d77_NBB_A_1.pdb
 14 14 0 0 0
SMALL
GASTEIGER

@<TRIPOS>ATOM
      1  O1S       14.9100   13.9520   -3.1900 O.2   121  NBB121     -0.1516
      2  S         14.9190   13.5710   -1.7540 S.O2  121  NBB121      0.0768
      3  O2S       14.3690   12.2020   -1.6680 O.2   121  NBB121     -0.1516
      4  N10       14.0730   14.6180   -1.0150 N.3   121  NBB121     -0.0778
      5  C11       13.2560   14.3650    0.1780 C.3   121  NBB121      0.1155
      6  C12       14.1810   14.3840    1.4010 C.3   121  NBB121      0.0208
      7  C13       14.7560   15.7550    1.6880 C.3   121  NBB121      0.0015
      8  C14       15.4400   15.8300    3.0430 C.3   121  NBB121      0.0000
      9  C4        16.4380   13.6370   -1.2240 C.ar  121  NBB121      0.1235
     10  C5        16.9720   12.6580   -0.3820 C.ar  121  NBB121      0.0200
     11  C6        18.2930   12.7570    0.0840 C.ar  121  NBB121      0.0014
     12  C1        19.0910   13.8390   -0.2800 C.ar  121  NBB121      0.0001
     13  C2        18.5610   14.8170   -1.1140 C.ar  121  NBB121      0.0014
     14  C3        17.2440   14.7230   -1.5750 C.ar  121  NBB121      0.0200
@<TRIPOS>BOND
     1     1     2    2
     2     2     3    2
     3     2     9    1
     4     2     4    1
     5    14     9   ar
     6    14    13   ar
     7     9    10   ar
     8    13    12   ar
     9     4     5    1
    10    10    11   ar
    11    12    11   ar
    12     5     6    1
    13     6     7    1
    14     7     8    1
