@<TRIPOS>MOLECULE
3d78_NBB_A_1.pdb
 14 14 0 0 0
SMALL
GASTEIGER

@<TRIPOS>ATOM
      1  O1S       15.7640   16.5820    2.2820 O.2   120  NBB120     -0.1483
      2  S         14.6900   17.5370    2.0290 S.O2  120  NBB120      0.0929
      3  O2S       14.9500   17.9750    0.6140 O.2   120  NBB120     -0.1483
      4  N10       14.6030   18.6870    3.1040 N.pl3 120  NBB120     -0.0955
      5  C11       13.3370   19.3540    3.6400 C.2   120  NBB120      0.1031
      6  C12       13.3130   19.8580    5.1230 C.2   120  NBB120     -0.0067
      7  C13       11.9490   20.1580    5.8020 C.3   120  NBB120      0.0275
      8  C14       11.8010   21.3150    6.7910 C.3   120  NBB120      0.0051
      9  C4        13.2840   16.7420    2.1630 C.ar  120  NBB120      0.1270
     10  C5        12.3770   16.6840    1.1190 C.ar  120  NBB120      0.0202
     11  C6        11.1630   16.0250    1.1880 C.ar  120  NBB120      0.0014
     12  C1        10.8280   15.3980    2.3690 C.ar  120  NBB120      0.0001
     13  C2        11.7040   15.4680    3.4480 C.ar  120  NBB120      0.0014
     14  C3        12.9320   16.1270    3.3550 C.ar  120  NBB120      0.0202
@<TRIPOS>BOND
     1     3     2    2
     2    10    11   ar
     3    10     9   ar
     4    11    12   ar
     5     2     9    1
     6     2     1    2
     7     2     4    1
     8     9    14   ar
     9    12    13   ar
    10     4     5    1
    11    14    13   ar
    12     5     6    2
    13     6     7    1
    14     7     8    1
