@<TRIPOS>MOLECULE
3d7b_U4S_A_1.pdb
 21 23 0 0 0
SMALL
GASTEIGER

@<TRIPOS>ATOM
      1  C4        34.7880   -4.5920   12.4660 C.1   127  U4S127      0.2182
      2  C5        35.9710   -4.4960   13.1880 C.2   127  U4S127      0.1242
      3  C6        36.7710   -3.3640   13.0400 C.2   127  U4S127      0.0929
      4  N1        36.3910   -2.3050   12.1840 N.am  127  U4S127     -0.1766
      5  N3        34.4070   -3.5580   11.6020 N.2   127  U4S127     -0.2452
      6  CAJ       41.8210   -1.0330   13.6490 C.3   127  U4S127      0.0722
      7  C5'       39.7510   -0.6220   14.7610 C.3   127  U4S127      0.1048
      8  C4'       38.4620   -0.7610   13.9310 C.3   127  U4S127      0.1660
      9  O4'       38.5660   -1.3530   12.5990 O.3   127  U4S127     -0.3331
     10  C3'       37.9340    0.5980   13.5640 C.3   127  U4S127      0.2147
     11  O3'       37.4460    1.3310   14.6780 O.3   127  U4S127     -0.2176
     12  C2'       36.7750    0.2180   12.6760 C.3   127  U4S127      0.2319
     13  O2'       36.7160    1.2770   11.7260 O.3   127  U4S127     -0.2157
     14  C1'       37.2630   -1.0930   12.0120 C.3   127  U4S127      0.2400
     15  O4        34.0700   -5.5840   12.5750 O.2   127  U4S127     -0.2085
     16  C2        35.2020   -2.4120   11.4570 C.1   127  U4S127      0.2845
     17  O2        34.8450   -1.5110   10.7030 O.2   127  U4S127     -0.1918
     18  CAI       41.3370   -2.1220   15.7040 C.3   127  U4S127      0.0722
     19  CAG       42.8030   -1.6820   15.6860 C.3   127  U4S127      0.0188
     20  CAH       43.1050   -1.6430   14.1990 C.3   127  U4S127      0.0188
     21  NAT       40.7370   -1.6580   14.4320 N.3   127  U4S127     -0.2706
@<TRIPOS>BOND
     1    17    16    2
     2    16     5    2
     3    16     4   am
     4     5     1    2
     5    13    12    1
     6    14     4    1
     7    14     9    1
     8    14    12    1
     9     4     3    1
    10     1    15    2
    11     1     2    1
    12     9     8    1
    13    12    10    1
    14     3     2    2
    15    10     8    1
    16    10    11    1
    17     6    20    1
    18     6    21    1
    19     8     7    1
    20    20    19    1
    21    21     7    1
    22    21    18    1
    23    19    18    1
