@<TRIPOS>MOLECULE
3d7d_FBD_A_1.pdb
 27 27 0 0 0
SMALL
GASTEIGER

@<TRIPOS>ATOM
      1  F21       23.3590   50.3460   47.3820 F       1  FBD1       -0.2042
      2  C20       23.2990   49.5500   46.2740 C.ar    1  FBD1        0.1401
      3  C22       23.8850   48.2920   46.3700 C.ar    1  FBD1        0.0293
      4  C23       23.8950   47.4320   45.2760 C.ar    1  FBD1       -0.0011
      5  C19       22.7150   49.9690   45.0580 C.ar    1  FBD1        0.0293
      6  C18       22.7210   49.0930   43.9480 C.ar    1  FBD1       -0.0011
      7  C17       23.3160   47.8160   44.0620 C.ar    1  FBD1       -0.0112
      8  C16       23.3790   46.8260   42.8950 C.3     1  FBD1        0.0838
      9  S15       22.5380   45.3090   43.2950 S.3     1  FBD1       -0.1330
     10  C14       20.8500   45.8770   43.4020 C.3     1  FBD1        0.0912
     11  C13       19.9710   45.0980   44.4060 C.3     1  FBD1        0.2101
     12  C24       20.1220   45.7220   45.7830 C.2     1  FBD1        0.3851
     13  O25       20.6320   45.0090   46.6720 O.co2   1  FBD1       -0.2437
     14  O26       19.6860   46.8890   45.9740 O.co2   1  FBD1       -0.2437
     15  N12       18.6570   45.4730   43.9010 N.am    1  FBD1       -0.1765
     16  C11       17.9670   44.7330   43.0320 C.2     1  FBD1        0.3402
     17  O27       18.4020   43.6600   42.5560 O.2     1  FBD1       -0.2492
     18  N10       16.7240   45.1550   42.7020 N.am    1  FBD1       -0.1774
     19  C6        16.0380   44.4360   41.6140 C.3     1  FBD1        0.1999
     20  C7        17.0080   44.6360   40.4370 C.2     1  FBD1        0.3843
     21  O8        17.9050   45.5240   40.4540 O.co2   1  FBD1       -0.2437
     22  O9        16.9350   43.8740   39.4100 O.co2   1  FBD1       -0.2437
     23  C5        14.7710   45.2090   41.1750 C.3     1  FBD1        0.0451
     24  C4        14.9850   46.7270   41.0920 C.3     1  FBD1        0.1164
     25  C2        13.8570   47.4960   40.4060 C.2     1  FBD1        0.3649
     26  O3        13.7890   48.7330   40.5830 O.co2   1  FBD1       -0.2457
     27  O1        13.0100   46.8860   39.6980 O.co2   1  FBD1       -0.2457
@<TRIPOS>BOND
     1    22    20   ar
     2    27    25   ar
     3    25    26   ar
     4    25    24    1
     5    20    21   ar
     6    20    19    1
     7    24    23    1
     8    23    19    1
     9    19    18    1
    10    17    16    2
    11    18    16   am
    12     8     9    1
    13     8     7    1
    14    16    15   am
    15     9    10    1
    16    10    11    1
    17    15    11    1
    18     6     7   ar
    19     6     5   ar
    20     7     4   ar
    21    11    12    1
    22     5     2   ar
    23     4     3   ar
    24    12    14   ar
    25    12    13   ar
    26     2     3   ar
    27     2     1    1
