@<TRIPOS>MOLECULE
3d7f_YBY_A_1.pdb
 26 26 0 0 0
SMALL
GASTEIGER

@<TRIPOS>ATOM
      1  I18       24.5760   49.5590   43.6540 I       1  YBY1       -0.0392
      2  C17       23.8790   47.5590   43.8950 C.ar    1  YBY1        0.0686
      3  C16       22.6010   47.2390   43.4270 C.ar    1  YBY1        0.0048
      4  C19       24.6430   46.5490   44.5110 C.ar    1  YBY1        0.2010
      5  O20       25.8970   46.8270   45.0130 O.3     1  YBY1       -0.2861
      6  C21       24.1490   45.2570   44.6440 C.ar    1  YBY1        0.0422
      7  C22       22.8670   44.9620   44.1470 C.ar    1  YBY1       -0.0009
      8  C15       22.0970   45.9470   43.5620 C.ar    1  YBY1       -0.0193
      9  C14       20.7040   45.6460   43.0500 C.3     1  YBY1        0.0597
     10  C13       19.8060   44.9950   44.1330 C.3     1  YBY1        0.2037
     11  C23       20.0030   45.6210   45.4870 C.2     1  YBY1        0.3846
     12  O25       19.5510   46.7840   45.6430 O.co2   1  YBY1       -0.2437
     13  O24       20.5090   44.9200   46.3870 O.co2   1  YBY1       -0.2437
     14  N12       18.4710   45.3440   43.6440 N.am    1  YBY1       -0.1770
     15  C11       17.8270   44.5400   42.7970 C.2     1  YBY1        0.3402
     16  O26       18.2340   43.4600   42.3330 O.2     1  YBY1       -0.2492
     17  N10       16.5800   44.9500   42.4410 N.am    1  YBY1       -0.1774
     18  C6        15.9050   44.2590   41.3530 C.3     1  YBY1        0.1999
     19  C7        16.8580   44.4880   40.1630 C.2     1  YBY1        0.3843
     20  O9        17.7830   45.3780   40.1410 O.co2   1  YBY1       -0.2437
     21  O8        16.7740   43.7070   39.1590 O.co2   1  YBY1       -0.2437
     22  C5        14.6180   45.0170   40.9100 C.3     1  YBY1        0.0451
     23  C4        14.8230   46.5510   40.8400 C.3     1  YBY1        0.1164
     24  C2        13.6940   47.3310   40.1690 C.2     1  YBY1        0.3649
     25  O1        12.9140   46.7320   39.3920 O.co2   1  YBY1       -0.2457
     26  O3        13.6530   48.5760   40.4120 O.co2   1  YBY1       -0.2457
@<TRIPOS>BOND
     1    21    19   ar
     2    25    24   ar
     3    20    19   ar
     4    19    18    1
     5    24    26   ar
     6    24    23    1
     7    23    22    1
     8    22    18    1
     9    18    17    1
    10    16    15    2
    11    17    15   am
    12    15    14   am
    13     9     8    1
    14     9    10    1
    15     3     8   ar
    16     3     2   ar
    17     8     7   ar
    18    14    10    1
    19     1     2    1
    20     2     4   ar
    21    10    11    1
    22     7     6   ar
    23     4     6   ar
    24     4     5    1
    25    11    12   ar
    26    11    13   ar
