@<TRIPOS>MOLECULE
3d7g_MUD_A_1.pdb
 20 19 0 0 0
SMALL
GASTEIGER

@<TRIPOS>ATOM
      1  O3        13.7490   48.4110   40.6760 O.co2   1  MUD1       -0.2457
      2  C2        13.8020   47.1700   40.4630 C.2     1  MUD1        0.3649
      3  O1        13.0090   46.5980   39.6810 O.co2   1  MUD1       -0.2457
      4  C4        14.8920   46.3870   41.1760 C.3     1  MUD1        0.1164
      5  C5        14.7250   44.8530   41.2340 C.3     1  MUD1        0.0451
      6  C6        16.0310   44.1220   41.6460 C.3     1  MUD1        0.1999
      7  C7        16.9750   44.3140   40.4370 C.2     1  MUD1        0.3843
      8  O8        16.8700   43.5680   39.3920 O.co2   1  MUD1       -0.2437
      9  O9        17.8840   45.2060   40.4590 O.co2   1  MUD1       -0.2437
     10  N10       16.7140   44.8350   42.7200 N.am    1  MUD1       -0.1774
     11  C11       17.9450   44.4480   43.0600 C.2     1  MUD1        0.3402
     12  O20       18.3930   43.4060   42.5490 O.2     1  MUD1       -0.2492
     13  N12       18.6600   45.2230   43.8790 N.am    1  MUD1       -0.1765
     14  C13       19.9690   44.8800   44.3990 C.3     1  MUD1        0.2100
     15  C17       20.1230   45.4820   45.7790 C.2     1  MUD1        0.3851
     16  O18       20.6490   44.7780   46.6720 O.co2   1  MUD1       -0.2437
     17  O19       19.6700   46.6410   45.9760 O.co2   1  MUD1       -0.2437
     18  C14       20.8720   45.6850   43.4530 C.3     1  MUD1        0.0908
     19  S15       22.5840   45.5330   43.9370 S.3     1  MUD1       -0.1369
     20  C16       23.0650   45.7260   42.2410 C.3     1  MUD1        0.0692
@<TRIPOS>BOND
     1     8     7   ar
     2     3     2   ar
     3     7     9   ar
     4     7     6    1
     5     2     1   ar
     6     2     4    1
     7     4     5    1
     8     5     6    1
     9     6    10    1
    10    20    19    1
    11    12    11    2
    12    10    11   am
    13    11    13   am
    14    18    19    1
    15    18    14    1
    16    13    14    1
    17    14    15    1
    18    15    17   ar
    19    15    16   ar
