@<TRIPOS>MOLECULE
3d7h_YC2_A_1.pdb
 31 31 0 0 0
SMALL
GASTEIGER

@<TRIPOS>ATOM
      1  I24       23.7600   50.2890   51.1960 I       1  YC21       -0.0425
      2  C23       23.5690   50.0000   49.0670 C.ar    1  YC21        0.0301
      3  C22       23.6870   51.0340   48.1360 C.ar    1  YC21        0.0059
      4  C21       23.5420   50.8600   46.7400 C.ar    1  YC21        0.0050
      5  C25       23.3050   48.7450   48.4950 C.ar    1  YC21        0.0059
      6  C26       23.1900   48.5610   47.0960 C.ar    1  YC21        0.0050
      7  C20       23.3040   49.5940   46.1750 C.ar    1  YC21        0.0551
      8  C19       23.1030   49.3840   44.6770 C.2     1  YC21        0.2648
      9  O27       22.5410   50.2630   44.0150 O.2     1  YC21       -0.2684
     10  N18       23.4170   48.2670   44.0280 N.am    1  YC21       -0.2017
     11  C17       23.2190   47.9360   42.6190 C.3     1  YC21        0.1155
     12  C16       23.2710   46.4080   42.5100 C.3     1  YC21        0.0235
     13  C15       22.4200   45.6140   43.5380 C.3     1  YC21        0.0042
     14  C14       20.9060   45.7040   43.2820 C.3     1  YC21        0.0334
     15  C13       19.9410   45.0280   44.2810 C.3     1  YC21        0.1994
     16  C28       20.1650   45.6410   45.6330 C.2     1  YC21        0.3843
     17  O30       20.7790   44.9610   46.4760 O.co2   1  YC21       -0.2437
     18  O29       19.6870   46.7980   45.8880 O.co2   1  YC21       -0.2437
     19  N12       18.6300   45.4440   43.7640 N.am    1  YC21       -0.1774
     20  C11       17.9310   44.7090   42.8680 C.2     1  YC21        0.3402
     21  O31       18.3220   43.6340   42.3640 O.2     1  YC21       -0.2492
     22  N10       16.7060   45.1940   42.5140 N.am    1  YC21       -0.1774
     23  C6        16.0570   44.5180   41.4150 C.3     1  YC21        0.1999
     24  C7        17.0230   44.7150   40.2500 C.2     1  YC21        0.3843
     25  O9        17.9670   45.5940   40.2700 O.co2   1  YC21       -0.2437
     26  O8        16.9600   43.9350   39.2550 O.co2   1  YC21       -0.2437
     27  C5        14.7590   45.2980   41.0660 C.3     1  YC21        0.0451
     28  C4        15.0050   46.8050   40.8980 C.3     1  YC21        0.1164
     29  C2        13.8790   47.5820   40.1990 C.2     1  YC21        0.3649
     30  O1        13.1270   46.9880   39.3810 O.co2   1  YC21       -0.2457
     31  O3        13.8050   48.8030   40.4360 O.co2   1  YC21       -0.2457
@<TRIPOS>BOND
     1    26    24   ar
     2    30    29   ar
     3    29    31   ar
     4    29    28    1
     5    24    25   ar
     6    24    23    1
     7    28    27    1
     8    27    23    1
     9    23    22    1
    10    21    20    2
    11    12    11    1
    12    12    13    1
    13    22    20   am
    14    11    10    1
    15    20    19   am
    16    14    13    1
    17    14    15    1
    18    19    15    1
    19     9     8    2
    20    10     8   am
    21    15    16    1
    22     8     7    1
    23    16    18   ar
    24    16    17   ar
    25     7     4   ar
    26     7     6   ar
    27     4     3   ar
    28     6     5   ar
    29     3     2   ar
    30     5     2   ar
    31     2     1    1
