@<TRIPOS>MOLECULE
3d7k_D7K_A_1.pdb
 39 41 0 0 0
SMALL
GASTEIGER

@<TRIPOS>ATOM
      1  PA       -42.2150   27.5620    2.3910 P.3   572  D7K572      0.2230
      2  O1A      -42.3150   28.1250    0.9880 O.2   572  D7K572     -0.5169
      3  O2A      -43.5480   27.4800    3.1060 O.3   572  D7K572     -0.4370
      4  O1B      -39.9660   30.1870    4.1660 O.3   572  D7K572     -0.1143
      5  PB       -39.7850   28.9100    3.3560 P.3   572  D7K572      0.5373
      6  O2B      -39.4380   28.9750    1.8780 O.2   572  D7K572     -0.2221
      7  O3B      -38.9240   27.9050    4.0850 O.3   572  D7K572     -0.1143
      8  O3A      -41.3470   28.4800    3.3670 O.3   572  D7K572     -0.2261
      9  O01      -41.4670   26.1270    2.2910 O.3   572  D7K572     -0.3134
     10  C01      -41.2470   25.2450    3.4150 C.3   572  D7K572      0.1544
     11  C05      -40.2310   24.1190    3.0910 C.3   572  D7K572      0.0661
     12  C04      -40.2730   22.9130    4.0380 C.2   572  D7K572      0.0164
     13  C03      -40.8120   21.7020    3.7980 C.2   572  D7K572      0.0279
     14  CM4      -41.4390   21.3140    2.4850 C.3   572  D7K572      0.0473
     15  S1       -39.6280   23.0190    5.5530 S.3   572  D7K572     -0.0943
     16  C02      -40.3310   21.5200    6.1340 C.3   572  D7K572      0.1691
     17  N3       -40.7610   20.8830    4.8820 N.pl3 572  D7K572     -0.2963
     18  C7,      -41.1370   19.4870    5.0520 C.3   572  D7K572      0.1238
     19  C5,      -42.6280   19.3790    5.0410 C.2   572  D7K572      0.0654
     20  C6,      -43.2680   18.8130    3.9480 C.2   572  D7K572      0.1115
     21  C4,      -43.3700   19.8010    6.1330 C.2   572  D7K572      0.2292
     22  N4,      -42.8150   20.3350    7.2490 N.pl3 572  D7K572     -0.0925
     23  N3,      -44.7040   19.6820    6.1090 N.2   572  D7K572     -0.3368
     24  C2,      -45.3400   19.1310    5.0490 C.1   572  D7K572      0.0663
     25  N1,      -44.6150   18.6960    3.9950 N.2   572  D7K572     -0.1861
     26  CM2      -46.8460   19.0220    5.1100 C.3   572  D7K572      0.1291
     27  O12      -38.3280   18.5820    6.1150 O.3   572  D7K572     -0.1374
     28  P8       -37.9970   19.8670    6.8490 P.3   572  D7K572      0.4024
     29  O11      -37.1530   20.8820    6.1090 O.2   572  D7K572     -0.2525
     30  O9       -37.3840   19.3910    8.2860 O.3   572  D7K572     -0.2881
     31  C10      -36.3040   20.0550    8.9420 C.3   572  D7K572      0.1840
     32  C7       -39.5140   20.7820    7.2480 C.3   572  D7K572      0.2653
     33  O7       -40.3750   19.7820    7.7870 O.3   572  D7K572     -0.2059
     34  C2       -39.2730   21.8210    8.3180 C.ar  572  D7K572      0.0188
     35  C3       -40.1950   21.9470    9.3710 C.ar  572  D7K572     -0.0012
     36  C4       -40.0080   22.9270   10.3620 C.ar  572  D7K572     -0.0002
     37  C5       -38.9060   23.8060   10.2890 C.ar  572  D7K572     -0.0000
     38  C6       -37.9940   23.6850    9.2390 C.ar  572  D7K572     -0.0002
     39  C1       -38.1790   22.6990    8.2680 C.ar  572  D7K572     -0.0012
@<TRIPOS>BOND
     1     2     1    2
     2     6     5    2
     3     9     1    1
     4     9    10    1
     5     1     3    1
     6     1     8    1
     7    14    13    1
     8    11    10    1
     9    11    12    1
    10     5     8    1
    11     5     7    1
    12     5     4    1
    13    13    12    2
    14    13    17    1
    15    20    25    1
    16    20    19    2
    17    25    24    2
    18    12    15    1
    19    17    18    1
    20    17    16    1
    21    19    18    1
    22    19    21    1
    23    24    26    1
    24    24    23    2
    25    15    16    1
    26    23    21    2
    27    29    28    2
    28    27    28    1
    29    21    22    1
    30    16    32    1
    31    28    32    1
    32    28    30    1
    33    32    33    1
    34    32    34    1
    35    39    34   ar
    36    39    38   ar
    37    30    31    1
    38    34    35   ar
    39    38    37   ar
    40    35    36   ar
    41    37    36   ar
