@<TRIPOS>MOLECULE
3d7m_GDP_A_1.pdb
 28 30 0 0 0
SMALL
GASTEIGER

@<TRIPOS>ATOM
      1  PB       -22.8750   14.3050  -12.9890 P.3   355  GDP355      0.5373
      2  O1B      -23.7490   15.1050  -12.1490 O.3   355  GDP355     -0.1143
      3  O2B      -23.0890   12.8640  -12.8230 O.3   355  GDP355     -0.1143
      4  O3B      -22.9110   14.8590  -14.3530 O.2   355  GDP355     -0.2221
      5  O3A      -21.3420   14.5140  -12.5100 O.3   355  GDP355     -0.2261
      6  PA       -20.4090   13.7750  -11.4280 P.3   355  GDP355      0.2231
      7  O1A      -21.2520   13.5490  -10.2270 O.3   355  GDP355     -0.4370
      8  O2A      -19.6170   12.6430  -12.1220 O.2   355  GDP355     -0.5169
      9  O5'      -19.4280   14.8640  -10.9370 O.3   355  GDP355     -0.3111
     10  C5'      -18.3630   15.3490  -11.7440 C.3   355  GDP355      0.1813
     11  C4'      -17.0840   15.4550  -11.0410 C.3   355  GDP355      0.1799
     12  O4'      -17.1210   16.4730   -9.9860 O.3   355  GDP355     -0.3326
     13  C3'      -16.6620   14.1590  -10.4040 C.3   355  GDP355      0.2158
     14  O3'      -15.3030   13.9740  -10.6880 O.3   355  GDP355     -0.2175
     15  C2'      -16.8770   14.4550   -8.8950 C.3   355  GDP355      0.2310
     16  O2'      -15.9810   13.8100   -8.0320 O.3   355  GDP355     -0.2158
     17  C1'      -16.7220   15.9350   -8.7300 C.3   355  GDP355      0.2293
     18  N9       -17.6400   16.4340   -7.7520 N.pl3 355  GDP355     -0.2354
     19  C8       -19.0200   16.2380   -7.5880 C.3   355  GDP355      0.2246
     20  N7       -19.5720   16.8750   -6.5720 N.2   355  GDP355     -0.2322
     21  C5       -18.4370   17.5330   -6.0180 C.2   355  GDP355      0.2182
     22  C6       -18.3280   18.4420   -4.8920 C.1   355  GDP355      0.2372
     23  O6       -19.2270   18.8010   -4.1350 O.2   355  GDP355     -0.2069
     24  N1       -17.0130   18.9010   -4.6340 N.2   355  GDP355     -0.2485
     25  C2       -15.8950   18.5590   -5.4250 C.1   355  GDP355      0.2531
     26  N2       -14.7040   19.0030   -5.1390 N.pl3 355  GDP355     -0.0226
     27  N3       -16.0050   17.7540   -6.4960 N.2   355  GDP355     -0.3074
     28  C4       -17.2830   17.2750   -6.7510 C.2   355  GDP355      0.2300
@<TRIPOS>BOND
     1     4     1    2
     2     1     3    1
     3     1     5    1
     4     1     2    1
     5     5     6    1
     6     8     6    2
     7    10    11    1
     8    10     9    1
     9     6     9    1
    10     6     7    1
    11    11    13    1
    12    11    12    1
    13    14    13    1
    14    13    15    1
    15    12    17    1
    16    15    17    1
    17    15    16    1
    18    17    18    1
    19    18    19    1
    20    18    28    1
    21    19    20    1
    22    28    27    2
    23    28    21    1
    24    20    21    2
    25    27    25    2
    26    21    22    1
    27    25    26    1
    28    25    24    2
    29    22    24    2
    30    22    23    2
