@<TRIPOS>MOLECULE
3d7o_HEM_A_1.pdb
 43 50 0 0 0
SMALL
GASTEIGER

@<TRIPOS>ATOM
      1 FE         13.6020    2.4870   15.0040 Fe    143  HEM143      0.0000
      2  CHA       16.3010    1.4510   16.7640 C.2   143  HEM143      0.0000
      3  CHB       14.1810    5.7380   15.9880 C.2   143  HEM143      0.0000
      4  CHC       11.1270    3.5690   12.9180 C.2   143  HEM143      0.0000
      5  CHD       12.7200   -0.7940   14.4010 C.2   143  HEM143      0.0000
      6  NA        14.9670    3.4510   16.1850 N.2   143  HEM143      0.0000
      7  C1A       15.9930    2.8090   16.8560 C.2   143  HEM143      0.0000
      8  C2A       16.6890    3.8110   17.6530 C.2   143  HEM143      0.0000
      9  C3A       16.1000    5.0040   17.4240 C.2   143  HEM143      0.0000
     10  C4A       15.0280    4.7940   16.4760 C.2   143  HEM143      0.0000
     11  CMA       16.4270    6.3730   18.0590 C.3   143  HEM143      0.0000
     12  CAA       17.8990    3.5170   18.5970 C.3   143  HEM143      0.0000
     13  CBA       19.1310    4.1290   17.9370 C.3   143  HEM143      0.0000
     14  CGA       20.3890    3.6260   18.6040 C.2   143  HEM143      0.0000
     15  O1A       20.3640    3.4580   19.8510 O.co2 143  HEM143      0.0000
     16  O2A       21.3880    3.3840   17.8760 O.co2 143  HEM143      0.0000
     17  NB        12.8240    4.3360   14.5010 N.ar  143  HEM143      0.0000
     18  C1B       13.1620    5.5440   15.0830 C.ar  143  HEM143      0.0000
     19  C2B       12.2710    6.5710   14.5690 C.ar  143  HEM143      0.0000
     20  C3B       11.4250    5.9750   13.7120 C.ar  143  HEM143      0.0000
     21  C4B       11.7550    4.5550   13.6730 C.ar  143  HEM143      0.0000
     22  CMB       12.3780    8.0690   14.9130 C.3   143  HEM143      0.0000
     23  CAB       10.2810    6.5920   12.8360 C.2   143  HEM143      0.0000
     24  CBB        9.4570    7.5990   13.1390 C.2   143  HEM143      0.0000
     25  NC        12.2240    1.5570   13.8460 N.2   143  HEM143      0.0000
     26  C1C       11.2440    2.1950   13.1110 C.2   143  HEM143      0.0000
     27  C2C       10.3780    1.1730   12.6010 C.2   143  HEM143      0.0000
     28  C3C       10.8260   -0.0360   13.0220 C.2   143  HEM143      0.0000
     29  C4C       11.9870    0.2010   13.8060 C.2   143  HEM143      0.0000
     30  CMC        9.1530    1.4650   11.7180 C.3   143  HEM143      0.0000
     31  CAC       10.2310   -1.4290   12.7500 C.2   143  HEM143      0.0000
     32  CBC        8.9170   -1.6780   12.8700 C.2   143  HEM143      0.0000
     33  ND        14.4070    0.5850   15.4920 N.ar  143  HEM143      0.0000
     34  C1D       13.8210   -0.6160   15.1660 C.ar  143  HEM143      0.0000
     35  C2D       14.5670   -1.6880   15.7900 C.ar  143  HEM143      0.0000
     36  C3D       15.7030   -1.0000   16.5150 C.ar  143  HEM143      0.0000
     37  C4D       15.5290    0.4190   16.2760 C.ar  143  HEM143      0.0000
     38  CMD       14.2520   -3.1900   15.7200 C.3   143  HEM143      0.0000
     39  CAD       16.7800   -1.7290   17.3540 C.3   143  HEM143      0.0000
     40  CBD       16.1700   -1.7980   18.7550 C.3   143  HEM143      0.0000
     41  CGD       17.0560   -2.5670   19.7260 C.2   143  HEM143      0.0000
     42  O1D       17.1910   -2.1490   20.8960 O.co2 143  HEM143      0.0000
     43  O2D       17.6100   -3.6250   19.3870 O.co2 143  HEM143      0.0000
@<TRIPOS>BOND
     1    30    27    1
     2    27    28    2
     3    27    26    1
     4    31    32    2
     5    31    28    1
     6    23    24    2
     7    23    20    1
     8     4    26    2
     9     4    21    1
    10    28    29    1
    11    26    25    1
    12    21    20   ar
    13    21    17   ar
    14    20    19   ar
    15    29    25    2
    16    29     5    1
    17    25     1    1
    18     5    34    2
    19    17     1    1
    20    17    18   ar
    21    19    22    1
    22    19    18   ar
    23     1    33    1
    24     1     6    1
    25    18     3    1
    26    34    33   ar
    27    34    35   ar
    28    33    37   ar
    29    38    35    1
    30    35    36   ar
    31     3    10    2
    32     6    10    1
    33     6     7    2
    34    37    36   ar
    35    37     2    2
    36    10     9    1
    37    36    39    1
    38     2     7    1
    39     7     8    1
    40    39    40    1
    41     9     8    2
    42     9    11    1
    43     8    12    1
    44    16    14   ar
    45    13    12    1
    46    13    14    1
    47    14    15   ar
    48    40    41    1
    49    43    41   ar
    50    41    42   ar
