@<TRIPOS>MOLECULE
3d7t_STU_A_1.pdb
 35 42 0 0 0
SMALL
GASTEIGER

@<TRIPOS>ATOM
      1  O4       -66.3380   43.8880  -19.9920 O.3   6335  STU6335    -0.3186
      2  C25      -65.5080   43.0840  -20.7700 C.3   6335  STU6335     0.2078
      3  C24      -66.2370   42.2030  -21.7780 C.3   6335  STU6335     0.0739
      4  C23      -67.7800   42.3090  -21.7510 C.3   6335  STU6335     0.1086
      5  C22      -68.3640   42.5000  -20.3190 C.3   6335  STU6335     0.1761
      6  C21      -67.4480   43.2950  -19.3870 C.3   6335  STU6335     0.1915
      7  C26      -68.2870   44.5070  -18.9730 C.3   6335  STU6335     0.0566
      8  N2       -67.1390   42.5320  -18.1730 N.ar  6335  STU6335    -0.3054
      9  C18      -65.9380   41.8570  -17.9610 C.ar  6335  STU6335     0.0774
     10  C19      -64.8040   41.7440  -18.7740 C.ar  6335  STU6335     0.0783
     11  C6       -63.6940   41.0020  -18.3450 C.ar  6335  STU6335     0.0293
     12  C7       -63.7200   40.3590  -17.0740 C.ar  6335  STU6335     0.0822
     13  C10      -64.8590   40.4810  -16.2760 C.ar  6335  STU6335     0.0154
     14  C11      -65.9600   41.2190  -16.7070 C.ar  6335  STU6335     0.0173
     15  C12      -67.2670   41.5320  -16.1280 C.ar  6335  STU6335     0.0171
     16  C17      -67.9520   42.3390  -17.0670 C.ar  6335  STU6335     0.0617
     17  C16      -69.2430   42.7890  -16.7750 C.ar  6335  STU6335     0.0172
     18  C15      -69.7970   42.4230  -15.5610 C.ar  6335  STU6335     0.0015
     19  C14      -69.1160   41.6350  -14.6550 C.ar  6335  STU6335     0.0001
     20  C13      -67.8400   41.1710  -14.9120 C.ar  6335  STU6335     0.0015
     21  C9       -64.5890   39.7020  -15.0100 C.3   6335  STU6335     0.1650
     22  N1       -63.2420   39.1440  -15.1550 N.2   6335  STU6335    -0.1976
     23  C8       -62.7390   39.5230  -16.3440 C.1   6335  STU6335     0.1501
     24  O5       -61.6290   39.2120  -16.7480 O.2   6335  STU6335    -0.2222
     25  C5       -62.7160   41.1010  -19.4280 C.ar  6335  STU6335     0.0180
     26  C20      -63.3040   41.8980  -20.4420 C.ar  6335  STU6335     0.0618
     27  C1       -62.6030   42.1770  -21.6170 C.ar  6335  STU6335     0.0172
     28  C2       -61.3290   41.6430  -21.7410 C.ar  6335  STU6335     0.0015
     29  C3       -60.7560   40.8630  -20.7500 C.ar  6335  STU6335     0.0001
     30  C4       -61.4290   40.5720  -19.5720 C.ar  6335  STU6335     0.0015
     31  N3       -64.5740   42.2680  -19.9970 N.ar  6335  STU6335    -0.3039
     32  O6       -68.8290   41.2990  -19.6550 O.3   6335  STU6335    -0.3478
     33  C27      -67.9780   40.1720  -19.8740 C.3   6335  STU6335     0.1743
     34  N4       -68.3770   41.1270  -22.4130 N.3   6335  STU6335    -0.2152
     35  C28      -69.5430   41.5560  -23.1970 C.3   6335  STU6335     0.1075
@<TRIPOS>BOND
     1    35    34    1
     2    34     4    1
     3     3     4    1
     4     3     2    1
     5     4     5    1
     6    28    27   ar
     7    28    29   ar
     8    27    26   ar
     9     2    31    1
    10     2     1    1
    11    29    30   ar
    12    26    31   ar
    13    26    25   ar
    14     5    32    1
    15     5     6    1
    16    31    10   ar
    17     1     6    1
    18    33    32    1
    19    30    25   ar
    20    25    11   ar
    21     6     7    1
    22     6     8    1
    23    10    11   ar
    24    10     9   ar
    25    11    12   ar
    26     8     9   ar
    27     8    16   ar
    28     9    14   ar
    29    12    23    1
    30    12    13   ar
    31    16    17   ar
    32    16    15   ar
    33    17    18   ar
    34    24    23    2
    35    14    13   ar
    36    14    15   ar
    37    23    22    2
    38    13    21    1
    39    15    20   ar
    40    18    19   ar
    41    22    21    1
    42    20    19   ar
