@<TRIPOS>MOLECULE
3d7z_GK5_A_1.pdb
 26 29 0 0 0
SMALL
GASTEIGER

@<TRIPOS>ATOM
      1  C9        39.6300   32.3090   30.1810 C.3   401  GK5401      0.0310
      2  C22       36.9710   26.7190   36.5160 C.3   401  GK5401      0.0234
      3  C21       38.0580   27.4050   37.2550 C.3   401  GK5401      0.0234
      4  C18       38.3730   26.6660   35.9900 C.3   401  GK5401      0.0957
      5  C26       49.0270   33.9270   30.3930 C.3   401  GK5401      0.0018
      6  C25       50.1850   34.2140   31.2830 C.3   401  GK5401      0.0018
      7  C24       48.8110   34.5300   31.7230 C.3   401  GK5401      0.0217
      8  C4        39.5470   31.3350   31.3530 C.ar  401  GK5401     -0.0218
      9  C8        38.4080   30.5250   31.5890 C.ar  401  GK5401     -0.0041
     10  C13       38.3120   29.6390   32.6650 C.ar  401  GK5401      0.0042
     11  C7        39.3810   29.5090   33.5710 C.ar  401  GK5401      0.0550
     12  C12       39.4050   28.5850   34.7640 C.2   401  GK5401      0.2647
     13  O16       40.2860   28.7210   35.6310 O.2   401  GK5401     -0.2684
     14  N15       38.4170   27.6230   34.9050 N.am  401  GK5401     -0.2034
     15  C3        40.5060   30.3250   33.3110 C.ar  401  GK5401      0.0043
     16  C1        40.6100   31.2270   32.2260 C.ar  401  GK5401     -0.0038
     17  C2        41.9110   31.9770   32.1760 C.ar  401  GK5401     -0.0003
     18  C5        42.9870   31.5060   31.4480 C.ar  401  GK5401      0.0001
     19  C10       44.2120   32.1920   31.4660 C.ar  401  GK5401      0.0046
     20  C14       44.4000   33.3460   32.2420 C.ar  401  GK5401      0.0550
     21  C11       43.3170   33.7730   33.0100 C.ar  401  GK5401      0.0046
     22  C6        42.0990   33.0920   32.9560 C.ar  401  GK5401      0.0001
     23  C17       45.6910   34.0920   32.3920 C.2   401  GK5401      0.2648
     24  O20       45.7880   35.2700   32.7450 O.2   401  GK5401     -0.2684
     25  N19       46.7910   33.2990   32.2650 N.am  401  GK5401     -0.2017
     26  C23       48.1440   33.6290   32.7420 C.3   401  GK5401      0.1154
@<TRIPOS>BOND
     1     1     8    1
     2     5     6    1
     3     5     7    1
     4     6     7    1
     5     8     9   ar
     6     8    16   ar
     7    18    19   ar
     8    18    17   ar
     9    19    20   ar
    10     9    10   ar
    11     7    26    1
    12    17    16    1
    13    17    22   ar
    14    16    15   ar
    15    20    23    1
    16    20    21   ar
    17    25    23   am
    18    25    26    1
    19    23    24    2
    20    10    11   ar
    21    22    21   ar
    22    15    11   ar
    23    11    12    1
    24    12    14   am
    25    12    13    2
    26    14     4    1
    27     4     2    1
    28     4     3    1
    29     2     3    1
