@<TRIPOS>MOLECULE
3d80_Q22_A_1.pdb
 29 33 0 0 0
SMALL
GASTEIGER

@<TRIPOS>ATOM
      1  C7*       -4.1870    3.4130   15.2770 C.3   188  Q22188      0.1930
      2  N8*       -3.3200    4.3660   15.0670 N.2   188  Q22188     -0.1998
      3  C8        -2.1160    4.1220   14.5370 C.1   188  Q22188      0.1314
      4  N1*       -1.2330    5.0990   14.3040 N.2   188  Q22188     -0.2684
      5  C2*       -0.0360    4.8350   13.7710 C.1   188  Q22188      0.2519
      6  N2*        0.8360    5.7830   13.5740 N.pl3 188  Q22188     -0.0226
      7  N3*        0.2650    3.6070   13.3660 N.2   188  Q22188     -0.3033
      8  C4*       -0.5820    2.6010   13.5630 C.2   188  Q22188      0.2728
      9  N4*       -0.2690    1.3830   13.1860 N.pl3 188  Q22188     -0.0887
     10  C4        -1.8220    2.8390   14.1400 C.2   188  Q22188      0.2518
     11  N5*       -2.7100    1.8590   14.3420 N.2   188  Q22188     -0.3917
     12  C6*       -3.9040    2.1130   14.8850 C.2   188  Q22188      0.1333
     13  C9*       -4.8590    0.8930   15.1290 C.3   188  Q22188      0.1521
     14  N*0       -6.3070    1.1100   15.3050 N.pl3 188  Q22188     -0.2803
     15  C*0       -7.1070    0.2360   16.2090 C.ar  188  Q22188      0.0519
     16  C*1       -6.4390   -0.9990   16.8030 C.ar  188  Q22188      0.0148
     17  C*2       -6.7130   -1.4500   18.0770 C.ar  188  Q22188      0.0013
     18  C*3       -7.4870   -0.6930   18.9350 C.ar  188  Q22188      0.0001
     19  C*4       -8.0940    0.4740   18.5120 C.ar  188  Q22188      0.0012
     20  C*5       -7.8890    1.0020   17.2580 C.ar  188  Q22188      0.0136
     21  C*6       -8.5000    2.2160   17.0690 C.2   188  Q22188      0.0013
     22  C6        -8.5730    2.9260   15.8920 C.2   188  Q22188      0.0014
     23  C*7       -8.1000    2.4950   14.6760 C.ar  188  Q22188      0.0168
     24  C*8       -8.8880    2.9770   13.6410 C.ar  188  Q22188      0.0433
     25  C7        -7.0230    1.6890   14.4230 C.ar  188  Q22188      0.0521
     26  C9        -6.7330    1.2950   13.1300 C.ar  188  Q22188      0.0181
     27  C11       -7.5100    1.7880   12.0920 C.ar  188  Q22188      0.0433
     28  C*9       -8.5910    2.6200   12.3290 C.ar  188  Q22188      0.1958
     29  O1        -9.3370    3.1130   11.3110 O.3   188  Q22188     -0.2866
@<TRIPOS>BOND
     1    29    28    1
     2    27    28   ar
     3    27    26   ar
     4    28    24   ar
     5    26    25   ar
     6     9     8    1
     7     7     8    2
     8     7     5    2
     9     8    10    1
    10     6     5    1
    11    24    23   ar
    12     5     4    2
    13    10    11    2
    14    10     3    1
    15     4     3    2
    16    11    12    2
    17    25    23   ar
    18    25    14    1
    19     3     2    2
    20    23    22    1
    21    12    13    1
    22    12     1    1
    23     2     1    1
    24    13    14    1
    25    14    15    1
    26    22    21    2
    27    15    16   ar
    28    15    20   ar
    29    16    17   ar
    30    21    20    1
    31    20    19   ar
    32    17    18   ar
    33    19    18   ar
