@<TRIPOS>MOLECULE
3d80_NDP_A_1.pdb
 48 52 0 0 0
SMALL
GASTEIGER

@<TRIPOS>ATOM
      1  PA        -1.9570   -8.7150   17.3910 P.3   187  NDP187      0.2189
      2  O1A       -0.6040   -9.2060   17.0510 O.3   187  NDP187     -0.4371
      3  O2A       -2.3800   -7.3720   16.9370 O.2   187  NDP187     -0.5170
      4  O5B       -3.0340   -9.7900   16.8670 O.3   187  NDP187     -0.3112
      5  C5B       -2.9990  -11.1340   17.3550 C.3   187  NDP187      0.1813
      6  C4B       -2.9980  -12.1360   16.2010 C.3   187  NDP187      0.1820
      7  O4B       -1.7840  -12.0100   15.4460 O.3   187  NDP187     -0.3136
      8  C3B       -2.9500  -13.5630   16.7460 C.3   187  NDP187      0.2157
      9  O3B       -4.2660  -14.1200   16.7510 O.3   187  NDP187     -0.2175
     10  C2B       -2.0790  -14.3120   15.7390 C.3   187  NDP187      0.2314
     11  O2B       -2.8510  -15.3310   15.1010 O.3   187  NDP187     -0.2630
     12  C1B       -1.6960  -13.2420   14.7160 C.3   187  NDP187      0.3158
     13  N9A       -0.3060  -13.4570   14.2610 N.pl3 187  NDP187     -0.1439
     14  C8A        0.7720  -12.8070   14.7020 C.3   187  NDP187      0.3377
     15  N7A        1.8520  -13.2640   14.0670 N.2   187  NDP187     -0.2095
     16  C5A        1.4590  -14.2080   13.2190 C.2   187  NDP187      0.2526
     17  C6A        2.1230  -15.0200   12.3130 C.2   187  NDP187      0.4393
     18  N6A        3.4420  -14.9310   12.1660 N.pl3 187  NDP187      0.2180
     19  N1A        1.4140  -15.8970   11.5870 N.2   187  NDP187      0.0021
     20  C2A        0.1010  -15.9890   11.7300 C.3   187  NDP187      0.5254
     21  N3A       -0.5610  -15.2280   12.5860 N.2   187  NDP187     -0.0055
     22  C4A        0.0880  -14.3320   13.3420 C.2   187  NDP187      0.3518
     23  O3        -2.1480   -8.8010   18.9870 O.3   187  NDP187     -0.2703
     24  PN        -0.9920   -8.2560   19.9660 P.3   187  NDP187      0.2189
     25  O1N        0.3180   -8.4990   19.3220 O.2   187  NDP187     -0.5170
     26  O2N       -1.2450   -8.7840   21.3250 O.3   187  NDP187     -0.4371
     27  O5D       -1.2770   -6.6720   19.9700 O.3   187  NDP187     -0.3112
     28  C5D       -2.5970   -6.1840   20.2220 C.3   187  NDP187      0.1813
     29  C4D       -2.5750   -4.6920   20.5550 C.3   187  NDP187      0.1799
     30  O4D       -1.8460   -3.9780   19.5460 O.3   187  NDP187     -0.3327
     31  C3D       -3.9880   -4.1170   20.4710 C.3   187  NDP187      0.2158
     32  O3D       -4.5470   -4.0220   21.7830 O.3   187  NDP187     -0.2175
     33  C2D       -3.7810   -2.7150   19.8990 C.3   187  NDP187      0.2309
     34  O2D       -4.2100   -1.7390   20.8510 O.3   187  NDP187     -0.2158
     35  C1D       -2.2680   -2.6160   19.7070 C.3   187  NDP187      0.2263
     36  N1N       -1.9640   -1.8470   18.4810 N.pl3 187  NDP187     -0.2787
     37  C2N       -1.3370   -0.5990   18.5730 C.3   187  NDP187      0.1244
     38  C3N       -1.0530    0.1190   17.4170 C.2   187  NDP187      0.0544
     39  C7N       -0.3670    1.4840   17.5160 C.2   187  NDP187      0.2818
     40  O7N       -0.3580    2.1130   18.5720 O.2   187  NDP187     -0.2670
     41  N7N        0.1980    1.9110   16.3900 N.am  187  NDP187     -0.0839
     42  C4N       -1.3910   -0.4000   16.1730 C.2   187  NDP187      0.0033
     43  C5N       -2.0140   -1.6390   16.0760 C.2   187  NDP187      0.0157
     44  C6N       -2.3020   -2.3660   17.2260 C.2   187  NDP187      0.0633
     45  P2B       -3.1480  -16.7130   15.8670 P.3   187  NDP187      0.5328
     46  O1X       -3.6110  -16.3080   17.3530 O.3   187  NDP187     -0.1145
     47  O2X       -1.7260  -17.4460   16.0280 O.3   187  NDP187     -0.1145
     48  O3X       -4.1460  -17.5520   15.1670 O.2   187  NDP187     -0.2224
@<TRIPOS>BOND
     1    19    20    1
     2    19    17    2
     3    20    21    1
     4    18    17    1
     5    17    16    1
     6    21    22    2
     7    16    22    1
     8    16    15    2
     9    22    13    1
    10    15    14    1
    11    13    14    1
    12    13    12    1
    13    12     7    1
    14    12    10    1
    15    11    10    1
    16    11    45    1
    17    48    45    2
    18     7     6    1
    19    10     8    1
    20    45    47    1
    21    45    46    1
    22    43    42    1
    23    43    44    2
    24    42    38    2
    25     6     8    1
    26     6     5    1
    27    41    39   am
    28     8     9    1
    29     4     5    1
    30     4     1    1
    31     3     1    2
    32     2     1    1
    33    44    36    1
    34     1    23    1
    35    38    39    1
    36    38    37    1
    37    39    40    2
    38    36    37    1
    39    36    35    1
    40    23    24    1
    41    25    24    2
    42    30    35    1
    43    30    29    1
    44    35    33    1
    45    33    31    1
    46    33    34    1
    47    24    27    1
    48    24    26    1
    49    27    28    1
    50    28    29    1
    51    31    29    1
    52    31    32    1
