@<TRIPOS>MOLECULE
3d83_GK6_A_1.pdb
 35 39 0 0 0
SMALL
GASTEIGER

@<TRIPOS>ATOM
      1  O3        46.2930   34.8180   30.9770 O.2   401  GK6401     -0.2684
      2  C24       46.0010   33.6850   30.5740 C.2   401  GK6401      0.2648
      3  N4        46.7750   33.0420   29.6770 N.am  401  GK6401     -0.2017
      4  C25       47.9870   33.6210   29.0970 C.3   401  GK6401      0.1154
      5  C26       49.0690   32.5610   28.8470 C.3   401  GK6401      0.0217
      6  C28       50.4230   33.1260   29.2810 C.3   401  GK6401      0.0018
      7  C27       49.7130   32.0970   30.1540 C.3   401  GK6401      0.0018
      8  C21       44.7130   33.0050   31.0550 C.ar  401  GK6401      0.0550
      9  C20       44.3990   31.7120   30.6360 C.ar  401  GK6401      0.0046
     10  C19       43.2190   31.0710   31.0750 C.ar  401  GK6401      0.0001
     11  C22       43.8320   33.6670   31.9150 C.ar  401  GK6401      0.0046
     12  C23       42.6540   33.0280   32.3520 C.ar  401  GK6401      0.0001
     13  C18       42.3460   31.7220   31.9440 C.ar  401  GK6401     -0.0003
     14  C17       41.1220   31.1280   32.3350 C.ar  401  GK6401     -0.0027
     15  C2        39.9640   31.5260   31.6450 C.ar  401  GK6401     -0.0218
     16  C1        40.0470   32.5660   30.5520 C.3   401  GK6401      0.0310
     17  C16       40.9900   30.1500   33.3360 C.ar  401  GK6401      0.0163
     18  C5        39.7240   29.6130   33.6760 C.ar  401  GK6401      0.0737
     19  C4        38.5790   30.0370   32.9910 C.ar  401  GK6401      0.0163
     20  C3        38.7050   30.9950   31.9660 C.ar  401  GK6401     -0.0029
     21  N1        39.5810   28.6850   34.6690 N.am  401  GK6401     -0.1754
     22  C6        40.2020   28.7100   35.8760 C.2   401  GK6401      0.2691
     23  O1        41.1200   29.4700   36.1680 O.2   401  GK6401     -0.2680
     24  C7        39.7990   27.7130   36.9570 C.ar  401  GK6401      0.0597
     25  C11       40.1000   27.9850   38.3110 C.ar  401  GK6401      0.0389
     26  C10       39.7450   27.0410   39.2980 C.ar  401  GK6401      0.1320
     27  N2        39.1500   25.8840   38.9140 N.ar  401  GK6401     -0.2292
     28  C9        38.8610   25.5970   37.6230 C.ar  401  GK6401      0.1005
     29  C8        39.1850   26.5000   36.6040 C.ar  401  GK6401      0.0253
     30  N3        40.0600   27.2770   40.6590 N.pl3 401  GK6401     -0.2881
     31  C15       39.9840   26.1460   41.5840 C.3   401  GK6401      0.1242
     32  C14       39.8540   26.6370   43.0270 C.3   401  GK6401      0.1636
     33  O2        40.7740   27.6980   43.2700 O.3   401  GK6401     -0.3501
     34  C13       40.3550   28.8400   42.5260 C.3   401  GK6401      0.1636
     35  C12       40.5920   28.6050   41.0320 C.3   401  GK6401      0.1242
@<TRIPOS>BOND
     1     5     4    1
     2     5     6    1
     3     5     7    1
     4     4     3    1
     5     6     7    1
     6     3     2   am
     7    16    15    1
     8     2     1    2
     9     2     8    1
    10     9     8   ar
    11     9    10   ar
    12     8    11   ar
    13    10    13   ar
    14    15    20   ar
    15    15    14   ar
    16    11    12   ar
    17    13    14    1
    18    13    12   ar
    19    20    19   ar
    20    14    17   ar
    21    19    18   ar
    22    17    18   ar
    23    18    21    1
    24    21    22   am
    25    22    23    2
    26    22    24    1
    27    29    24   ar
    28    29    28   ar
    29    24    25   ar
    30    28    27   ar
    31    25    26   ar
    32    27    26   ar
    33    26    30    1
    34    30    35    1
    35    30    31    1
    36    35    34    1
    37    31    32    1
    38    34    33    1
    39    32    33    1
