@<TRIPOS>MOLECULE
3d84_NAP_X_1.pdb
 48 52 0 0 0
SMALL
GASTEIGER

@<TRIPOS>ATOM
      1  PA         2.2310    8.9460   16.7900 P.3   187  NAP187      0.2189
      2  O1A        3.0010    7.9540   16.0140 O.2   187  NAP187     -0.5170
      3  O2A        0.7570    9.0970   16.5260 O.3   187  NAP187     -0.4371
      4  O5B        2.9910   10.3050   16.6800 O.3   187  NAP187     -0.3112
      5  C5B        2.4880   11.4500   17.3310 C.3   187  NAP187      0.1813
      6  C4B        3.0150   12.5680   16.5140 C.3   187  NAP187      0.1820
      7  O4B        2.7150   12.3720   15.0560 O.3   187  NAP187     -0.3136
      8  C3B        2.4910   13.9830   16.8130 C.3   187  NAP187      0.2157
      9  O3B        3.1880   14.5070   17.9140 O.3   187  NAP187     -0.2175
     10  C2B        3.2500   14.2710   15.5460 C.3   187  NAP187      0.2314
     11  O2B        3.6800   15.4900   15.1670 O.3   187  NAP187     -0.2630
     12  C1B        2.3640   13.6240   14.4810 C.3   187  NAP187      0.3158
     13  N9A        0.8640   13.6410   14.1920 N.pl3 187  NAP187     -0.1439
     14  C8A       -0.0720   12.7800   14.6570 C.3   187  NAP187      0.3377
     15  N7A       -1.2730   13.0540   14.1500 N.2   187  NAP187     -0.2095
     16  C5A       -1.1150   14.0890   13.3140 C.2   187  NAP187      0.2526
     17  C6A       -1.9850   14.8460   12.5160 C.2   187  NAP187      0.4393
     18  N6A       -3.2910   14.5680   12.4450 N.pl3 187  NAP187      0.2180
     19  N1A       -1.4940   15.8660   11.7820 N.2   187  NAP187      0.0021
     20  C2A       -0.2050   16.1510   11.8430 C.3   187  NAP187      0.5254
     21  N3A        0.6350   15.4680   12.6010 N.2   187  NAP187     -0.0055
     22  C4A        0.2240   14.4480   13.3430 C.2   187  NAP187      0.3518
     23  O3         2.4300    8.7940   18.3920 O.3   187  NAP187     -0.2703
     24  PN         1.9650    7.7020   19.4740 P.3   187  NAP187      0.2189
     25  O1N        0.4950    7.6370   19.5470 O.2   187  NAP187     -0.5170
     26  O2N        2.7530    8.0570   20.6660 O.3   187  NAP187     -0.4371
     27  O5D        2.4780    6.2840   18.8870 O.3   187  NAP187     -0.3112
     28  C5D        3.8460    5.8570   19.1370 C.3   187  NAP187      0.1813
     29  C4D        3.7490    4.6820   20.1370 C.3   187  NAP187      0.1799
     30  O4D        2.8010    3.6650   19.6350 O.3   187  NAP187     -0.3327
     31  C3D        5.1010    3.9880   20.3040 C.3   187  NAP187      0.2158
     32  O3D        5.0970    3.4330   21.6250 O.3   187  NAP187     -0.2175
     33  C2D        5.0240    2.8840   19.2410 C.3   187  NAP187      0.2309
     34  O2D        5.9010    1.7780   19.5630 O.3   187  NAP187     -0.2158
     35  C1D        3.5460    2.4590   19.3800 C.3   187  NAP187      0.2263
     36  N1N        2.8800    1.9110   18.1670 N.pl3 187  NAP187     -0.2787
     37  C2N        2.2100    0.6720   18.3240 C.3   187  NAP187      0.1244
     38  C3N        1.5430    0.1080   17.2380 C.2   187  NAP187      0.0544
     39  C7N        0.8090   -1.2200   17.4020 C.2   187  NAP187      0.2818
     40  O7N        0.1300   -1.6290   16.4810 O.2   187  NAP187     -0.2670
     41  N7N        0.9550   -1.8920   18.5500 N.am  187  NAP187     -0.0839
     42  C4N        1.5400    0.7880   15.9900 C.2   187  NAP187      0.0033
     43  C5N        2.1960    2.0270   15.8300 C.2   187  NAP187      0.0157
     44  C6N        2.8510    2.6110   16.9210 C.2   187  NAP187      0.0633
     45  P2B        4.8500   16.4120   15.6780 P.3   187  NAP187      0.5328
     46  O1X        4.0470   17.6080   15.0850 O.3   187  NAP187     -0.1145
     47  O2X        6.1350   16.2220   14.8780 O.2   187  NAP187     -0.2224
     48  O3X        4.9390   16.4560   17.1710 O.3   187  NAP187     -0.1145
@<TRIPOS>BOND
     1    19    20    1
     2    19    17    2
     3    20    21    1
     4    18    17    1
     5    17    16    1
     6    21    22    2
     7    16    22    1
     8    16    15    2
     9    22    13    1
    10    15    14    1
    11    13    12    1
    12    13    14    1
    13    12     7    1
    14    12    10    1
    15    47    45    2
    16     7     6    1
    17    46    45    1
    18    11    10    1
    19    11    45    1
    20    10     8    1
    21    45    48    1
    22    43    42    1
    23    43    44    2
    24    42    38    2
    25     2     1    2
    26    40    39    2
    27     6     8    1
    28     6     5    1
    29     3     1    1
    30     4     1    1
    31     4     5    1
    32     1    23    1
    33     8     9    1
    34    44    36    1
    35    38    39    1
    36    38    37    1
    37    39    41   am
    38    36    37    1
    39    36    35    1
    40    23    24    1
    41    27    28    1
    42    27    24    1
    43    28    29    1
    44    33    35    1
    45    33    34    1
    46    33    31    1
    47    35    30    1
    48    24    25    2
    49    24    26    1
    50    30    29    1
    51    29    31    1
    52    31    32    1
