@<TRIPOS>MOLECULE
3d87_MAN_D_1.pdb
 11 11 0 0 0
SMALL
GASTEIGER

@<TRIPOS>ATOM
      1  C1         4.7080   17.3870   40.8540 C.3   1281  MAN1281     0.1777
      2  C2         4.9890   15.8960   41.2280 C.3   1281  MAN1281     0.2141
      3  C3         6.0270   15.2250   40.2570 C.3   1281  MAN1281     0.2173
      4  C4         6.1010   15.7960   38.7730 C.3   1281  MAN1281     0.2142
      5  C5         5.6210   17.2870   38.6230 C.3   1281  MAN1281     0.1810
      6  C6         5.4760   17.7730   37.1340 C.3   1281  MAN1281     0.2141
      7  O2         3.7780   15.1060   41.4700 O.3   1281  MAN1281    -0.2176
      8  O3         5.9450   13.7770   40.3040 O.3   1281  MAN1281    -0.2175
      9  O4         7.4040   15.5840   38.1650 O.3   1281  MAN1281    -0.2176
     10  O5         4.4460   17.5840   39.4440 O.3   1281  MAN1281    -0.3481
     11  O6         4.6690   18.9800   36.9440 O.3   1281  MAN1281    -0.2176
@<TRIPOS>BOND
     1    11     6    1
     2     6     5    1
     3     9     4    1
     4     5     4    1
     5     5    10    1
     6     4     3    1
     7    10     1    1
     8     3     8    1
     9     3     2    1
    10     1     2    1
    11     2     7    1
