@<TRIPOS>MOLECULE
3d8b_ADP_A_1.pdb
 27 29 0 0 0
SMALL
GASTEIGER

@<TRIPOS>ATOM
      1  PB       -51.5050   -5.1540   13.5580 P.3   900  ADP900      0.5373
      2  O1B      -51.9390   -6.5810   13.8260 O.3   900  ADP900     -0.1143
      3  O2B      -51.7160   -4.2690   14.7210 O.3   900  ADP900     -0.1143
      4  O3B      -51.9340   -4.5310   12.2440 O.2   900  ADP900     -0.2221
      5  PA       -48.8190   -4.9260   12.4330 P.3   900  ADP900      0.2231
      6  O1A      -48.8610   -5.8120   11.2390 O.2   900  ADP900     -0.5169
      7  O2A      -48.9760   -3.4490   12.3700 O.3   900  ADP900     -0.4370
      8  O3A      -49.9180   -5.4010   13.5030 O.3   900  ADP900     -0.2261
      9  O5'      -47.5020   -5.3070   13.2900 O.3   900  ADP900     -0.3111
     10  C5'      -46.5240   -4.3430   13.6710 C.3   900  ADP900      0.1813
     11  C4'      -45.1460   -4.9330   13.4710 C.3   900  ADP900      0.1821
     12  O4'      -45.0170   -6.0320   14.3970 O.3   900  ADP900     -0.3135
     13  C3'      -44.9230   -5.5270   12.0820 C.3   900  ADP900      0.2184
     14  O3'      -44.4960   -4.5870   11.0930 O.3   900  ADP900     -0.2174
     15  C2'      -43.8970   -6.5820   12.3880 C.3   900  ADP900      0.2570
     16  O2'      -42.5910   -5.9940   12.4810 O.3   900  ADP900     -0.2130
     17  C1'      -44.2930   -7.0770   13.7760 C.3   900  ADP900      0.3186
     18  N9       -45.1800   -8.2370   13.6330 N.pl3 900  ADP900     -0.1439
     19  C8       -46.4800   -8.2720   13.9860 C.3   900  ADP900      0.3377
     20  N7       -47.0030   -9.4780   13.7090 N.2   900  ADP900     -0.2095
     21  C5       -46.0380  -10.2430   13.1930 C.2   900  ADP900      0.2526
     22  C6       -45.9600  -11.6180   12.7220 C.2   900  ADP900      0.4393
     23  N6       -47.0710  -12.4010   12.7620 N.pl3 900  ADP900      0.2180
     24  N1       -44.7890  -12.0580   12.2560 N.2   900  ADP900      0.0021
     25  C2       -43.6920  -11.2650   12.2290 C.3   900  ADP900      0.5254
     26  N3       -43.6910   -9.9880   12.6710 N.2   900  ADP900     -0.0055
     27  C4       -44.8140   -9.4340   13.1680 C.2   900  ADP900      0.3518
@<TRIPOS>BOND
     1    14    13    1
     2     6     5    2
     3    13    15    1
     4    13    11    1
     5    25    24    1
     6    25    26    1
     7     4     1    2
     8    24    22    2
     9     7     5    1
    10    15    16    1
    11    15    17    1
    12     5     9    1
    13     5     8    1
    14    26    27    2
    15    22    23    1
    16    22    21    1
    17    27    21    1
    18    27    18    1
    19    21    20    2
    20     9    10    1
    21    11    10    1
    22    11    12    1
    23     8     1    1
    24     1     2    1
    25     1     3    1
    26    18    17    1
    27    18    19    1
    28    20    19    1
    29    17    12    1
