@<TRIPOS>MOLECULE
3d8c_AKG_A_1.pdb
 10 9 0 0 0
SMALL
GASTEIGER

@<TRIPOS>ATOM
      1  C1        22.4680   25.1760   27.9970 C.2   1351  AKG1351     0.4219
      2  O1        22.3660   24.0840   27.4500 O.co2 1351  AKG1351    -0.2373
      3  O2        23.5630   25.7370   28.0210 O.co2 1351  AKG1351    -0.2373
      4  C2        21.2600   25.8350   28.6710 C.2   1351  AKG1351     0.2526
      5  O5        21.4370   26.8910   29.2750 O.2   1351  AKG1351    -0.2843
      6  C3        19.9920   25.2640   28.5580 C.3   1351  AKG1351     0.0881
      7  C4        18.9610   25.6820   29.3910 C.3   1351  AKG1351     0.1224
      8  C5        17.5620   25.4010   28.8310 C.2   1351  AKG1351     0.3653
      9  O3        16.5650   25.8560   29.3930 O.co2 1351  AKG1351    -0.2456
     10  O4        17.3880   24.7210   27.8220 O.co2 1351  AKG1351    -0.2456
@<TRIPOS>BOND
     1     2     1   ar
     2    10     8   ar
     3     1     3   ar
     4     1     4    1
     5     6     4    1
     6     6     7    1
     7     4     5    2
     8     8     7    1
     9     8     9   ar
