@<TRIPOS>MOLECULE
3d8g_THP_A_1.pdb
 25 26 0 0 0
SMALL
GASTEIGER

@<TRIPOS>ATOM
      1  P2        -1.9290  -17.4010  -14.3570 P.3   151  THP151      0.5327
      2  O4P       -0.7690  -18.3130  -14.0640 O.2   151  THP151     -0.2224
      3  O5P       -1.6780  -15.9480  -14.0060 O.3   151  THP151     -0.1145
      4  O6P       -3.2570  -17.9210  -13.8710 O.3   151  THP151     -0.1145
      5  P1        -5.5950  -20.3830  -19.3430 P.3   151  THP151      0.5326
      6  O1P       -4.9280  -21.7030  -19.0620 O.3   151  THP151     -0.1145
      7  O2P       -6.2400  -19.7100  -18.1620 O.3   151  THP151     -0.1145
      8  O3P       -6.4670  -20.3610  -20.5680 O.2   151  THP151     -0.2224
      9  O5'       -2.0360  -17.3540  -15.9630 O.3   151  THP151     -0.2675
     10  C5'       -2.2070  -18.5200  -16.7700 C.3   151  THP151      0.1857
     11  C4'       -3.0950  -18.1910  -17.9700 C.3   151  THP151      0.1748
     12  O4'       -2.5690  -17.0630  -18.6800 O.3   151  THP151     -0.3340
     13  C3'       -3.1580  -19.3390  -18.9660 C.3   151  THP151      0.1600
     14  O3'       -4.4050  -19.3530  -19.6650 O.3   151  THP151     -0.2700
     15  C2'       -2.1410  -18.9550  -20.0160 C.3   151  THP151      0.0847
     16  C1'       -2.1600  -17.4340  -19.9940 C.3   151  THP151      0.2089
     17  N1        -0.8300  -16.9410  -20.3390 N.am  151  THP151     -0.1794
     18  C2        -0.5690  -16.5440  -21.6800 C.1   151  THP151      0.2844
     19  O2        -1.4620  -16.5970  -22.5510 O.2   151  THP151     -0.1918
     20  N3         0.6360  -16.0910  -22.0430 N.2   151  THP151     -0.2455
     21  C4         1.6380  -16.0140  -21.1550 C.1   151  THP151      0.2134
     22  O4         2.7530  -15.5960  -21.5210 O.2   151  THP151     -0.2088
     23  C5         1.4030  -16.4190  -19.7460 C.2   151  THP151      0.0891
     24  C5M        2.5050  -16.3330  -18.7210 C.3   151  THP151      0.0462
     25  C6         0.1350  -16.8750  -19.3980 C.2   151  THP151      0.0877
@<TRIPOS>BOND
     1    19    18    2
     2    20    18    2
     3    20    21    2
     4    18    17   am
     5    22    21    2
     6    21    23    1
     7     8     5    2
     8    17    16    1
     9    17    25    1
    10    15    16    1
    11    15    13    1
    12    16    12    1
    13    23    25    2
    14    23    24    1
    15    14     5    1
    16    14    13    1
    17     5     6    1
    18     5     7    1
    19    13    11    1
    20    12    11    1
    21    11    10    1
    22    10     9    1
    23     9     1    1
    24     1     2    2
    25     1     3    1
    26     1     4    1
