@<TRIPOS>MOLECULE
3d8v_UD1_A_1.pdb
 39 41 0 0 0
SMALL
GASTEIGER

@<TRIPOS>ATOM
      1  C1'       30.0920  -32.2170   39.7500 C.3   496  UD1496      0.2633
      2  C2'       29.8490  -32.3220   41.2510 C.3   496  UD1496      0.1845
      3  C3'       31.1600  -32.0960   41.9860 C.3   496  UD1496      0.2094
      4  C4'       32.1880  -33.1010   41.4840 C.3   496  UD1496      0.2136
      5  C5'       32.3390  -33.0200   39.9610 C.3   496  UD1496      0.1834
      6  C6'       33.2990  -34.0860   39.4290 C.3   496  UD1496      0.2142
      7  C7'       27.6020  -31.5890   41.7670 C.2   496  UD1496      0.2420
      8  C8'       27.2080  -32.9220   41.2380 C.3   496  UD1496      0.0964
      9  N2'       28.8960  -31.3120   41.6480 N.am  496  UD1496     -0.1992
     10  O1'       30.6310  -30.9260   39.4920 O.3   496  UD1496     -0.2864
     11  O3'       30.9860  -32.2440   43.3980 O.3   496  UD1496     -0.2183
     12  O4'       33.4260  -32.8390   42.1490 O.3   496  UD1496     -0.2176
     13  O5'       31.0510  -33.1990   39.3560 O.3   496  UD1496     -0.3260
     14  O6'       33.7050  -33.7650   38.0890 O.3   496  UD1496     -0.2176
     15  O7'       26.7950  -30.8220   42.2740 O.2   496  UD1496     -0.2733
     16  N1        24.8210  -32.8640   34.3950 N.am  496  UD1496     -0.1766
     17  C2        23.5600  -33.1620   33.8410 C.1   496  UD1496      0.2845
     18  N3        22.5210  -32.3510   34.0710 N.2   496  UD1496     -0.2452
     19  C4        22.6560  -31.2590   34.8350 C.1   496  UD1496      0.2182
     20  C5        23.8920  -30.9480   35.4010 C.2   496  UD1496      0.1242
     21  C6        24.9850  -31.7830   35.1630 C.2   496  UD1496      0.0929
     22  O2        23.4310  -34.1900   33.1290 O.2   496  UD1496     -0.1918
     23  O4        21.6640  -30.5240   35.0450 O.2   496  UD1496     -0.2085
     24  C1B       25.9160  -33.7810   34.1070 C.3   496  UD1496      0.2401
     25  C2B       27.0330  -33.1390   33.2990 C.3   496  UD1496      0.2319
     26  O2'       26.8330  -33.2880   31.8880 O.3   496  UD1496     -0.2157
     27  C3B       28.2350  -33.9400   33.7480 C.3   496  UD1496      0.2158
     28  C4B       27.9080  -34.3570   35.1750 C.3   496  UD1496      0.1799
     29  O4B       26.4910  -34.2520   35.3250 O.3   496  UD1496     -0.3320
     30  O3B       28.3540  -35.0970   32.9130 O.3   496  UD1496     -0.2175
     31  C5B       28.5060  -33.3610   36.1450 C.3   496  UD1496      0.1813
     32  O5B       28.1170  -32.1140   35.5790 O.3   496  UD1496     -0.3112
     33  PA        29.0540  -30.8490   35.8070 P.3   496  UD1496      0.2189
     34  O1A       28.2790  -29.5680   35.5880 O.3   496  UD1496     -0.4371
     35  O2A       30.2740  -31.2070   34.9970 O.2   496  UD1496     -0.5170
     36  O3A       29.3580  -31.0480   37.3690 O.3   496  UD1496     -0.2703
     37  PB        30.5320  -30.2160   38.0580 P.3   496  UD1496      0.2208
     38  O1B       30.0590  -28.7960   38.2700 O.3   496  UD1496     -0.4371
     39  O2B       31.8360  -30.5100   37.3260 O.2   496  UD1496     -0.5170
@<TRIPOS>BOND
     1    26    25    1
     2    30    27    1
     3    22    17    2
     4    25    27    1
     5    25    24    1
     6    27    28    1
     7    17    18    2
     8    17    16   am
     9    18    19    2
    10    24    16    1
    11    24    29    1
    12    16    21    1
    13    19    23    2
    14    19    20    1
    15    35    33    2
    16    21    20    2
    17    28    29    1
    18    28    31    1
    19    32    33    1
    20    32    31    1
    21    34    33    1
    22    33    36    1
    23    39    37    2
    24    36    37    1
    25    37    38    1
    26    37    10    1
    27    14     6    1
    28    13     1    1
    29    13     5    1
    30     6     5    1
    31    10     1    1
    32     1     2    1
    33     5     4    1
    34     8     7    1
    35     2     9    1
    36     2     3    1
    37     4     3    1
    38     4    12    1
    39     9     7   am
    40     7    15    2
    41     3    11    1
