@<TRIPOS>MOLECULE
3d8w_D8W_A_1.pdb
 19 20 0 0 0
SMALL
GASTEIGER

@<TRIPOS>ATOM
      1  C1        -3.7480    7.2170   14.9300 C.ar  301  D8W301      0.0202
      2  C2        -2.6520    8.0100   15.2590 C.ar  301  D8W301      0.0014
      3  C3        -1.8770    8.5300   14.2250 C.ar  301  D8W301      0.0001
      4  C4        -2.1710    8.2920   12.8860 C.ar  301  D8W301      0.0014
      5  C5        -3.2660    7.4850   12.5570 C.ar  301  D8W301      0.0202
      6  C6        -4.0140    6.9550   13.5950 C.ar  301  D8W301      0.1271
      7  S1        -5.3140    6.0650   13.2440 S.O2  301  D8W301      0.0947
      8  O1        -6.2340    6.2910   14.3440 O.2   301  D8W301     -0.1482
      9  O2        -5.9170    6.5480   11.9750 O.2   301  D8W301     -0.1482
     10  N1        -4.7700    4.6710   13.0150 N.pl3 301  D8W301     -0.0684
     11  C7        -4.7940    3.6140   13.8680 C.ar  301  D8W301      0.2253
     12  S2        -5.9290    3.4400   15.1330 S.2   301  D8W301     -0.0075
     13  N2        -3.9190    2.5820   13.7980 N.ar  301  D8W301     -0.1209
     14  N3        -4.1670    1.6230   14.8170 N.ar  301  D8W301     -0.1188
     15  C8        -5.2090    1.9380   15.6060 C.ar  301  D8W301      0.2591
     16  S3        -5.9160    0.9030   16.7060 S.O2  301  D8W301      0.1178
     17  O3        -5.3520    1.2210   17.9840 O.2   301  D8W301     -0.1483
     18  O4        -7.3050    1.1480   16.6630 O.2   301  D8W301     -0.1483
     19  N4        -5.5330   -0.5790   16.2990 N.3   301  D8W301      0.0413
@<TRIPOS>BOND
     1     9     7    2
     2     5     4   ar
     3     5     6   ar
     4     4     3   ar
     5    10     7    1
     6    10    11    1
     7     7     6    1
     8     7     8    2
     9     6     1   ar
    10    13    11   ar
    11    13    14   ar
    12    11    12   ar
    13     3     2   ar
    14    14    15   ar
    15     1     2   ar
    16    12    15   ar
    17    15    16    1
    18    19    16    1
    19    18    16    2
    20    16    17    2
