@<TRIPOS>MOLECULE
3d8y_T3S_A_1.pdb
 22 24 0 0 0
SMALL
GASTEIGER

@<TRIPOS>ATOM
      1  C21       42.2270   -1.7160   14.7530 C.3   127  T3S127      0.0722
      2  C22       43.1250   -2.8800   15.2050 C.3   127  T3S127      0.0174
      3  C23       42.6620   -4.2360   14.6330 C.3   127  T3S127      0.0029
      4  C24       41.9140   -4.1070   13.2930 C.3   127  T3S127      0.0174
      5  C25       40.7510   -3.0930   13.3500 C.3   127  T3S127      0.0722
      6  N26       40.8450   -2.1940   14.5310 N.3   127  T3S127     -0.2706
      7  C5'       39.8820   -1.0510   14.5420 C.3   127  T3S127      0.1047
      8  C4'       39.4700   -0.4660   13.1450 C.3   127  T3S127      0.1633
      9  O4'       38.7200   -1.3620   12.2590 O.3   127  T3S127     -0.3351
     10  C3'       38.5110    0.6850   13.4210 C.3   127  T3S127      0.1846
     11  O3'       38.5910    1.6270   12.3400 O.3   127  T3S127     -0.2203
     12  C2'       37.1380    0.0070   13.3960 C.3   127  T3S127      0.0874
     13  C1'       37.3150   -0.9370   12.2130 C.3   127  T3S127      0.2089
     14  N1        36.4730   -2.1580   12.2900 N.am  127  T3S127     -0.1794
     15  C6        36.8630   -3.2190   13.1310 C.2   127  T3S127      0.0877
     16  C5        36.0960   -4.3810   13.2120 C.2   127  T3S127      0.0891
     17  C5M       36.5530   -5.5170   14.1380 C.3   127  T3S127      0.0462
     18  C4        34.9300   -4.4880   12.4450 C.1   127  T3S127      0.2134
     19  O4        34.2250   -5.4980   12.4940 O.2   127  T3S127     -0.2088
     20  N3        34.5370   -3.4370   11.6020 N.2   127  T3S127     -0.2455
     21  C2        35.3000   -2.2630   11.5130 C.1   127  T3S127      0.2844
     22  O2        34.9280   -1.3460   10.7770 O.2   127  T3S127     -0.1918
@<TRIPOS>BOND
     1    22    21    2
     2    21    20    2
     3    21    14   am
     4    20    18    2
     5    13     9    1
     6    13    14    1
     7    13    12    1
     8     9     8    1
     9    14    15    1
    10    11    10    1
    11    18    19    2
    12    18    16    1
    13    15    16    2
    14     8    10    1
    15     8     7    1
    16    16    17    1
    17     4     5    1
    18     4     3    1
    19     5     6    1
    20    12    10    1
    21     6     7    1
    22     6     1    1
    23     3     2    1
    24     1     2    1
