@<TRIPOS>MOLECULE
3d8z_TXS_A_1.pdb
 21 23 0 0 0
SMALL
GASTEIGER

@<TRIPOS>ATOM
      1  C21       41.9880    0.3830   15.0870 C.3   125  TXS125      0.0722
      2  C22       42.9030   -0.4170   16.0330 C.3   125  TXS125      0.0188
      3  C23       42.6800   -1.8880   15.6540 C.3   125  TXS125      0.0188
      4  C24       41.8290   -1.8330   14.3850 C.3   125  TXS125      0.0722
      5  N25       41.0320   -0.6040   14.5520 N.3   125  TXS125     -0.2706
      6  C5'       40.5490   -0.1410   13.2450 C.3   125  TXS125      0.1047
      7  C4'       39.0590   -0.4750   13.1820 C.3   125  TXS125      0.1633
      8  O4'       38.6530   -1.4030   12.1450 O.3   125  TXS125     -0.3351
      9  C3'       38.1450    0.7510   12.9360 C.3   125  TXS125      0.1846
     10  O3'       37.6880    1.2010   14.2160 O.3   125  TXS125     -0.2203
     11  C2'       36.9720    0.1420   12.1460 C.3   125  TXS125      0.0874
     12  C1'       37.2720   -1.3060   12.5220 C.3   125  TXS125      0.2089
     13  N1        36.3800   -2.4790   12.3410 N.am  125  TXS125     -0.1794
     14  C6        36.7350   -3.5750   13.1390 C.2   125  TXS125      0.0877
     15  C5        35.9840   -4.7380   13.1210 C.2   125  TXS125      0.0891
     16  C5M       36.4390   -5.8960   13.9990 C.3   125  TXS125      0.0462
     17  C4        34.8510   -4.8150   12.3110 C.1   125  TXS125      0.2134
     18  O4        34.1760   -5.8420   12.2850 O.2   125  TXS125     -0.2088
     19  N3        34.4710   -3.7170   11.5150 N.2   125  TXS125     -0.2455
     20  C2        35.2290   -2.5290   11.5260 C.1   125  TXS125      0.2844
     21  O2        34.8850   -1.5780   10.8300 O.2   125  TXS125     -0.1918
@<TRIPOS>BOND
     1    21    20    2
     2    19    20    2
     3    19    17    2
     4    20    13   am
     5     8    12    1
     6     8     7    1
     7    11    12    1
     8    11     9    1
     9    18    17    2
    10    17    15    1
    11    13    12    1
    12    13    14    1
    13     9     7    1
    14     9    10    1
    15    15    14    2
    16    15    16    1
    17     7     6    1
    18     6     5    1
    19     4     5    1
    20     4     3    1
    21     5     1    1
    22     1     2    1
    23     3     2    1
