@<TRIPOS>MOLECULE
3d90_NOG_A_1.pdb
 23 26 0 0 0
SMALL
GASTEIGER

@<TRIPOS>ATOM
      1  C1        -4.8860   -8.5980   28.5720 C.3   1001  NOG1001     0.0121
      2  C2        -4.9260   -8.9990   30.0690 C.3   1001  NOG1001     0.0695
      3  C3        -4.0160  -10.3760   30.2770 C.2   1001  NOG1001     0.1725
      4  C4        -2.7840  -10.6380   29.5590 C.2   1001  NOG1001     0.0290
      5  C5        -2.4500   -9.7140   28.5190 C.2   1001  NOG1001    -0.0417
      6  C6        -1.0260   -9.9850   27.8390 C.3   1001  NOG1001     0.0221
      7  C7        -0.8420   -9.7060   26.3640 C.3   1001  NOG1001     0.0044
      8  C8        -1.6680   -8.4450   25.8010 C.3   1001  NOG1001     0.0007
      9  C9        -3.2140   -8.2700   26.4670 C.3   1001  NOG1001     0.0037
     10  C10       -3.3630   -8.5230   27.9640 C.3   1001  NOG1001     0.0188
     11  C11       -4.1750   -7.2030   25.8290 C.3   1001  NOG1001     0.0004
     12  C12       -3.9600   -6.9480   24.3700 C.3   1001  NOG1001     0.0024
     13  C13       -2.3660   -6.8230   23.7430 C.3   1001  NOG1001     0.0259
     14  C14       -1.5160   -8.1230   24.2630 C.3   1001  NOG1001     0.0024
     15  C15       -0.2280   -8.2240   23.3660 C.3   1001  NOG1001     0.0026
     16  C16       -0.5750   -7.4420   22.0260 C.3   1001  NOG1001     0.0304
     17  C17       -2.1420   -6.9290   22.1320 C.3   1001  NOG1001     0.1265
     18  C18       -1.6770   -5.4790   24.3900 C.3   1001  NOG1001     0.0024
     19  C19       -2.5540   -4.1300   24.2380 C.3   1001  NOG1001     0.0001
     20  C20       -3.2530   -7.8930   21.5730 C.3   1001  NOG1001     0.0304
     21  C21       -4.3420   -8.8920   21.1950 C.3   1001  NOG1001     0.0026
     22  O3        -4.2840  -11.2270   31.1220 O.2   1001  NOG1001    -0.2914
     23  O17       -2.3750   -5.8520   21.4050 O.3   1001  NOG1001    -0.2257
@<TRIPOS>BOND
     1    21    20    1
     2    23    17    1
     3    20    17    1
     4    16    17    1
     5    16    15    1
     6    17    13    1
     7    15    14    1
     8    13    14    1
     9    13    12    1
    10    13    18    1
    11    19    18    1
    12    14     8    1
    13    12    11    1
    14     8     7    1
    15     8     9    1
    16    11     9    1
    17     7     6    1
    18     9    10    1
    19     6     5    1
    20    10     5    1
    21    10     1    1
    22     5     4    2
    23     1     2    1
    24     4     3    1
    25     2     3    1
    26     3    22    2
