@<TRIPOS>MOLECULE
3d91_REM_A_1.pdb
 44 47 0 0 0
SMALL
GASTEIGER

@<TRIPOS>ATOM
      1  O41       -0.7120    2.4160   -8.5340 O.2   350  REM350     -0.1731
      2  S38        0.5450    2.8230   -7.9670 S.O2  350  REM350     -0.0127
      3  O40        0.8920    1.9090   -6.9370 O.2   350  REM350     -0.1731
      4  C39        1.8020    2.7610   -9.0760 C.3   350  REM350      0.1108
      5  C44        3.1720    2.7680   -8.3870 C.3   350  REM350      0.0236
      6  C43        1.7560    3.9310  -10.0640 C.3   350  REM350      0.0236
      7  C42        1.6600    1.4730   -9.8610 C.3   350  REM350      0.0236
      8  C37        0.2970    4.3810   -7.4060 C.3   350  REM350      0.1601
      9  C1        -0.8670    4.5970   -6.4120 C.3   350  REM350      0.1061
     10  C4        -0.8190    6.0240   -5.8690 C.3   350  REM350      0.0373
     11  C5         0.4240    6.2650   -5.0360 C.ar  350  REM350     -0.0216
     12  C7         0.3630    6.1090   -3.6620 C.ar  350  REM350     -0.0043
     13  C9         1.5000    6.3480   -2.9190 C.ar  350  REM350     -0.0003
     14  C10        2.6800    6.7380   -3.5220 C.ar  350  REM350     -0.0000
     15  C8         2.7450    6.8790   -4.8850 C.ar  350  REM350     -0.0003
     16  C6         1.6100    6.6460   -5.6390 C.ar  350  REM350     -0.0043
     17  C2        -2.2160    4.5790   -7.0220 C.2   350  REM350      0.2434
     18  O3        -2.4010    4.9620   -8.1720 O.2   350  REM350     -0.2733
     19  N11       -3.1750    4.1090   -6.2320 N.am  350  REM350     -0.1973
     20  C12       -4.5450    4.0370   -6.7010 C.3   350  REM350      0.1786
     21  C15       -4.7460    2.6420   -7.2460 C.3   350  REM350      0.0781
     22  C16       -5.9630    2.5980   -8.1290 C.2   350  REM350      0.0769
     23  C18       -6.0110    2.5050   -9.4500 C.2   350  REM350      0.1098
     24  N20       -7.2130    2.4700   -9.9470 N.2   350  REM350     -0.2415
     25  C19       -8.0240    2.5580   -8.8550 C.3   350  REM350      0.2505
     26  N17       -7.2360    2.6230   -7.7560 N.2   350  REM350     -0.2470
     27  C13       -5.3800    4.2420   -5.5050 C.2   350  REM350      0.2616
     28  O14       -5.5070    3.3220   -4.7110 O.2   350  REM350     -0.2715
     29  N24       -5.9100    5.4730   -5.3510 N.am  350  REM350     -0.2030
     30  C21       -6.6730    5.7840   -4.1590 C.3   350  REM350      0.1282
     31  C22       -8.1830    5.7650   -4.4300 C.3   350  REM350      0.2018
     32  O25       -8.4830    6.7330   -5.3880 O.3   350  REM350     -0.2186
     33  C23       -8.7130    4.4200   -5.0160 C.3   350  REM350      0.1838
     34  C34      -10.2300    4.2550   -4.9540 C.3   350  REM350      0.0331
     35  C36      -11.0300    4.9520   -6.0500 C.3   350  REM350      0.0027
     36  C35      -10.7920    3.4470   -6.1540 C.3   350  REM350      0.0027
     37  O26       -8.2020    3.5190   -4.0760 O.3   350  REM350     -0.2204
     38  C27       -6.1200    7.1700   -3.8250 C.3   350  REM350      0.0244
     39  C28       -4.6950    7.1450   -3.2860 C.3   350  REM350      0.0018
     40  C33       -4.4040    8.5190   -2.6700 C.3   350  REM350      0.0001
     41  C32       -2.8840    8.6070   -2.5010 C.3   350  REM350      0.0000
     42  C31       -2.2990    7.4520   -1.6730 C.3   350  REM350      0.0000
     43  C30       -2.9480    6.0550   -1.8460 C.3   350  REM350      0.0000
     44  C29       -4.4390    6.0850   -2.1970 C.3   350  REM350      0.0001
@<TRIPOS>BOND
     1     6     4    1
     2    24    23    2
     3    24    25    1
     4     7     4    1
     5    23    22    1
     6     4     5    1
     7     4     2    1
     8    25    26    1
     9     1     2    2
    10    18    17    2
    11    22    26    2
    12    22    21    1
    13     2     8    1
    14     2     3    2
    15     8     9    1
    16    21    20    1
    17    17     9    1
    18    17    19   am
    19    20    19    1
    20    20    27    1
    21     9    10    1
    22    36    35    1
    23    36    34    1
    24    35    34    1
    25    10    11    1
    26    16    11   ar
    27    16    15   ar
    28    27    29   am
    29    27    28    2
    30    32    31    1
    31    29    30    1
    32    11    12   ar
    33    33    34    1
    34    33    31    1
    35    33    37    1
    36    15    14   ar
    37    31    30    1
    38    30    38    1
    39    38    39    1
    40    12    13   ar
    41    14    13   ar
    42    39    40    1
    43    39    44    1
    44    40    41    1
    45    41    42    1
    46    44    43    1
    47    43    42    1
