@<TRIPOS>MOLECULE
3d94_D94_A_1.pdb
 37 43 0 0 0
SMALL
GASTEIGER

@<TRIPOS>ATOM
      1  N5        25.4110   13.5940   -7.6470 N.pl3   1  D941        0.2134
      2  C3        24.5920   13.5810   -6.5360 C.2     1  D941        0.4170
      3  C4        24.2220   14.8190   -5.8410 C.3     1  D941        0.2460
      4  N2        23.4050   14.7300   -4.7190 N.pl3   1  D941       -0.2466
      5  C2        22.9520   13.4880   -4.2750 C.2     1  D941        0.1189
      6  C1        23.3360   12.3950   -4.9700 C.2     1  D941        0.2518
      7  N1        24.1530   12.4190   -6.0860 N.2     1  D941       -0.0294
      8  C5        23.1950   16.0030   -4.2520 C.2     1  D941        0.1638
      9  C22       22.3500   16.3460   -3.0250 C.3     1  D941        0.0699
     10  C23       22.1470   17.8370   -2.6380 C.3     1  D941        0.0244
     11  C24       22.1160   17.2840   -1.1870 C.3     1  D941        0.0585
     12  N6        22.4270   18.2710   -0.1040 N.3     1  D941       -0.2716
     13  C26       22.2820   19.7040   -0.4220 C.3     1  D941        0.0896
     14  C27       22.3280   20.5830    0.8250 C.3     1  D941        0.0897
     15  N7        23.6150   20.3230    1.5740 N.3     1  D941       -0.2691
     16  C30       23.6940   21.1880    2.8030 C.3     1  D941        0.0897
     17  C28       23.8600   18.8530    1.8580 C.3     1  D941        0.0897
     18  C29       23.7000   17.9910    0.5990 C.3     1  D941        0.0896
     19  C25       23.1790   16.2950   -1.7100 C.3     1  D941        0.0244
     20  N3        23.8300   16.8880   -5.0040 N.2     1  D941       -0.3935
     21  C6        24.4580   16.1760   -6.0040 C.2     1  D941        0.1372
     22  C7        25.3340   16.8980   -6.8990 C.2     1  D941        0.0126
     23  C8        25.0300   18.1480   -7.4770 C.3     1  D941        0.0875
     24  C12       25.9680   18.8360   -8.2660 C.2     1  D941        0.1134
     25  C11       27.2750   18.2740   -8.4140 C.2     1  D941        0.0258
     26  C9        27.6120   17.0500   -7.7860 C.2     1  D941        0.0020
     27  C10       26.6420   16.4030   -7.0190 C.2     1  D941       -0.0015
     28  N4        25.6130   20.0080   -8.8560 N.2     1  D941       -0.4059
     29  C13       26.5490   20.6850   -9.6020 C.2     1  D941        0.1310
     30  C14       27.8420   20.1790   -9.7920 C.2     1  D941        0.0321
     31  C15       28.2070   18.9680   -9.1950 C.2     1  D941        0.0048
     32  C16       26.0940   21.9370  -10.2520 C.ar    1  D941        0.0296
     33  C17       26.8600   23.1160  -10.2980 C.ar    1  D941        0.0025
     34  C18       26.3910   24.2580  -10.9590 C.ar    1  D941        0.0001
     35  C19       25.1430   24.2420  -11.5940 C.ar    1  D941        0.0000
     36  C20       24.3670   23.0950  -11.5630 C.ar    1  D941        0.0001
     37  C21       24.8490   21.9580  -10.9160 C.ar    1  D941        0.0025
@<TRIPOS>BOND
     1    35    36   ar
     2    35    34   ar
     3    36    37   ar
     4    34    33   ar
     5    37    32   ar
     6    33    32   ar
     7    32    29    1
     8    30    29    1
     9    30    31    2
    10    29    28    2
    11    31    25    1
    12    28    24    2
    13    25    24    1
    14    25    26    2
    15    24    23    1
    16    26    27    1
    17     1     2    1
    18    23    22    1
    19    27    22    2
    20    22    21    1
    21     2     7    2
    22     2     3    1
    23     7     6    1
    24    21     3    1
    25    21    20    2
    26     3     4    1
    27    20     8    2
    28     6     5    2
    29     4     5    1
    30     4     8    1
    31     8     9    1
    32     9    10    1
    33     9    19    1
    34    10    11    1
    35    19    11    1
    36    11    12    1
    37    13    12    1
    38    13    14    1
    39    12    18    1
    40    18    17    1
    41    14    15    1
    42    15    17    1
    43    15    16    1
