@<TRIPOS>MOLECULE
3d9c_ZYZ_A_1.pdb
 22 22 0 0 0
SMALL
GASTEIGER

@<TRIPOS>ATOM
      1 SE         -1.8900   60.0720    8.1080 Se    322  ZYZ322      0.0000
      2  C1        -1.7510   58.8370    6.5770 C.3   322  ZYZ322      0.0000
      3  N1        -3.2850   62.8970   -0.0550 N.am  322  ZYZ322      0.0000
      4  C2        -1.7200   59.5340    5.2370 C.ar  322  ZYZ322      0.0000
      5  C3        -0.9470   60.7180    5.0590 C.ar  322  ZYZ322      0.0000
      6  O3        -1.5480   64.3420    2.8520 O.2   322  ZYZ322      0.0000
      7  C4        -0.9100   61.3740    3.8060 C.ar  322  ZYZ322      0.0000
      8  O4        -1.9060   64.9960    0.6650 O.3   322  ZYZ322      0.0000
      9  C5        -1.6440   60.8790    2.6800 C.ar  322  ZYZ322      0.0000
     10  O5        -3.1680   61.5730   -1.8490 O.2   322  ZYZ322      0.0000
     11  C6        -2.4220   59.6920    2.8510 C.ar  322  ZYZ322      0.0000
     12  O6        -1.6700   63.3150   -1.7830 O.3   322  ZYZ322      0.0000
     13  C7        -2.4580   59.0290    4.1150 C.ar  322  ZYZ322      0.0000
     14  C8        -1.5900   61.6070    1.3500 C.3   322  ZYZ322      0.0000
     15  C9        -2.6290   62.7750    1.2900 C.3   322  ZYZ322      0.0000
     16  C10       -1.9630   64.1150    1.7190 C.2   322  ZYZ322      0.0000
     17  C11       -2.7160   62.5510   -1.2760 C.2   322  ZYZ322      0.0000
     18  C12       -1.3230   66.2650    0.8980 C.3   322  ZYZ322      0.0000
     19  C13       -1.7920   64.2810   -2.8370 C.3   322  ZYZ322      0.0000
     20  C14       -2.7840   65.4160   -2.4710 C.3   322  ZYZ322      0.0000
     21  C15       -0.3820   64.8740   -3.0540 C.3   322  ZYZ322      0.0000
     22  C16       -2.2160   63.6230   -4.1780 C.3   322  ZYZ322      0.0000
@<TRIPOS>BOND
     1    22    19    1
     2    21    19    1
     3    19    20    1
     4    19    12    1
     5    10    17    2
     6    12    17    1
     7    17     3   am
     8     3    15    1
     9     8    18    1
    10     8    16    1
    11    15    14    1
    12    15    16    1
    13    14     9    1
    14    16     6    2
    15     9    11   ar
    16     9     7   ar
    17    11    13   ar
    18     7     5   ar
    19    13     4   ar
    20     5     4   ar
    21     4     2    1
    22     2     1    1
