@<TRIPOS>MOLECULE
3d9e_N8C_A_1.pdb
 11 10 0 0 0
SMALL
GASTEIGER

@<TRIPOS>ATOM
      1  O1        20.3720  -20.1240  -17.1890 O.2   600  N8C600     -0.1310
      2  N1        20.2010  -19.8420  -18.3650 N.pl3 600  N8C600      0.0345
      3  O2        21.0210  -19.1280  -18.9170 O.2   600  N8C600     -0.1310
      4  C1        19.0330  -20.3610  -19.0660 C.3   600  N8C600      0.1934
      5  C2        19.0660  -19.9300  -20.5280 C.3   600  N8C600      0.0318
      6  C3        17.8650  -20.4310  -21.3320 C.3   600  N8C600      0.0022
      7  C4        17.2820  -21.7480  -20.8220 C.3   600  N8C600      0.0001
      8  C5        17.8780  -22.9870  -21.4950 C.3   600  N8C600      0.0000
      9  C6        17.3480  -24.2620  -20.8360 C.3   600  N8C600      0.0000
     10  C7        17.1930  -25.4530  -21.7890 C.3   600  N8C600      0.0000
     11  C8        16.1200  -26.4170  -21.3020 C.3   600  N8C600      0.0000
@<TRIPOS>BOND
     1    10    11    1
     2    10     9    1
     3     8     9    1
     4     8     7    1
     5     6     7    1
     6     6     5    1
     7     5     4    1
     8     4     2    1
     9     3     2    2
    10     2     1    2
