@<TRIPOS>MOLECULE
3d9k_III_Y_1.pdb
 49 51 0 0 0
SMALL
GASTEIGER

@<TRIPOS>ATOM
      1  N         25.2790    3.3200    8.5940 N.3    -1  PRO-1      -0.2102
      2  CA        26.4330    3.2570    7.6970 C.3    -1  PRO-1       0.1504
      3  C         27.7570    3.5810    8.4020 C.2    -1  PRO-1       0.2576
      4  O         28.8260    3.2620    7.8820 O.2    -1  PRO-1      -0.2718
      5  CB        26.1180    4.3290    6.6500 C.3    -1  PRO-1       0.0282
      6  CG        25.2120    5.2920    7.3400 C.3    -1  PRO-1       0.0208
      7  CD        24.4190    4.4880    8.3280 C.3    -1  PRO-1       0.0893
      8  N         27.6680    4.1970    9.5790 N.am    0  SER0       -0.1938
      9  CA        28.8320    4.7110   10.3000 C.3     0  SER0        0.2055
     10  C         29.6730    3.6140   10.9610 C.2     0  SER0        0.2643
     11  O         29.2800    2.4420   10.9830 O.2     0  SER0       -0.2714
     12  CB        28.3860    5.7450   11.3400 C.3     0  SER0        0.2130
     13  OG        27.4800    5.1750   12.2710 O.3     0  SER0       -0.2179
     14  N         30.8300    4.0040   11.4920 N.am    1  TYR1       -0.1959
     15  CA        31.7250    3.0720   12.1800 C.3     1  TYR1        0.1771
     16  C         31.5840    3.1260   13.7020 C.2     1  TYR1        0.2620
     17  O         31.5790    4.1960   14.3140 O.2     1  TYR1       -0.2715
     18  CB        33.1940    3.3100   11.7840 C.3     1  TYR1        0.0574
     19  CG        34.1760    2.2600   12.3040 C.ar    1  TYR1       -0.0198
     20  CD1       34.6200    1.2190   11.4820 C.ar    1  TYR1       -0.0009
     21  CD2       34.6690    2.3170   13.6140 C.ar    1  TYR1       -0.0009
     22  CE1       35.5230    0.2570   11.9530 C.ar    1  TYR1        0.0417
     23  CE2       35.5640    1.3520   14.1010 C.ar    1  TYR1        0.0417
     24  CZ        35.9870    0.3300   13.2650 C.ar    1  TYR1        0.1957
     25  OH        36.8720   -0.6100   13.7410 O.3     1  TYR1       -0.2866
     26  N         31.4380    1.9420   14.2820 N.am    2  SER2       -0.1937
     27  CA        31.7800    1.6840   15.6710 C.3     2  SER2        0.2012
     28  CB        30.5320    1.6430   16.5570 C.3     2  SER2        0.1846
     29  OG        29.7700    0.4710   16.3270 O.3     2  SER2       -0.2679
     30  C         32.4990    0.3320   15.6190 C.2     2  SER2        0.2484
     31  O         32.1910   -0.4760   14.7390 O.2     2  SER2       -0.2729
     32  P         29.1940   -0.1200   17.7130 P.3     2  SER2        0.5327
     33  O1P       30.4070   -0.4790   18.7090 O.3     2  SER2       -0.1145
     34  O2P       28.2420    0.9750   18.4120 O.3     2  SER2       -0.1145
     35  O3P       28.3700   -1.4630   17.3890 O.2     2  SER2       -0.2224
     36  N         33.4590    0.0850   16.5410 N.am    3  PRO3       -0.2715
     37  CA        34.3580   -1.0760   16.4970 C.3     3  PRO3        0.1536
     38  C         33.8920   -2.2600   15.6250 C.2     3  PRO3        0.2599
     39  O         34.3460   -2.3810   14.4820 O.2     3  PRO3       -0.2715
     40  CB        34.4840   -1.4520   17.9760 C.3     3  PRO3        0.0310
     41  CG        34.3300   -0.1190   18.7130 C.3     3  PRO3        0.0237
     42  CD        33.7370    0.8950   17.7410 C.3     3  PRO3        0.0939
     43  N         33.0070   -3.1070   16.1590 N.am    4  THR4       -0.1951
     44  CA        32.3970   -4.2390   15.4300 C.3     4  THR4        0.1897
     45  C         33.3310   -4.9150   14.4170 C.2     4  THR4        0.2313
     46  O         33.3300   -6.1370   14.2710 O.2     4  THR4       -0.2863
     47  CB        31.0760   -3.8170   14.7350 C.3     4  THR4        0.1794
     48  OG1       30.2150   -3.1820   15.6910 O.3     4  THR4       -0.2208
     49  CG2       30.3520   -5.0220   14.1390 C.3     4  THR4        0.0378
@<TRIPOS>BOND
     1     5     6    1
     2     5     2    1
     3     6     7    1
     4     2     3    1
     5     2     1    1
     6     4     3    2
     7     7     1    1
     8     3     8   am
     9     8     9    1
    10     9    10    1
    11     9    12    1
    12    10    11    2
    13    10    14   am
    14    12    13    1
    15    20    22   ar
    16    20    19   ar
    17    14    15    1
    18    18    15    1
    19    18    19    1
    20    22    24   ar
    21    15    16    1
    22    19    21   ar
    23    24    25    1
    24    24    23   ar
    25    21    23   ar
    26    16    26   am
    27    16    17    2
    28    49    47    1
    29    46    45    2
    30    26    27    1
    31    45    44    1
    32    39    38    2
    33    47    44    1
    34    47    48    1
    35    31    30    2
    36    44    43    1
    37    30    27    1
    38    30    36   am
    39    38    43   am
    40    38    37    1
    41    27    28    1
    42    29    28    1
    43    29    32    1
    44    37    36    1
    45    37    40    1
    46    36    42    1
    47    35    32    2
    48    32    34    1
    49    32    33    1
    50    42    41    1
    51    40    41    1
