@<TRIPOS>MOLECULE
3d9m_III_Y_1.pdb
 25 26 0 0 0
SMALL
GASTEIGER

@<TRIPOS>ATOM
      1  N         32.1040    3.3890   10.9660 N.3     1  TYR1       -0.1227
      2  CA        32.9530    2.3460   11.6080 C.3     1  TYR1        0.1736
      3  C         32.6250    2.2020   13.0900 C.2     1  TYR1        0.2596
      4  O         32.3440    3.1860   13.7860 O.2     1  TYR1       -0.2718
      5  CB        34.4470    2.6590   11.4160 C.3     1  TYR1        0.0548
      6  CG        35.3990    1.6880   12.0990 C.ar    1  TYR1       -0.0200
      7  CD1       35.7760    0.4900   11.4820 C.ar    1  TYR1       -0.0009
      8  CD2       35.9280    1.9730   13.3640 C.ar    1  TYR1       -0.0009
      9  CE1       36.6530   -0.4050   12.1170 C.ar    1  TYR1        0.0417
     10  CE2       36.8020    1.0920   14.0020 C.ar    1  TYR1        0.0417
     11  CZ        37.1540   -0.0970   13.3720 C.ar    1  TYR1        0.1957
     12  OH        38.0120   -0.9600   13.9970 O.3     1  TYR1       -0.2866
     13  N         32.6530    0.9570   13.5510 N.am    2  SER2       -0.1938
     14  CA        32.5580    0.6460   14.9660 C.3     2  SER2        0.2040
     15  C         33.6680   -0.3420   15.3130 C.2     2  SER2        0.2485
     16  O         34.0260   -1.1900   14.4730 O.2     2  SER2       -0.2729
     17  CB        31.1890    0.0480   15.3030 C.3     2  SER2        0.2129
     18  OG        31.0680   -0.2080   16.6950 O.3     2  SER2       -0.2179
     19  N         34.2340   -0.2220   16.5330 N.am    3  PRO3       -0.2726
     20  CA        35.1710   -1.2150   17.0570 C.3     3  PRO3        0.1402
     21  C         34.5090   -2.5890   17.1890 C.2     3  PRO3        0.2269
     22  O         35.1340   -3.5360   17.6650 O.2     3  PRO3       -0.2865
     23  CB        35.5310   -0.6640   18.4430 C.3     3  PRO3        0.0296
     24  CG        34.4220    0.2680   18.7940 C.3     3  PRO3        0.0237
     25  CD        34.0260    0.8830   17.4900 C.3     3  PRO3        0.0939
@<TRIPOS>BOND
     1     1     2    1
     2     5     2    1
     3     5     6    1
     4     7     6   ar
     5     7     9   ar
     6     2     3    1
     7     6     8   ar
     8     9    11   ar
     9     3    13   am
    10     3     4    2
    11     8    10   ar
    12    11    12    1
    13    11    10   ar
    14    13    14    1
    15    16    15    2
    16    14    17    1
    17    14    15    1
    18    17    18    1
    19    15    19   am
    20    19    20    1
    21    19    25    1
    22    20    21    1
    23    20    23    1
    24    21    22    2
    25    25    24    1
    26    23    24    1
