@<TRIPOS>MOLECULE
3d9p_III_Y_1.pdb
 29 30 0 0 0
SMALL
GASTEIGER

@<TRIPOS>ATOM
      1  N         31.3870    3.1440   11.1780 N.3     1  TYR1       -0.1227
      2  CA        32.4270    2.3190   11.8600 C.3     1  TYR1        0.1736
      3  C         32.2860    2.3360   13.3880 C.2     1  TYR1        0.2596
      4  O         31.9390    3.3630   13.9850 O.2     1  TYR1       -0.2718
      5  CB        33.8420    2.7650   11.4460 C.3     1  TYR1        0.0548
      6  CG        34.9520    2.0080   12.1540 C.ar    1  TYR1       -0.0200
      7  CD1       35.5260    0.8670   11.5830 C.ar    1  TYR1       -0.0009
      8  CD2       35.4160    2.4250   13.4050 C.ar    1  TYR1       -0.0009
      9  CE1       36.5330    0.1640   12.2430 C.ar    1  TYR1        0.0417
     10  CE2       36.4110    1.7270   14.0760 C.ar    1  TYR1        0.0417
     11  CZ        36.9660    0.6030   13.4950 C.ar    1  TYR1        0.1957
     12  OH        37.9600   -0.0670   14.1670 O.3     1  TYR1       -0.2866
     13  N         32.5590    1.1880   14.0080 N.am    2  SER2       -0.1940
     14  CA        32.6720    1.0900   15.4620 C.3     2  SER2        0.2012
     15  CB        31.3160    0.7530   16.0910 C.3     2  SER2        0.1846
     16  OG        31.1260   -0.6470   16.1990 O.3     2  SER2       -0.2679
     17  C         33.7410    0.0600   15.8610 C.2     2  SER2        0.2484
     18  O         34.1550   -0.7600   15.0290 O.2     2  SER2       -0.2729
     19  P         30.1320   -0.9930   17.4200 P.3     2  SER2        0.5327
     20  O1P       30.8330   -0.6630   18.8370 O.3     2  SER2       -0.1145
     21  O2P       28.7700   -0.1420   17.2750 O.2     2  SER2       -0.2224
     22  O3P       29.7700   -2.5590   17.3460 O.3     2  SER2       -0.1145
     23  N         34.2000    0.0970   17.1340 N.am    3  PRO3       -0.2726
     24  CA        35.1720   -0.9090   17.5760 C.3     3  PRO3        0.1402
     25  C         34.6010   -2.3240   17.5020 C.2     3  PRO3        0.2269
     26  O         35.3570   -3.2910   17.5150 O.2     3  PRO3       -0.2865
     27  CB        35.4400   -0.5230   19.0290 C.3     3  PRO3        0.0296
     28  CG        34.2500    0.2780   19.4400 C.3     3  PRO3        0.0237
     29  CD        33.8640    1.0380   18.2190 C.3     3  PRO3        0.0939
@<TRIPOS>BOND
     1     1     2    1
     2     5     2    1
     3     5     6    1
     4     7     6   ar
     5     7     9   ar
     6     2     3    1
     7     6     8   ar
     8     9    11   ar
     9     3     4    2
    10     3    13   am
    11     8    10   ar
    12    11    10   ar
    13    11    12    1
    14    13    14    1
    15    18    17    2
    16    14    17    1
    17    14    15    1
    18    17    23   am
    19    15    16    1
    20    16    19    1
    21    23    24    1
    22    23    29    1
    23    21    19    2
    24    22    19    1
    25    19    20    1
    26    25    26    2
    27    25    24    1
    28    24    27    1
    29    29    28    1
    30    27    28    1
