@<TRIPOS>MOLECULE
3d9s_PS6_D_1.pdb
 38 37 0 0 0
SMALL
GASTEIGER

@<TRIPOS>ATOM
      1  O2        20.4650    1.1540   11.0980 O.3   266  PS6266     -0.3100
      2  O1        19.8390    2.3380    8.9280 O.3   266  PS6266     -0.3119
      3  P         20.3200    0.9390    9.5280 P.3   266  PS6266      0.2142
      4  O4        21.5600    0.4800    8.8890 O.2   266  PS6266     -0.5172
      5  O3        19.1130   -0.0760    9.3000 O.3   266  PS6266     -0.4373
      6  C2        20.1770    0.1670   12.0900 C.3   266  PS6266      0.1964
      7  C3        19.6460    0.8160   13.3560 C.3   266  PS6266      0.2420
      8  O11       18.2200    0.7860   13.4280 O.3   266  PS6266     -0.4457
      9  O12       17.6330    2.3780   11.9400 O.2   266  PS6266     -0.2501
     10  C1        17.6310    1.1890   12.2760 C.2   266  PS6266      0.3171
     11  C4        20.1050    0.1200   14.6400 C.3   266  PS6266      0.2543
     12  C5        19.4250    0.0560   16.8470 C.2   266  PS6266      0.3171
     13  O51       20.0680   -0.9950   16.8700 O.2   266  PS6266     -0.2501
     14  O52       19.1920    0.6240   15.6410 O.3   266  PS6266     -0.4444
     15  C13       16.9440    0.1060   11.4330 C.3   266  PS6266      0.1096
     16  C14       17.2240   -1.2880   12.0230 C.3   266  PS6266      0.0116
     17  C15       17.3110   -2.3250   10.9060 C.3   266  PS6266      0.0006
     18  N         23.0230    3.7050    7.8650 N.3   266  PS6266     -0.1181
     19  CA        21.8070    3.8120    8.6860 C.3   266  PS6266      0.2241
     20  CB        20.6430    3.0970    8.0050 C.3   266  PS6266      0.1796
     21  C         21.4800    5.2810    8.9560 C.2   266  PS6266      0.3844
     22  O         22.4440    6.0530    9.1860 O.co2 266  PS6266     -0.2440
     23  OXT       20.2720    5.6160    8.9330 O.co2 266  PS6266     -0.2440
     24  C16       18.2630   -3.4670   11.2800 C.3   266  PS6266      0.0000
     25  C17       18.4150   -4.4410   10.0860 C.3   266  PS6266      0.0000
     26  C6        18.8910    0.7140   18.1140 C.3   266  PS6266      0.1096
     27  C7        19.4970    0.0850   19.3740 C.3   266  PS6266      0.0116
     28  C8        18.7580    0.5270   20.6270 C.3   266  PS6266      0.0006
     29  C9        19.2550   -0.1490   21.8940 C.3   266  PS6266      0.0000
     30  C10       19.4250    0.8350   23.0460 C.3   266  PS6266      0.0000
     31  C18       19.4580    0.1460   24.4090 C.3   266  PS6266      0.0000
     32  C19       18.6220    0.9560   25.4060 C.3   266  PS6266      0.0000
     33  C20       18.2030    0.1230   26.6080 C.3   266  PS6266      0.0000
     34  C21       18.5390    0.8230   27.9300 C.3   266  PS6266      0.0000
     35  C22       18.0900   -0.0150   29.1270 C.3   266  PS6266      0.0000
     36  C23       18.0080    0.7960   30.4240 C.3   266  PS6266      0.0000
     37  C24       18.3580   -0.0640   31.6370 C.3   266  PS6266      0.0000
     38  C25       19.1710    0.6990   32.6900 C.3   266  PS6266      0.0000
@<TRIPOS>BOND
     1    18    19    1
     2    20    19    1
     3    20     2    1
     4    19    21    1
     5     4     3    2
     6     2     3    1
     7    23    21   ar
     8    21    22   ar
     9     5     3    1
    10     3     1    1
    11    25    24    1
    12    17    24    1
    13    17    16    1
    14     1     6    1
    15    15    16    1
    16    15    10    1
    17     9    10    2
    18     6     7    1
    19    10     8    1
    20     7     8    1
    21     7    11    1
    22    11    14    1
    23    14    12    1
    24    12    13    2
    25    12    26    1
    26    26    27    1
    27    27    28    1
    28    28    29    1
    29    29    30    1
    30    30    31    1
    31    31    32    1
    32    32    33    1
    33    33    34    1
    34    34    35    1
    35    35    36    1
    36    36    37    1
    37    37    38    1
