@<TRIPOS>MOLECULE
3d9t_III_C_1.pdb
 30 31 0 0 0
SMALL
GASTEIGER

@<TRIPOS>ATOM
      1  N         23.1990   -5.8050  -11.0190 N.3     1  ALA1       -0.1231
      2  CA        22.7240   -7.1740  -11.3760 C.3     1  ALA1        0.1694
      3  C         23.1600   -7.5840  -12.7660 C.2     1  ALA1        0.2593
      4  O         23.6000   -6.7520  -13.5660 O.2     1  ALA1       -0.2718
      5  CB        21.1850   -7.2560  -11.2770 C.3     1  ALA1        0.0304
      6  N         23.0530   -8.8670  -13.0700 N.am    2  THR2       -0.1940
      7  CA        23.4890   -9.3420  -14.3750 C.3     2  THR2        0.2013
      8  C         22.3800  -10.1440  -15.0210 C.2     2  THR2        0.2484
      9  O         21.6280  -10.8730  -14.3600 O.2     2  THR2       -0.2729
     10  CB        24.8070  -10.1910  -14.2660 C.3     2  THR2        0.1807
     11  OG1       24.5260  -11.4000  -13.5610 O.3     2  THR2       -0.2208
     12  CG2       25.9090   -9.4180  -13.5230 C.3     2  THR2        0.0379
     13  N         22.2240  -10.0200  -16.3340 N.am    3  PRO3       -0.2715
     14  CA        21.1120  -10.6500  -17.0350 C.3     3  PRO3        0.1536
     15  C         21.3210  -12.1220  -17.3410 C.2     3  PRO3        0.2598
     16  O         22.4740  -12.6020  -17.4250 O.2     3  PRO3       -0.2715
     17  CB        20.9680   -9.8170  -18.3240 C.3     3  PRO3        0.0310
     18  CG        22.3520   -9.3450  -18.5670 C.3     3  PRO3        0.0237
     19  CD        22.9630   -9.0750  -17.2020 C.3     3  PRO3        0.0939
     20  N         20.2020  -12.8270  -17.5080 N.am    4  PHE4       -0.1974
     21  CA        20.1830  -14.1450  -18.1060 C.3     4  PHE4        0.1639
     22  C         18.8520  -14.3840  -18.8210 C.2     4  PHE4        0.2290
     23  O         17.8730  -13.6640  -18.5420 O.2     4  PHE4       -0.2864
     24  CB        20.4430  -15.2060  -17.0310 C.3     4  PHE4        0.0560
     25  CG        19.3170  -15.3830  -16.0160 C.ar    4  PHE4       -0.0200
     26  CD1       18.3170  -16.3230  -16.2300 C.ar    4  PHE4       -0.0042
     27  CD2       19.2740  -14.6420  -14.8390 C.ar    4  PHE4       -0.0042
     28  CE1       17.2880  -16.5270  -15.2930 C.ar    4  PHE4       -0.0003
     29  CE2       18.2530  -14.8360  -13.9070 C.ar    4  PHE4       -0.0003
     30  CZ        17.2610  -15.7770  -14.1290 C.ar    4  PHE4       -0.0000
@<TRIPOS>BOND
     1    22    23    2
     2    22    21    1
     3    18    17    1
     4    18    19    1
     5    17    14    1
     6    21    20    1
     7    21    24    1
     8    20    15   am
     9    16    15    2
    10    15    14    1
    11    19    13    1
    12    14    13    1
    13    24    25    1
    14    13     8   am
    15    26    25   ar
    16    26    28   ar
    17    25    27   ar
    18    28    30   ar
    19     8     7    1
    20     8     9    2
    21    27    29   ar
    22     7    10    1
    23     7     6    1
    24    10    11    1
    25    10    12    1
    26    30    29   ar
    27     4     3    2
    28     6     3   am
    29     3     2    1
    30     2     5    1
    31     2     1    1
