@<TRIPOS>MOLECULE
3d9u_III_B_1.pdb
 42 42 0 0 0
SMALL
GASTEIGER

@<TRIPOS>ATOM
      1  N          9.3770   25.5450   13.1770 N.3     1  ALA1       -0.1231
      2  CA         8.9420   24.1660   13.5410 C.3     1  ALA1        0.1694
      3  C          9.4760   23.1840   12.5060 C.2     1  ALA1        0.2592
      4  O          9.9340   23.5960   11.4480 O.2     1  ALA1       -0.2718
      5  CB         7.4190   24.1080   13.5900 C.3     1  ALA1        0.0304
      6  N          9.4310   21.8910   12.8080 N.am    2  VAL2       -0.1966
      7  CA         9.8560   20.8800   11.8380 C.3     2  VAL2        0.1712
      8  C          8.8340   19.7670   11.7040 C.2     2  VAL2        0.2458
      9  O          8.0270   19.5350   12.6010 O.2     2  VAL2       -0.2730
     10  CB        11.2040   20.2360   12.2280 C.3     2  VAL2        0.0289
     11  CG1       12.2360   21.3190   12.4690 C.3     2  VAL2        0.0023
     12  CG2       11.0290   19.3390   13.4500 C.3     2  VAL2        0.0023
     13  N          8.8610   19.0600   10.5720 N.am    3  PRO3       -0.2716
     14  CA         7.9180   17.9730   10.3240 C.3     3  PRO3        0.1536
     15  C          8.0680   16.8720   11.3510 C.2     3  PRO3        0.2598
     16  O          9.1690   16.5650   11.8010 O.2     3  PRO3       -0.2715
     17  CB         8.2780   17.4930    8.9180 C.3     3  PRO3        0.0310
     18  CG         8.9480   18.6540    8.2920 C.3     3  PRO3        0.0237
     19  CD         9.7080   19.3170    9.3970 C.3     3  PRO3        0.0939
     20  N          6.9410   16.2940   11.7410 N.am    4  ILE4       -0.1964
     21  CA         6.9490   15.0670   12.5160 C.3     4  ILE4        0.1727
     22  C          7.3150   13.9650   11.5340 C.2     4  ILE4        0.2616
     23  O          6.6020   13.7380   10.5580 O.2     4  ILE4       -0.2715
     24  CB         5.5520   14.8010   13.0870 C.3     4  ILE4        0.0290
     25  CG1        5.1710   15.9220   14.0670 C.3     4  ILE4        0.0022
     26  CG2        5.5070   13.4570   13.7550 C.3     4  ILE4        0.0023
     27  CD1        3.7240   15.8490   14.5100 C.3     4  ILE4        0.0001
     28  N          8.4240   13.2810   11.7820 N.am    5  ALA5       -0.1963
     29  CA         8.8800   12.2490   10.8520 C.3     5  ALA5        0.1728
     30  C          7.8160   11.1770   10.7630 C.2     5  ALA5        0.2617
     31  O          7.1410   10.8730   11.7560 O.2     5  ALA5       -0.2715
     32  CB        10.1840   11.6350   11.3260 C.3     5  ALA5        0.0334
     33  N          7.6600   10.6170    9.5670 N.am    6  GLN6       -0.1941
     34  CA         6.7550    9.4940    9.3530 C.3     6  GLN6        0.1983
     35  C          7.5640    8.2500    8.9400 C.2     6  GLN6        0.3842
     36  O          6.9230    7.2410    8.5440 O.co2   6  GLN6       -0.2437
     37  CB         5.7400    9.8690    8.2600 C.3     6  GLN6        0.0429
     38  CG         4.8670   11.0930    8.6190 C.3     6  GLN6        0.0909
     39  CD         4.0360   10.8450    9.8560 C.2     6  GLN6        0.2608
     40  OE1        3.2280    9.8930    9.8990 O.2     6  GLN6       -0.2717
     41  NE2        4.2200   11.6920   10.8840 N.am    6  GLN6       -0.0878
     42  OXT        8.8190    8.3170    9.0030 O.co2   6  GLN6       -0.2437
@<TRIPOS>BOND
     1    37    38    1
     2    37    34    1
     3    18    17    1
     4    18    19    1
     5    36    35   ar
     6    38    39    1
     7    17    14    1
     8    35    42   ar
     9    35    34    1
    10    34    33    1
    11    19    13    1
    12    33    30   am
    13    39    40    2
    14    39    41   am
    15    14    13    1
    16    14    15    1
    17    23    22    2
    18    13     8   am
    19    30    29    1
    20    30    31    2
    21    29    32    1
    22    29    28    1
    23    15    20   am
    24    15    16    2
    25     4     3    2
    26    22    28   am
    27    22    21    1
    28     8     7    1
    29     8     9    2
    30    20    21    1
    31     7    10    1
    32     7     6    1
    33    10    11    1
    34    10    12    1
    35     3     6   am
    36     3     2    1
    37    21    24    1
    38    24    26    1
    39    24    25    1
    40     1     2    1
    41     2     5    1
    42    25    27    1
