@<TRIPOS>MOLECULE
3d9v_H52_A_1.pdb
 22 24 0 0 0
SMALL
GASTEIGER

@<TRIPOS>ATOM
      1  O1        53.4870  101.2470   30.0680 O.2   416  H52416     -0.1528
      2  S5        52.2480  101.9000   30.4060 S.O2  416  H52416      0.0633
      3  O2        51.1900  101.2480   31.1400 O.2   416  H52416     -0.1528
      4  N21       52.7040  103.2520   31.2790 N.3   416  H52416     -0.1554
      5  C22       54.0830  103.7440   31.1800 C.3   416  H52416      0.0969
      6  C2M       54.4110  104.3480   29.8060 C.3   416  H52416      0.0207
      7  C23       54.6270  104.7030   32.2660 C.3   416  H52416      0.1063
      8  N24       54.3810  104.1290   33.6210 N.3   416  H52416     -0.2165
      9  C25       53.1150  104.5420   34.1740 C.3   416  H52416      0.0902
     10  C26       52.0800  103.5830   33.5880 C.3   416  H52416      0.0379
     11  C27       51.6870  103.9220   32.2070 C.3   416  H52416      0.0973
     12  C5        51.5610  102.4130   28.8340 C.ar  416  H52416      0.1220
     13  C10       51.2790  101.4510   27.7520 C.ar  416  H52416      0.0177
     14  C4        51.5120   99.9720   27.8050 C.ar  416  H52416     -0.0014
     15  CM        52.0450   99.1860   29.0090 C.3   416  H52416      0.0327
     16  C9        50.7400  102.0040   26.4730 C.ar  416  H52416      0.0202
     17  C8        50.4960  103.4160   26.3280 C.ar  416  H52416      0.0016
     18  C7        50.7670  104.2770   27.3880 C.ar  416  H52416      0.0014
     19  C6        51.2940  103.7870   28.6220 C.ar  416  H52416      0.0199
     20  C1        50.4690  101.0950   25.4020 C.ar  416  H52416      0.0989
     21  N2        50.7220   99.7750   25.5500 N.ar  416  H52416     -0.2426
     22  C3        51.2050   99.2280   26.6890 C.ar  416  H52416      0.0946
@<TRIPOS>BOND
     1    20    21   ar
     2    20    16   ar
     3    21    22   ar
     4    17    16   ar
     5    17    18   ar
     6    16    13   ar
     7    22    14   ar
     8    18    19   ar
     9    13    14   ar
    10    13    12   ar
    11    14    15    1
    12    19    12   ar
    13    12     2    1
    14     6     5    1
    15     1     2    2
    16     2     3    2
    17     2     4    1
    18     5     4    1
    19     5     7    1
    20     4    11    1
    21    11    10    1
    22     7     8    1
    23    10     9    1
    24     8     9    1
