@<TRIPOS>MOLECULE
3d9z_D9Z_A_1.pdb
 16 17 0 0 0
SMALL
GASTEIGER

@<TRIPOS>ATOM
      1  O2        -7.4330    0.6790   16.6650 O.2   263  D9Z263     -0.1483
      2  S1        -6.0400    0.4340   16.8960 S.O2  263  D9Z263      0.1178
      3  O1        -5.6600    0.5280   18.2670 O.2   263  D9Z263     -0.1483
      4  N3        -5.6170   -0.9840   16.3240 N.3   263  D9Z263      0.0413
      5  C8        -5.2560    1.6870   16.1700 C.ar  263  D9Z263      0.2578
      6  S2        -5.8450    2.9550   15.1770 S.2   263  D9Z263     -0.0255
      7  N2        -3.9180    1.6980   16.3110 N.ar  263  D9Z263     -0.1202
      8  N1        -3.3600    2.6980   15.5570 N.ar  263  D9Z263     -0.1395
      9  C7        -4.2210    3.4800   14.8850 C.ar  263  D9Z263      0.1357
     10  C1        -3.7710    4.5600   14.1230 C.ar  263  D9Z263      0.0362
     11  C6        -2.4180    4.8460   14.0190 C.ar  263  D9Z263      0.0029
     12  C2        -4.6800    5.3520   13.4860 C.ar  263  D9Z263      0.0597
     13  C3        -4.3390    6.4230   12.6900 C.ar  263  D9Z263      0.0115
     14  C4        -2.9740    6.7100   12.5720 C.ar  263  D9Z263      0.0009
     15  C5        -2.0270    5.9450   13.2300 C.ar  263  D9Z263      0.0001
     16 CL1        -6.3760    5.3160   13.4270 Cl    263  D9Z263     -0.0822
@<TRIPOS>BOND
     1    14    13   ar
     2    14    15   ar
     3    13    12   ar
     4    15    11   ar
     5    16    12    1
     6    12    10   ar
     7    11    10   ar
     8    10     9    1
     9     9     6   ar
    10     9     8   ar
    11     6     5   ar
    12     8     7   ar
    13     5     7   ar
    14     5     2    1
    15     4     2    1
    16     1     2    2
    17     2     3    2
