@<TRIPOS>MOLECULE
3da2_4MD_A_1.pdb
 23 24 0 0 0
SMALL
GASTEIGER

@<TRIPOS>ATOM
      1  C1S        5.4090   19.8470   24.9230 C.ar  401  4MD401     -0.0020
      2  C1V        6.0110   20.4140   26.0390 C.ar  401  4MD401      0.0111
      3  C1Q        5.7150   21.7250   26.4000 C.ar  401  4MD401      0.0577
      4 CL1R        6.4640   22.4220   27.7860 Cl    401  4MD401     -0.0822
      5  C1U        4.8260   22.4820   25.6500 C.ar  401  4MD401      0.0111
      6  C1T        4.2260   21.9180   24.5260 C.ar  401  4MD401     -0.0020
      7  C1P        4.5250   20.6080   24.1610 C.ar  401  4MD401     -0.0044
      8  C1J        3.8440   19.9830   22.9550 C.3   401  4MD401      0.1221
      9  N1C        2.9130   19.0070   23.5530 N.3   401  4MD401     -0.1496
     10  C1W        3.6310   17.7290   23.7370 C.3   401  4MD401      0.1153
     11  S1A        1.5500   18.8040   22.6650 S.O2  401  4MD401      0.0636
     12  O1F        1.3840   19.9750   21.7390 O.2   401  4MD401     -0.1528
     13  O1G        0.3430   18.6770   23.5370 O.2   401  4MD401     -0.1528
     14  C1D        1.8390   17.3710   21.7600 C.ar  401  4MD401      0.1223
     15  C1M        1.7850   17.4620   20.3900 C.ar  401  4MD401      0.0213
     16  C1N        2.0350   16.3430   19.6250 C.ar  401  4MD401      0.0214
     17  C1L        2.1700   16.1760   22.3880 C.ar  401  4MD401      0.0213
     18  C1O        2.4330   15.0470   21.6190 C.ar  401  4MD401      0.0214
     19  C1E        2.3880   15.1430   20.2320 C.ar  401  4MD401      0.1251
     20  S1B        2.6770   13.7900   19.1840 S.O2  401  4MD401      0.0935
     21  O1H        2.4410   12.5120   19.9190 O.2   401  4MD401     -0.1503
     22  O1I        4.0610   13.6420   18.6290 O.2   401  4MD401     -0.1503
     23  N1K        1.6130   14.0700   17.9780 N.3   401  4MD401      0.0392
@<TRIPOS>BOND
     1    23    20    1
     2    22    20    2
     3    20    21    2
     4    20    19    1
     5    16    19   ar
     6    16    15   ar
     7    19    18   ar
     8    15    14   ar
     9    18    17   ar
    10    12    11    2
    11    14    17   ar
    12    14    11    1
    13    11    13    2
    14    11     9    1
    15     8     9    1
    16     8     7    1
    17     9    10    1
    18     7     6   ar
    19     7     1   ar
    20     6     5   ar
    21     1     2   ar
    22     5     3   ar
    23     2     3   ar
    24     3     4    1
