@<TRIPOS>MOLECULE
3da6_BZ9_A_1.pdb
 36 41 0 0 0
SMALL
GASTEIGER

@<TRIPOS>ATOM
      1  N1       -19.2570   17.1450  -33.1670 N.2     1  BZ91       -0.3241
      2  C4       -17.5010   18.3170  -33.8350 C.ar    1  BZ91        0.1754
      3  C5       -16.8280   19.3150  -34.5840 C.ar    1  BZ91        0.0357
      4  C6       -17.5670   20.2010  -35.3850 C.ar    1  BZ91        0.0028
      5  C7       -18.9820   20.0290  -35.4140 C.ar    1  BZ91        0.0028
      6  C8       -19.6400   19.0140  -34.7280 C.ar    1  BZ91        0.0357
      7  C10      -19.7590   12.6610  -33.0490 C.ar    1  BZ91        0.0356
      8  C13      -18.4510   13.2750  -35.3900 C.ar    1  BZ91        0.0000
      9  C15      -19.9060   11.8580  -34.1710 C.ar    1  BZ91        0.0031
     10  C17      -20.4450   12.3340  -31.8800 C.ar    1  BZ91        0.1431
     11  C20      -18.8540   14.5980  -31.9150 C.ar    1  BZ91        0.0834
     12  C21      -22.8340    9.6020  -31.7690 C.ar    1  BZ91        0.0841
     13  C22      -24.2200    9.3610  -31.7680 C.ar    1  BZ91        0.0089
     14  C24      -24.5270   11.7490  -31.6190 C.ar    1  BZ91        0.1021
     15  C26      -22.4140   10.9190  -31.7430 C.ar    1  BZ91        0.2320
     16  C28      -22.0180    8.5020  -31.9280 C.2     1  BZ91        0.1502
     17  C35      -23.8990    4.8560  -30.7440 C.3     1  BZ91        0.1494
     18  N34      -22.5790    4.9760  -31.3970 N.pl3   1  BZ91       -0.1602
     19  C32      -21.9780    6.1320  -31.7390 C.1     1  BZ91        0.1653
     20  N27      -22.5580    7.3150  -31.5900 N.2     1  BZ91       -0.3362
     21  N31      -20.7910    6.1080  -32.3360 N.2     1  BZ91       -0.1686
     22  C30      -20.1910    7.2220  -32.6380 C.2     1  BZ91        0.1144
     23  C29      -20.7130    8.5020  -32.4940 C.2     1  BZ91        0.0547
     24  C23      -25.0600   10.4790  -31.6710 C.ar    1  BZ91        0.0210
     25  N25      -23.1970   11.9400  -31.6790 N.ar    1  BZ91       -0.2098
     26  O33      -21.1250   11.1470  -31.8350 O.3     1  BZ91       -0.4363
     27  C18      -20.3490   13.1240  -30.7350 C.ar    1  BZ91        0.0141
     28  C36      -21.1060   12.7550  -29.4500 C.3     1  BZ91        0.0343
     29  C19      -19.5770   14.2830  -30.7760 C.ar    1  BZ91        0.0161
     30  C14      -19.2190   12.1410  -35.3690 C.ar    1  BZ91        0.0001
     31  C12      -18.2620   14.0740  -34.2710 C.ar    1  BZ91        0.0014
     32  C11      -18.9370   13.7900  -33.0770 C.ar    1  BZ91        0.0190
     33  N16      -18.1020   15.6920  -31.7760 N.pl3   1  BZ91       -0.1254
     34  C9       -18.1350   16.6910  -32.6180 C.1     1  BZ91        0.2247
     35  N2       -17.0420   17.3740  -33.0030 N.2     1  BZ91       -0.3241
     36  C3       -18.8990   18.1720  -33.9210 C.ar    1  BZ91        0.1754
@<TRIPOS>BOND
     1     5     4   ar
     2     5     6   ar
     3     8    30   ar
     4     8    31   ar
     5     4     3   ar
     6    30     9   ar
     7     6    36   ar
     8     3     2   ar
     9    31    32   ar
    10     9     7   ar
    11    36     2   ar
    12    36     1    2
    13     2    35    2
    14     1    34    2
    15    32     7   ar
    16    32    11   ar
    17     7    10   ar
    18    35    34    2
    19    22    23    2
    20    22    21    1
    21    34    33    1
    22    23    16    1
    23    21    19    2
    24    16    12    1
    25    16    20    2
    26    11    33    1
    27    11    29   ar
    28    10    26    1
    29    10    27   ar
    30    26    15    1
    31    12    13   ar
    32    12    15   ar
    33    13    24   ar
    34    15    25   ar
    35    19    20    2
    36    19    18    1
    37    25    14   ar
    38    24    14   ar
    39    18    17    1
    40    29    27   ar
    41    27    28    1
