@<TRIPOS>MOLECULE
3da9_44U_B_1.pdb
 28 30 0 0 0
SMALL
GASTEIGER

@<TRIPOS>ATOM
      1  C1        12.3680   -9.6120   20.9670 C.3     1  44U1        0.0019
      2  C2        13.8190   -9.7540   21.4300 C.3     1  44U1        0.0234
      3  C3        14.6080  -10.5260   20.3690 C.3     1  44U1        0.1152
      4  C7        18.0940  -11.9150   21.1850 C.3     1  44U1        0.1535
      5  C9        19.1180  -11.9150   20.0260 C.3     1  44U1        0.0310
      6  C10       20.2430  -12.8380   20.5760 C.3     1  44U1        0.0237
      7  C11       19.4040  -13.9100   21.3130 C.3     1  44U1        0.0939
      8  C13       17.4560  -13.6380   22.9020 C.2     1  44U1        0.2441
      9  C15       17.7290  -14.9700   23.5520 C.3     1  44U1        0.1758
     10  C19       18.6010  -17.2540   25.3790 C.ar    1  44U1       -0.0039
     11  C20       18.5180  -18.3870   26.1880 C.ar    1  44U1       -0.0003
     12  C21       17.9700  -18.2900   27.4660 C.ar    1  44U1       -0.0000
     13  C22       17.5220  -17.0590   27.9360 C.ar    1  44U1       -0.0003
     14  C24       19.6440  -14.1980   25.0770 C.ar    1  44U1       -0.0165
     15  C27       22.2420  -13.1420   25.2250 C.ar    1  44U1       -0.0000
     16  N4        15.9920  -10.6640   20.8190 N.am    1  44U1       -0.2040
     17  C5        16.6700  -11.8280   20.6760 C.2     1  44U1        0.2595
     18  O6        16.1580  -12.8160   20.1620 O.2     1  44U1       -0.2716
     19  N12       18.2500  -13.1920   21.9080 N.am    1  44U1       -0.2718
     20  O14       16.5110  -12.9810   23.3160 O.2     1  44U1       -0.2733
     21  C17       18.2290  -14.7630   25.0000 C.3     1  44U1        0.0710
     22  C18       18.1420  -16.0200   25.8480 C.ar    1  44U1       -0.0165
     23  C23       17.6130  -15.9280   27.1250 C.ar    1  44U1       -0.0039
     24  C25       20.6890  -14.7470   24.3330 C.ar    1  44U1       -0.0039
     25  C26       21.9760  -14.2260   24.4040 C.ar    1  44U1       -0.0003
     26  C28       21.2100  -12.5910   25.9820 C.ar    1  44U1       -0.0003
     27  C29       19.9220  -13.1170   25.9120 C.ar    1  44U1       -0.0039
     28  N30       16.4940  -15.7640   23.4780 N.3     1  44U1       -0.1224
@<TRIPOS>BOND
     1     5     6    1
     2     5     4    1
     3    18    17    2
     4     3    16    1
     5     3     2    1
     6     6     7    1
     7    17    16   am
     8    17     4    1
     9     1     2    1
    10     4    19    1
    11     7    19    1
    12    19     8   am
    13     8    20    2
    14     8     9    1
    15    28     9    1
    16     9    21    1
    17    24    25   ar
    18    24    14   ar
    19    25    15   ar
    20    21    14    1
    21    21    22    1
    22    14    27   ar
    23    15    26   ar
    24    10    22   ar
    25    10    11   ar
    26    22    23   ar
    27    27    26   ar
    28    11    12   ar
    29    23    13   ar
    30    12    13   ar
