@<TRIPOS>MOLECULE
3daa_PDD_A_1.pdb
 21 21 0 0 0
SMALL
GASTEIGER

@<TRIPOS>ATOM
      1  N         33.5170    7.5360   -7.6290 N.2   285  PDD285     -0.2636
      2  N1        33.1990   11.6190  -10.9550 N.2   285  PDD285     -0.2505
      3  C2        32.5810   11.5970   -9.7710 C.2   285  PDD285      0.0679
      4  C2A       31.8820   12.8460   -9.3520 C.3   285  PDD285      0.0499
      5  C3        32.5760   10.4740   -8.9460 C.3   285  PDD285      0.1969
      6  O3A       32.1190   10.5970   -7.6450 O.3   285  PDD285     -0.2163
      7  C4        33.0200    9.2400   -9.4550 C.3   285  PDD285      0.0989
      8  C4A       32.6240    7.9720   -8.7060 C.2   285  PDD285      0.0741
      9  C5        33.7720    9.2670  -10.6620 C.2   285  PDD285      0.0129
     10  C5A       34.5210    8.0640  -11.2130 C.3   285  PDD285      0.1780
     11  OP4       35.8730    8.0110  -10.7740 O.3   285  PDD285     -0.2656
     12  P         36.5730    6.6220  -10.7470 P.3   285  PDD285      0.5329
     13  OP1       35.7870    5.7000   -9.8740 O.3   285  PDD285     -0.1145
     14  OP2       37.9710    6.7890  -10.2280 O.3   285  PDD285     -0.1145
     15  OP3       36.6290    6.0610  -12.1320 O.2   285  PDD285     -0.2224
     16  C6        33.7790   10.4740  -11.3800 C.2   285  PDD285      0.0925
     17  CA        33.1070    6.4500   -6.7160 C.3   285  PDD285      0.2054
     18  CB        32.9250    5.1120   -7.4530 C.3   285  PDD285      0.0385
     19  C         31.8720    6.7350   -5.8020 C.2   285  PDD285      0.3866
     20  O         31.5640    7.7840   -5.3270 O.co2 285  PDD285     -0.2435
     21  OXT       31.1460    5.6190   -5.5860 O.co2 285  PDD285     -0.2435
@<TRIPOS>BOND
     1    15    12    2
     2    16     2    1
     3    16     9    2
     4    10    11    1
     5    10     9    1
     6     2     3    2
     7    11    12    1
     8    12    14    1
     9    12    13    1
    10     9     7    1
    11     3     4    1
    12     3     5    1
    13     7     5    1
    14     7     8    1
    15     5     6    1
    16     8     1    2
    17     1    17    1
    18    18    17    1
    19    17    19    1
    20    19    21   ar
    21    19    20   ar
