@<TRIPOS>MOLECULE
3dah_AMP_A_1.pdb
 23 25 0 0 0
SMALL
GASTEIGER

@<TRIPOS>ATOM
      1  P          6.8800   20.8260   14.4720 P.3   401  AMP401      0.5327
      2  O1P        6.4890   21.8310   13.4030 O.2   401  AMP401     -0.2224
      3  O2P        7.8470   19.7730   13.9790 O.3   401  AMP401     -0.1145
      4  O3P        7.2690   21.4370   15.8040 O.3   401  AMP401     -0.1145
      5  O5'        5.5160   19.9960   14.7660 O.3   401  AMP401     -0.2675
      6  C5'        4.4690   20.5140   15.5940 C.3   401  AMP401      0.1860
      7  C4'        3.1520   20.5530   14.8200 C.3   401  AMP401      0.1823
      8  O4'        3.0850   19.4780   13.8720 O.3   401  AMP401     -0.3135
      9  C3'        1.9350   20.4210   15.7250 C.3   401  AMP401      0.2184
     10  O3'        1.0140   21.4600   15.3760 O.3   401  AMP401     -0.2174
     11  C2'        1.3580   19.0460   15.4070 C.3   401  AMP401      0.2570
     12  O2'       -0.0720   18.9870   15.4580 O.3   401  AMP401     -0.2130
     13  C1'        1.8520   18.7530   13.9970 C.3   401  AMP401      0.3186
     14  N9         2.1370   17.3110   13.7610 N.pl3 401  AMP401     -0.1439
     15  C8         2.0510   16.2910   14.6430 C.3   401  AMP401      0.3377
     16  N7         2.4080   15.1150   14.0690 N.2   401  AMP401     -0.2095
     17  C5         2.7360   15.3800   12.7910 C.2   401  AMP401      0.2526
     18  C6         3.1990   14.6030   11.6160 C.2   401  AMP401      0.4393
     19  N6         3.3940   13.2680   11.7010 N.pl3 401  AMP401      0.2180
     20  N1         3.4230   15.2710   10.4600 N.2   401  AMP401      0.0021
     21  C2         3.2380   16.6020   10.3570 C.3   401  AMP401      0.5254
     22  N3         2.8210   17.3730   11.3780 N.2   401  AMP401     -0.0055
     23  C4         2.5590   16.8290   12.5940 C.2   401  AMP401      0.3518
@<TRIPOS>BOND
     1    21    20    1
     2    21    22    1
     3    20    18    2
     4    22    23    2
     5    18    19    1
     6    18    17    1
     7    23    17    1
     8    23    14    1
     9    17    16    2
    10     2     1    2
    11    14    13    1
    12    14    15    1
    13     8    13    1
    14     8     7    1
    15     3     1    1
    16    13    11    1
    17    16    15    1
    18     1     5    1
    19     1     4    1
    20     5     6    1
    21     7     6    1
    22     7     9    1
    23    10     9    1
    24    11    12    1
    25    11     9    1
