@<TRIPOS>MOLECULE
3daj_FXG_A_1.pdb
 31 33 0 0 0
SMALL
GASTEIGER

@<TRIPOS>ATOM
      1  O18       73.1820   22.8950    7.8020 O.2     1  FXG1       -0.2730
      2  C16       72.5920   22.0780    7.1100 C.2     1  FXG1        0.2456
      3  C15       71.2610   21.5100    7.5540 C.3     1  FXG1        0.0872
      4  C14       70.4200   22.5610    8.2730 C.3     1  FXG1        0.0098
      5  C13       69.3260   23.1030    7.3630 C.3     1  FXG1        0.0049
      6  C12       69.7120   24.4670    6.8050 C.3     1  FXG1        0.0554
      7  C11       68.5820   25.0450    5.9640 C.3     1  FXG1        0.2513
      8  N10       68.9530   24.7540    4.5850 N.pl3   1  FXG1       -0.0297
      9  C6        68.1410   25.0770    3.5450 C.2     1  FXG1        0.3854
     10  C1        68.5330   24.7830    2.2450 C.2     1  FXG1        0.2255
     11  C2        67.6800   25.1320    1.2210 C.1     1  FXG1        0.0578
     12  N9        68.2170   24.7710    0.0430 N.2     1  FXG1       -0.1914
     13  C8        69.4120   24.1980    0.3300 C.3     1  FXG1        0.2618
     14  N7        69.6080   24.2030    1.6740 N.2     1  FXG1       -0.2268
     15  N3        66.4880   25.7390    1.4390 N.2     1  FXG1       -0.1640
     16  C4        66.1390   26.0100    2.7080 C.3     1  FXG1        0.4006
     17  N5        66.9440   25.6890    3.7390 N.2     1  FXG1       -0.0304
     18  N17       73.0500   21.6220    5.9420 N.am    1  FXG1       -0.1792
     19  C19       74.2710   22.0190    5.3660 C.ar    1  FXG1        0.0735
     20  C20       74.6090   23.3650    5.2020 C.ar    1  FXG1        0.0166
     21  C21       75.8290   23.7220    4.6240 C.ar    1  FXG1        0.0015
     22  C22       76.7150   22.7300    4.2020 C.ar    1  FXG1        0.0046
     23  C23       76.3820   21.3830    4.3620 C.ar    1  FXG1        0.0563
     24  C24       75.1600   21.0330    4.9400 C.ar    1  FXG1        0.0212
     25  C25       77.3270   20.3060    3.9100 C.2     1  FXG1        0.2648
     26  O27       78.6230   20.3940    4.2070 O.2     1  FXG1       -0.2684
     27  N26       76.8770   19.3250    3.2500 N.am    1  FXG1       -0.2013
     28  C28       77.5900   18.4270    2.8590 C.3     1  FXG1        0.1201
     29  C29       78.3080   17.4760    2.4630 C.3     1  FXG1        0.0495
     30  C30       78.3650   16.2320    3.2270 C.2     1  FXG1       -0.0243
     31  C31       77.4470   15.2980    3.0480 C.2     1  FXG1       -0.0049
@<TRIPOS>BOND
     1    12    13    1
     2    12    11    2
     3    13    14    1
     4    11    15    2
     5    11    10    1
     6    15    16    1
     7    14    10    2
     8    10     9    1
     9    29    28    1
    10    29    30    1
    11    16    17    1
    12    28    27    1
    13    31    30    2
    14    27    25   am
    15     9    17    2
    16     9     8    1
    17    25    26    2
    18    25    23    1
    19    22    23   ar
    20    22    21   ar
    21    23    24   ar
    22     8     7    1
    23    21    20   ar
    24    24    19   ar
    25    20    19   ar
    26    19    18    1
    27    18     2   am
    28     7     6    1
    29     6     5    1
    30     2     3    1
    31     2     1    2
    32     5     4    1
    33     3     4    1
