@<TRIPOS>MOLECULE
3dak_ANP_A_1.pdb
 31 33 0 0 0
SMALL
GASTEIGER

@<TRIPOS>ATOM
      1  PG       -58.4040   -8.1820   43.9780 P.3     1  ANP1        0.4884
      2  O1G      -59.8250   -8.0940   43.4530 O.2     1  ANP1       -0.2331
      3  O2G      -57.6150   -9.4000   43.4980 O.3     1  ANP1       -0.1240
      4  O3G      -57.6160   -6.8940   43.8310 O.3     1  ANP1       -0.1240
      5  PB       -60.1340   -8.4270   46.6200 P.3     1  ANP1        0.4669
      6  O1B      -61.3120   -7.9770   45.7710 O.2     1  ANP1       -0.2351
      7  O2B      -59.9270   -7.6780   47.9270 O.3     1  ANP1       -0.1253
      8  N3B      -58.6070   -8.3230   45.7280 N.3     1  ANP1       -0.0163
      9  PA       -59.2860  -11.1200   47.2690 P.3     1  ANP1        0.2220
     10  O1A      -57.8740  -10.5700   47.1940 O.3     1  ANP1       -0.4370
     11  O2A      -59.6550  -12.3530   46.4690 O.2     1  ANP1       -0.5170
     12  O3A      -60.4120   -9.9930   46.9460 O.3     1  ANP1       -0.2360
     13  O5'      -59.5680  -11.3830   48.8410 O.3     1  ANP1       -0.3111
     14  C5'      -60.8680  -11.3800   49.4110 C.3     1  ANP1        0.1813
     15  C4'      -60.8900  -10.6400   50.7540 C.3     1  ANP1        0.1821
     16  O4'      -59.8210  -10.9920   51.6640 O.3     1  ANP1       -0.3135
     17  C3'      -60.8290   -9.1400   50.5300 C.3     1  ANP1        0.2184
     18  O3'      -61.9790   -8.5840   51.1620 O.3     1  ANP1       -0.2174
     19  C2'      -59.5070   -8.6780   51.1500 C.3     1  ANP1        0.2570
     20  O2'      -59.5740   -7.3530   51.7100 O.3     1  ANP1       -0.2130
     21  C1'      -59.1770   -9.7990   52.1500 C.3     1  ANP1        0.3186
     22  N9       -57.7070  -10.0180   52.3100 N.pl3   1  ANP1       -0.1439
     23  C8       -56.8150  -10.2420   51.3130 C.3     1  ANP1        0.3377
     24  N7       -55.5590  -10.3990   51.8110 N.2     1  ANP1       -0.2095
     25  C5       -55.6290  -10.2770   53.1520 C.2     1  ANP1        0.2526
     26  C6       -54.6700  -10.3200   54.2830 C.2     1  ANP1        0.4393
     27  N6       -53.3520  -10.5440   54.0930 N.pl3   1  ANP1        0.2180
     28  N1       -55.1690  -10.1380   55.5210 N.2     1  ANP1        0.0021
     29  C2       -56.4730   -9.9200   55.7640 C.3     1  ANP1        0.5254
     30  N3       -57.3950   -9.8480   54.7850 N.2     1  ANP1       -0.0055
     31  C4       -57.0460  -10.0270   53.4780 C.2     1  ANP1        0.3518
@<TRIPOS>BOND
     1     2     1    2
     2     3     1    1
     3     4     1    1
     4     1     8    1
     5     8     5    1
     6     6     5    2
     7    11     9    2
     8     5    12    1
     9     5     7    1
    10    12     9    1
    11    10     9    1
    12     9    13    1
    13    13    14    1
    14    14    15    1
    15    17    15    1
    16    17    19    1
    17    17    18    1
    18    15    16    1
    19    19    20    1
    20    19    21    1
    21    23    24    1
    22    23    22    1
    23    16    21    1
    24    24    25    2
    25    21    22    1
    26    22    31    1
    27    25    31    1
    28    25    26    1
    29    31    30    2
    30    27    26    1
    31    26    28    2
    32    30    29    1
    33    28    29    1
