@<TRIPOS>MOLECULE
3dam_HEM_A_1.pdb
 43 50 0 0 0
SMALL
GASTEIGER

@<TRIPOS>ATOM
      1 FE         38.7330   32.2220   25.8310 Fe    600  HEM600      0.0000
      2  CHA       40.1130   34.8230   27.5660 C.2   600  HEM600      0.0000
      3  CHB       41.8510   31.1190   25.1370 C.2   600  HEM600      0.0000
      4  CHC       37.3960   29.6590   24.0200 C.2   600  HEM600      0.0000
      5  CHD       35.6760   33.4110   26.4390 C.2   600  HEM600      0.0000
      6  NA        40.6090   32.7960   26.2680 N.ar  600  HEM600      0.0000
      7  C1A       41.0020   33.9210   27.0370 C.ar  600  HEM600      0.0000
      8  C2A       42.4030   34.0170   27.1810 C.ar  600  HEM600      0.0000
      9  C3A       42.8950   32.9680   26.4850 C.ar  600  HEM600      0.0000
     10  C4A       41.7920   32.2080   25.9050 C.ar  600  HEM600      0.0000
     11  CMA       44.3790   32.5960   26.2970 C.3   600  HEM600      0.0000
     12  CAA       43.2380   35.0570   27.9390 C.3   600  HEM600      0.0000
     13  CBA       43.6050   36.2710   27.1360 C.3   600  HEM600      0.0000
     14  CGA       44.4780   37.3100   27.8700 C.2   600  HEM600      0.0000
     15  O1A       43.9840   38.0810   28.7170 O.co2 600  HEM600      0.0000
     16  O2A       45.6380   37.3450   27.6000 O.co2 600  HEM600      0.0000
     17  NB        39.5040   30.6940   24.7720 N.2   600  HEM600      0.0000
     18  C1B       40.7930   30.3710   24.5690 C.2   600  HEM600      0.0000
     19  C2B       40.9800   29.2030   23.7180 C.2   600  HEM600      0.0000
     20  C3B       39.6290   28.7820   23.3890 C.2   600  HEM600      0.0000
     21  C4B       38.7820   29.7070   24.0590 C.2   600  HEM600      0.0000
     22  CMB       42.2800   28.6150   23.3030 C.3   600  HEM600      0.0000
     23  CAB       39.2820   27.6400   22.5370 C.2   600  HEM600      0.0000
     24  CBB       39.8730   26.4600   22.5220 C.2   600  HEM600      0.0000
     25  NC        36.8900   31.6580   25.3800 N.ar  600  HEM600      0.0000
     26  C1C       36.5420   30.5540   24.6290 C.ar  600  HEM600      0.0000
     27  C2C       35.0870   30.4330   24.5410 C.ar  600  HEM600      0.0000
     28  C3C       34.5330   31.5250   25.2310 C.ar  600  HEM600      0.0000
     29  C4C       35.7540   32.2660   25.7310 C.ar  600  HEM600      0.0000
     30  CMC       34.3420   29.3230   23.8250 C.3   600  HEM600      0.0000
     31  CAC       33.2150   31.8280   25.4010 C.2   600  HEM600      0.0000
     32  CBC       32.3680   32.0340   26.3570 C.2   600  HEM600      0.0000
     33  ND        38.0260   33.8200   26.8020 N.2   600  HEM600      0.0000
     34  C1D       36.7370   34.1400   26.9320 C.2   600  HEM600      0.0000
     35  C2D       36.5690   35.4120   27.6910 C.2   600  HEM600      0.0000
     36  C3D       37.8370   35.8030   28.0160 C.2   600  HEM600      0.0000
     37  C4D       38.7510   34.7910   27.4540 C.2   600  HEM600      0.0000
     38  CMD       35.2230   36.0520   27.9890 C.3   600  HEM600      0.0000
     39  CAD       38.2150   37.0380   28.8020 C.3   600  HEM600      0.0000
     40  CBD       37.7790   36.9270   30.2390 C.3   600  HEM600      0.0000
     41  CGD       38.0860   38.1020   31.0570 C.2   600  HEM600      0.0000
     42  O1D       37.9910   39.2610   30.5610 O.co2 600  HEM600      0.0000
     43  O2D       38.4160   37.9390   32.2340 O.co2 600  HEM600      0.0000
@<TRIPOS>BOND
     1    24    23    2
     2    23    20    1
     3    22    19    1
     4    20    19    2
     5    20    21    1
     6    19    18    1
     7    30    27    1
     8     4    21    2
     9     4    26    1
    10    21    17    1
    11    27    26   ar
    12    27    28   ar
    13    18    17    2
    14    18     3    1
    15    26    25   ar
    16    17     1    1
    17     3    10    2
    18    28    31    1
    19    28    29   ar
    20    25    29   ar
    21    25     1    1
    22    31    32    2
    23    29     5    1
    24     1     6    1
    25     1    33    1
    26    10     6   ar
    27    10     9   ar
    28     6     7   ar
    29    11     9    1
    30     5    34    2
    31     9     8   ar
    32    33    34    1
    33    33    37    2
    34    34    35    1
    35     7     8   ar
    36     7     2    2
    37    13    14    1
    38    13    12    1
    39     8    12    1
    40    37     2    1
    41    37    36    1
    42    16    14   ar
    43    35    38    1
    44    35    36    2
    45    14    15   ar
    46    36    39    1
    47    39    40    1
    48    40    41    1
    49    42    41   ar
    50    41    43   ar
