@<TRIPOS>MOLECULE
3dan_HEM_A_1.pdb
 43 50 0 0 0
SMALL
GASTEIGER

@<TRIPOS>ATOM
      1 FE         25.4930   30.0820   25.1480 Fe    600  HEM600      0.0000
      2  CHA       24.0560   27.5920   26.9730 C.2   600  HEM600      0.0000
      3  CHB       22.4320   31.3030   24.4800 C.2   600  HEM600      0.0000
      4  CHC       26.9220   32.5420   23.2470 C.2   600  HEM600      0.0000
      5  CHD       28.5340   28.7790   25.7250 C.2   600  HEM600      0.0000
      6  NA        23.6170   29.6020   25.6320 N.ar  600  HEM600      0.0000
      7  C1A       23.1940   28.5230   26.4340 C.ar  600  HEM600      0.0000
      8  C2A       21.7960   28.5000   26.6100 C.ar  600  HEM600      0.0000
      9  C3A       21.3380   29.5440   25.8990 C.ar  600  HEM600      0.0000
     10  C4A       22.4570   30.2310   25.2750 C.ar  600  HEM600      0.0000
     11  CMA       19.8690   29.9780   25.7360 C.3   600  HEM600      0.0000
     12  CAA       20.9380   27.5350   27.4100 C.3   600  HEM600      0.0000
     13  CBA       20.4970   26.3230   26.6500 C.3   600  HEM600      0.0000
     14  CGA       19.6070   25.3850   27.4680 C.2   600  HEM600      0.0000
     15  O1A       20.1040   24.6510   28.3560 O.co2 600  HEM600      0.0000
     16  O2A       18.4370   25.4020   27.2380 O.co2 600  HEM600      0.0000
     17  NB        24.7820   31.6120   24.0650 N.2   600  HEM600      0.0000
     18  C1B       23.5100   31.9860   23.8730 C.2   600  HEM600      0.0000
     19  C2B       23.3600   33.1350   23.0000 C.2   600  HEM600      0.0000
     20  C3B       24.7190   33.4910   22.6380 C.2   600  HEM600      0.0000
     21  C4B       25.5380   32.5490   23.3120 C.2   600  HEM600      0.0000
     22  CMB       22.0790   33.7730   22.5890 C.3   600  HEM600      0.0000
     23  CAB       25.0860   34.5930   21.7560 C.2   600  HEM600      0.0000
     24  CBB       24.7690   35.8590   21.9430 C.2   600  HEM600      0.0000
     25  NC        27.3650   30.5500   24.6480 N.ar  600  HEM600      0.0000
     26  C1C       27.7500   31.6220   23.8600 C.ar  600  HEM600      0.0000
     27  C2C       29.2060   31.6850   23.7460 C.ar  600  HEM600      0.0000
     28  C3C       29.7270   30.5860   24.4560 C.ar  600  HEM600      0.0000
     29  C4C       28.4870   29.9030   24.9910 C.ar  600  HEM600      0.0000
     30  CMC       29.9800   32.7570   22.9850 C.3   600  HEM600      0.0000
     31  CAC       31.0320   30.2360   24.6190 C.2   600  HEM600      0.0000
     32  CBC       31.9670   29.6120   23.9910 C.2   600  HEM600      0.0000
     33  ND        26.1650   28.4800   26.1430 N.2   600  HEM600      0.0000
     34  C1D       27.4490   28.1110   26.2560 C.2   600  HEM600      0.0000
     35  C2D       27.5760   26.8470   27.0490 C.2   600  HEM600      0.0000
     36  C3D       26.3000   26.5250   27.4040 C.2   600  HEM600      0.0000
     37  C4D       25.4180   27.5590   26.8330 C.2   600  HEM600      0.0000
     38  CMD       28.8900   26.1480   27.3470 C.3   600  HEM600      0.0000
     39  CAD       25.9020   25.3280   28.2280 C.3   600  HEM600      0.0000
     40  CBD       26.2750   25.5620   29.6600 C.3   600  HEM600      0.0000
     41  CGD       25.9820   24.4540   30.5720 C.2   600  HEM600      0.0000
     42  O1D       25.8740   23.2710   30.1310 O.co2 600  HEM600      0.0000
     43  O2D       25.8850   24.7030   31.7690 O.co2 600  HEM600      0.0000
@<TRIPOS>BOND
     1    23    24    2
     2    23    20    1
     3    22    19    1
     4    20    19    2
     5    20    21    1
     6    30    27    1
     7    19    18    1
     8     4    21    2
     9     4    26    1
    10    21    17    1
    11    27    26   ar
    12    27    28   ar
    13    26    25   ar
    14    18    17    2
    15    18     3    1
    16    32    31    2
    17    17     1    1
    18    28    31    1
    19    28    29   ar
    20     3    10    2
    21    25    29   ar
    22    25     1    1
    23    29     5    1
    24     1     6    1
    25     1    33    1
    26    10     6   ar
    27    10     9   ar
    28     6     7   ar
    29     5    34    2
    30    11     9    1
    31     9     8   ar
    32    33    34    1
    33    33    37    2
    34    34    35    1
    35     7     8   ar
    36     7     2    2
    37     8    12    1
    38    13    12    1
    39    13    14    1
    40    37     2    1
    41    37    36    1
    42    35    38    1
    43    35    36    2
    44    16    14   ar
    45    36    39    1
    46    14    15   ar
    47    39    40    1
    48    40    41    1
    49    42    41   ar
    50    41    43   ar
