@<TRIPOS>MOLECULE
3dap_NDP_A_1.pdb
 48 52 0 0 0
SMALL
GASTEIGER

@<TRIPOS>ATOM
      1  PA        -4.4710   61.6490    8.0310 P.3   401  NDP401      0.2189
      2  O1A       -4.8780   62.5040    9.1840 O.3   401  NDP401     -0.4371
      3  O2A       -5.4250   61.4790    6.9050 O.2   401  NDP401     -0.5170
      4  O5B       -3.0400   62.0800    7.5090 O.3   401  NDP401     -0.3112
      5  C5B       -2.6880   61.6520    6.0870 C.3   401  NDP401      0.1813
      6  C4B       -1.9880   62.5980    5.1450 C.3   401  NDP401      0.1820
      7  O4B       -2.9920   63.5450    4.6350 O.3   401  NDP401     -0.3136
      8  C3B       -0.9810   63.5620    5.9450 C.3   401  NDP401      0.2157
      9  O3B        0.3110   63.0590    5.6760 O.3   401  NDP401     -0.2175
     10  C2B       -1.1190   64.8490    5.1350 C.3   401  NDP401      0.2314
     11  O2B       -0.0380   65.2360    4.2300 O.3   401  NDP401     -0.2630
     12  C1B       -2.5220   64.8920    4.7440 C.3   401  NDP401      0.3158
     13  N9A       -3.4300   65.9050    5.2130 N.pl3 401  NDP401     -0.1439
     14  C8A       -3.5750   65.8080    6.5670 C.3   401  NDP401      0.3377
     15  N7A       -4.4930   66.6630    7.0780 N.2   401  NDP401     -0.2095
     16  C5A       -4.9710   67.2100    5.9550 C.2   401  NDP401      0.2526
     17  C6A       -5.9380   68.2010    5.8900 C.2   401  NDP401      0.4393
     18  N6A       -6.6300   68.6130    6.9570 N.pl3 401  NDP401      0.2180
     19  N1A       -6.3080   68.6710    4.6700 N.2   401  NDP401      0.0021
     20  C2A       -5.7620   68.0850    3.6100 C.3   401  NDP401      0.5254
     21  N3A       -4.7260   67.1720    3.6080 N.2   401  NDP401     -0.0055
     22  C4A       -4.3620   66.7590    4.8690 C.2   401  NDP401      0.3518
     23  O3        -4.1430   60.1970    8.6020 O.3   401  NDP401     -0.2703
     24  PN        -3.2430   59.7140    9.8520 P.3   401  NDP401      0.2189
     25  O1N       -4.1320   58.9840   10.7900 O.3   401  NDP401     -0.4371
     26  O2N       -2.4540   60.8470   10.3440 O.2   401  NDP401     -0.5170
     27  O5D       -2.2890   58.7720    9.0750 O.3   401  NDP401     -0.3112
     28  C5D       -1.9650   57.5400    9.7510 C.3   401  NDP401      0.1813
     29  C4D       -1.4160   56.4720    8.9460 C.3   401  NDP401      0.1799
     30  O4D       -0.6360   55.6240    9.7590 O.3   401  NDP401     -0.3327
     31  C3D       -2.4580   55.6370    8.2030 C.3   401  NDP401      0.2158
     32  O3D       -2.3860   55.7980    6.7750 O.3   401  NDP401     -0.2175
     33  C2D       -2.1680   54.1610    8.6780 C.3   401  NDP401      0.2309
     34  O2D       -1.8440   53.3010    7.6230 O.3   401  NDP401     -0.2158
     35  C1D       -0.9720   54.2660    9.6220 C.3   401  NDP401      0.2263
     36  N1N       -1.2460   53.7320   10.9660 N.pl3 401  NDP401     -0.2787
     37  C2N       -0.5670   52.6310   11.3390 C.3   401  NDP401      0.1244
     38  C3N       -0.6270   52.0310   12.5510 C.2   401  NDP401      0.0544
     39  C7N        0.0930   50.8700   12.9000 C.2   401  NDP401      0.2818
     40  O7N       -0.1380   50.2540   14.1370 O.2   401  NDP401     -0.2670
     41  N7N        0.9550   50.4210   11.9940 N.am  401  NDP401     -0.0839
     42  C4N       -1.4960   52.6970   13.4250 C.2   401  NDP401      0.0033
     43  C5N       -2.1840   53.9150   13.1470 C.2   401  NDP401      0.0157
     44  C6N       -1.9490   54.4980   11.8900 C.2   401  NDP401      0.0633
     45  P2B        0.4070   66.7400    3.9330 P.3   401  NDP401      0.5328
     46  O1X       -0.7350   67.3970    3.2640 O.3   401  NDP401     -0.1145
     47  O2X        0.7200   67.3300    5.2510 O.3   401  NDP401     -0.1145
     48  O3X        1.5890   66.6290    3.0430 O.2   401  NDP401     -0.2224
@<TRIPOS>BOND
     1    48    45    2
     2    46    45    1
     3    21    20    1
     4    21    22    2
     5    20    19    1
     6    45    11    1
     7    45    47    1
     8    11    10    1
     9     7    12    1
    10     7     6    1
    11    19    17    2
    12    12    10    1
    13    12    13    1
    14    22    13    1
    15    22    16    1
    16    10     8    1
    17     6     8    1
    18     6     5    1
    19    13    14    1
    20     9     8    1
    21    17    16    1
    22    17    18    1
    23    16    15    2
    24     5     4    1
    25    14    15    1
    26    32    31    1
    27     3     1    2
    28     4     1    1
    29    34    33    1
    30     1    23    1
    31     1     2    1
    32    31    33    1
    33    31    29    1
    34    23    24    1
    35    33    35    1
    36    29    28    1
    37    29    30    1
    38    27    28    1
    39    27    24    1
    40    35    30    1
    41    35    36    1
    42    24    26    2
    43    24    25    1
    44    36    37    1
    45    36    44    1
    46    37    38    1
    47    44    43    2
    48    41    39   am
    49    38    39    1
    50    38    42    2
    51    39    40    2
    52    43    42    1
