@<TRIPOS>MOLECULE
3dap_DA3_B_1.pdb
 14 14 0 0 0
SMALL
GASTEIGER

@<TRIPOS>ATOM
      1  N1        13.3630   32.8960   38.0110 N.3   950  DA3950     -0.1207
      2  C2        12.0840   32.2110   38.2210 C.3   950  DA3950      0.1980
      3  C1        12.2620   30.6830   38.3260 C.2   950  DA3950      0.3820
      4  O1        13.4480   30.1880   38.4310 O.co2 950  DA3950     -0.2440
      5  O2        11.2620   29.9390   38.3030 O.co2 950  DA3950     -0.2440
      6  O3        11.0360   34.7830   38.0470 O.2   950  DA3950     -0.3808
      7  O4         8.5320   33.5960   41.5580 O.co2 950  DA3950     -0.2391
      8  N2        10.9010   35.0010   39.3790 N.2   950  DA3950     -0.0807
      9  C3        11.0590   32.6520   37.1270 C.3   950  DA3950      0.0774
     10  C4        10.1320   33.8270   37.5420 C.3   950  DA3950      0.2045
     11  C5         9.2730   33.4710   38.7830 C.3   950  DA3950      0.1024
     12  C6         9.9180   34.3240   39.8210 C.2   950  DA3950      0.1799
     13  C7         9.4350   34.3430   41.2530 C.2   950  DA3950      0.4043
     14  O5         9.9110   35.1000   42.0950 O.co2 950  DA3950     -0.2391
@<TRIPOS>BOND
     1     9    10    1
     2     9     2    1
     3    10     6    1
     4    10    11    1
     5     1     2    1
     6     6     8    1
     7     2     3    1
     8     5     3   ar
     9     3     4   ar
    10    11    12    1
    11     8    12    2
    12    12    13    1
    13    13     7   ar
    14    13    14   ar
