@<TRIPOS>MOLECULE
3das_ARA_A_1.pdb
 10 10 0 0 0
SMALL
GASTEIGER

@<TRIPOS>ATOM
      1  C1         5.1200   30.7030   78.5180 C.3   348  ARA348      0.3024
      2  C2         6.3300   31.6170   78.7070 C.3   348  ARA348      0.2434
      3  C3         7.0220   31.9300   77.3820 C.3   348  ARA348      0.2199
      4  C4         7.1740   30.6800   76.5210 C.3   348  ARA348      0.2143
      5  C5         5.8790   29.8770   76.4570 C.3   348  ARA348      0.1804
      6  O1         4.6210   30.3210   79.7800 O.3   348  ARA348     -0.1869
      7  O2         5.9220   32.8200   79.3180 O.3   348  ARA348     -0.2148
      8  O3         8.3030   32.4730   77.6290 O.3   348  ARA348     -0.2174
      9  O4         8.1650   29.8600   77.0940 O.3   348  ARA348     -0.2176
     10  O5         5.4900   29.5530   77.7770 O.3   348  ARA348     -0.3237
@<TRIPOS>BOND
     1     5     4    1
     2     5    10    1
     3     4     9    1
     4     4     3    1
     5     3     8    1
     6     3     2    1
     7    10     1    1
     8     1     2    1
     9     1     6    1
    10     2     7    1
