@<TRIPOS>MOLECULE
3das_PQQ_A_1.pdb
 24 26 0 0 0
SMALL
GASTEIGER

@<TRIPOS>ATOM
      1  N1        26.1390    9.0070   66.2300 N.2   4331  PQQ4331    -0.3986
      2  C2        27.0090   10.0500   66.1430 C.2   4331  PQQ4331     0.2104
      3  C2X       27.3570   10.6670   64.8450 C.2   4331  PQQ4331     0.4168
      4  O2A       27.0660    9.9780   63.8360 O.co2 4331  PQQ4331    -0.2377
      5  O2B       28.0120   11.7330   64.7850 O.co2 4331  PQQ4331    -0.2377
      6  C3        27.5620   10.3970   67.3770 C.2   4331  PQQ4331     0.0444
      7  C3A       26.9550    9.4740   68.2730 C.2   4331  PQQ4331     0.0711
      8  C1A       26.0620    8.5980   67.5030 C.2   4331  PQQ4331     0.1232
      9  C4        27.0860    9.2810   69.7410 C.2   4331  PQQ4331     0.2387
     10  O4        27.8410   10.0350   70.4210 O.2   4331  PQQ4331    -0.2830
     11  C5        26.2950    8.1990   70.3660 C.2   4331  PQQ4331     0.2601
     12  O5        26.3470    7.9660   71.6090 O.2   4331  PQQ4331    -0.2807
     13  C6A       25.4220    7.3620   69.5090 C.2   4331  PQQ4331     0.1617
     14  N6        24.7250    6.3910   70.1010 N.2   4331  PQQ4331    -0.3954
     15  C7        23.8960    5.5790   69.4220 C.2   4331  PQQ4331     0.2103
     16  C7X       23.2200    4.5520   70.2620 C.2   4331  PQQ4331     0.4168
     17  O7A       23.3970    4.6190   71.5070 O.co2 4331  PQQ4331    -0.2377
     18  O7B       22.5860    3.6320   69.7090 O.co2 4331  PQQ4331    -0.2377
     19  C8        23.6960    5.6820   68.0510 C.2   4331  PQQ4331     0.0420
     20  C9        24.3790    6.6460   67.3120 C.2   4331  PQQ4331     0.0734
     21  C9X       24.0940    6.6900   65.8440 C.2   4331  PQQ4331     0.3847
     22  O9A       22.9070    6.4340   65.5170 O.co2 4331  PQQ4331    -0.2409
     23  O9B       24.9770    6.9890   65.0170 O.co2 4331  PQQ4331    -0.2409
     24  C9A       25.2980    7.5690   68.0500 C.3   4331  PQQ4331     0.1366
@<TRIPOS>BOND
     1     4     3   ar
     2     5     3   ar
     3     3     2    1
     4    23    21   ar
     5    22    21   ar
     6    21    20    1
     7     2     1    2
     8     2     6    1
     9     1     8    2
    10    20    24    1
    11    20    19    2
    12     6     7    2
    13     8    24    1
    14     8     7    1
    15    24    13    1
    16    19    15    1
    17     7     9    1
    18    15    14    2
    19    15    16    1
    20    13    14    2
    21    13    11    1
    22    18    16   ar
    23     9    11    1
    24     9    10    2
    25    16    17   ar
    26    11    12    2
