@<TRIPOS>MOLECULE
3dat_MTX_A_1.pdb
 33 35 0 0 0
SMALL
GASTEIGER

@<TRIPOS>ATOM
      1  N1        -3.9420   -6.5530   17.5790 N.2   201  MTX201     -0.2684
      2  C2        -4.3320   -7.8300   17.4160 C.1   201  MTX201      0.2519
      3  NA2       -3.7150   -8.7140   18.1570 N.pl3 201  MTX201     -0.0226
      4  N3        -5.3150   -8.1820   16.5030 N.2   201  MTX201     -0.3033
      5  C4        -5.9240   -7.2080   15.7440 C.2   201  MTX201      0.2728
      6  NA4       -6.9490   -7.5230   14.9420 N.pl3 201  MTX201     -0.0887
      7  C4A       -5.5290   -5.8820   15.9180 C.2   201  MTX201      0.2518
      8  N5        -6.0950   -4.8720   15.1790 N.2   201  MTX201     -0.3917
      9  C6        -5.7090   -3.5620   15.3600 C.2   201  MTX201      0.1330
     10  C7        -4.7190   -3.2390   16.2910 C.3   201  MTX201      0.1930
     11  N8        -4.1190   -4.2530   17.0260 N.2   201  MTX201     -0.1998
     12  C8A       -4.5320   -5.5600   16.8440 C.1   201  MTX201      0.1314
     13  C9        -6.4010   -2.5180   14.5270 C.3   201  MTX201      0.1481
     14  N10       -5.7310   -1.2440   14.4730 N.pl3 201  MTX201     -0.2999
     15  CM        -6.5940   -0.0880   14.8060 C.3   201  MTX201      0.1125
     16  C11       -2.0360   -0.8250   12.3900 C.ar  201  MTX201      0.0551
     17  C12       -2.6810    0.3310   12.8670 C.ar  201  MTX201      0.0058
     18  C13       -3.9050    0.2010   13.5450 C.ar  201  MTX201      0.0147
     19  C14       -4.4740   -1.0780   13.7630 C.ar  201  MTX201      0.0482
     20  C15       -3.7890   -2.2100   13.2880 C.ar  201  MTX201      0.0147
     21  C16       -2.6720   -2.0680   12.4630 C.ar  201  MTX201      0.0058
     22  C         -0.7190   -0.7770   11.6700 C.2   201  MTX201      0.2652
     23  O         -0.2820    0.3700   10.9590 O.2   201  MTX201     -0.2684
     24  N          0.0270   -1.8700   11.7770 N.am  201  MTX201     -0.1918
     25  CA         1.1300   -2.1270   10.8760 C.3   201  MTX201      0.1986
     26  CT         0.8430   -3.3450   10.0380 C.2   201  MTX201      0.3842
     27  O1         0.4180   -4.4000   10.5640 O.co2 201  MTX201     -0.2437
     28  O2         1.0160   -3.2950    8.7980 O.co2 201  MTX201     -0.2437
     29  CB         2.4560   -2.2500   11.6400 C.3   201  MTX201      0.0451
     30  CG         2.8860   -0.9300   12.2970 C.3   201  MTX201      0.1164
     31  CD         2.9230    0.2660   11.3540 C.2   201  MTX201      0.3649
     32  OE1        3.0820    0.1140   10.1130 O.co2 201  MTX201     -0.2457
     33  OE2        2.8060    1.4420   11.7970 O.co2 201  MTX201     -0.2457
@<TRIPOS>BOND
     1    28    26   ar
     2    26    27   ar
     3    26    25    1
     4    32    31   ar
     5    25    29    1
     6    25    24    1
     7    23    22    2
     8    31    33   ar
     9    31    30    1
    10    29    30    1
    11    22    24   am
    12    22    16    1
    13    16    21   ar
    14    16    17   ar
    15    21    20   ar
    16    17    18   ar
    17    20    19   ar
    18    18    19   ar
    19    19    14    1
    20    14    13    1
    21    14    15    1
    22    13     9    1
    23     6     5    1
    24     8     9    2
    25     8     7    2
    26     9    10    1
    27     5     7    1
    28     5     4    2
    29     7    12    1
    30    10    11    1
    31     4     2    2
    32    12    11    2
    33    12     1    2
    34     2     1    2
    35     2     3    1
