@<TRIPOS>MOLECULE
3dat_NAP_A_1.pdb
 48 52 0 0 0
SMALL
GASTEIGER

@<TRIPOS>ATOM
      1  PA       -16.4120   -3.4660   12.6210 P.3   202  NAP202      0.2189
      2  O1A      -16.8790   -4.8830   12.8170 O.3   202  NAP202     -0.4371
      3  O2A      -14.9320   -3.3620   12.5100 O.2   202  NAP202     -0.5170
      4  O5B      -17.0570   -2.9570   11.2640 O.3   202  NAP202     -0.3112
      5  C5B      -18.4610   -2.9030   11.2320 C.3   202  NAP202      0.1813
      6  C4B      -18.9530   -2.7240    9.8090 C.3   202  NAP202      0.1820
      7  O4B      -18.9030   -3.9510    9.1070 O.3   202  NAP202     -0.3136
      8  C3B      -20.4360   -2.3720    9.8030 C.3   202  NAP202      0.2157
      9  O3B      -20.6400   -1.0170   10.1480 O.3   202  NAP202     -0.2175
     10  C2B      -20.7870   -2.7350    8.3700 C.3   202  NAP202      0.2314
     11  O2B      -20.2680   -1.7600    7.4810 O.3   202  NAP202     -0.2630
     12  C1B      -19.9470   -3.9810    8.1510 C.3   202  NAP202      0.3158
     13  N9A      -20.8470   -5.1340    8.3230 N.pl3 202  NAP202     -0.1439
     14  C8A      -21.3960   -5.5930    9.4920 C.3   202  NAP202      0.3377
     15  N7A      -22.1950   -6.6450    9.1640 N.2   202  NAP202     -0.2095
     16  C5A      -22.1640   -6.8430    7.8310 C.2   202  NAP202      0.2526
     17  C6A      -22.7920   -7.7630    6.9860 C.2   202  NAP202      0.4393
     18  N6A      -23.6090   -8.7110    7.4810 N.pl3 202  NAP202      0.2180
     19  N1A      -22.5350   -7.7180    5.6250 N.2   202  NAP202      0.0021
     20  C2A      -21.7020   -6.7470    5.0960 C.3   202  NAP202      0.5254
     21  N3A      -21.1120   -5.8360    5.9480 N.2   202  NAP202     -0.0055
     22  C4A      -21.3210   -5.8930    7.2880 C.2   202  NAP202      0.3518
     23  O3       -17.0590   -2.5530   13.7540 O.3   202  NAP202     -0.2703
     24  PN       -17.0100   -2.5710   15.3630 P.3   202  NAP202      0.2189
     25  O1N      -17.7860   -3.7080   15.8630 O.3   202  NAP202     -0.4371
     26  O2N      -17.3890   -1.2450   15.8150 O.2   202  NAP202     -0.5170
     27  O5D      -15.4630   -2.7430   15.6930 O.3   202  NAP202     -0.3112
     28  C5D      -14.6150   -1.6390   15.4670 C.3   202  NAP202      0.1813
     29  C4D      -14.0110   -1.1590   16.7860 C.3   202  NAP202      0.1799
     30  O4D      -13.2470   -2.1930   17.3700 O.3   202  NAP202     -0.3327
     31  C3D      -13.0420    0.0080   16.6090 C.3   202  NAP202      0.2158
     32  O3D      -12.9650    0.7060   17.8360 O.3   202  NAP202     -0.2175
     33  C2D      -11.7370   -0.7100   16.3690 C.3   202  NAP202      0.2309
     34  O2D      -10.6310    0.0770   16.7110 O.3   202  NAP202     -0.2158
     35  C1D      -11.8720   -1.8770   17.3340 C.3   202  NAP202      0.2263
     36  N1N      -11.0500   -3.0360   16.9500 N.pl3 202  NAP202     -0.2787
     37  C2N      -10.0890   -3.4780   17.8220 C.3   202  NAP202      0.1244
     38  C3N       -9.2920   -4.5770   17.4940 C.2   202  NAP202      0.0544
     39  C7N       -8.3660   -5.1480   18.4990 C.2   202  NAP202      0.2818
     40  O7N       -7.7420   -6.3880   18.2450 O.2   202  NAP202     -0.2670
     41  N7N       -8.2000   -4.4560   19.6380 N.am  202  NAP202     -0.0839
     42  C4N       -9.4790   -5.2230   16.2860 C.2   202  NAP202      0.0033
     43  C5N      -10.4590   -4.7500   15.4080 C.2   202  NAP202      0.0157
     44  C6N      -11.2460   -3.6580   15.7530 C.2   202  NAP202      0.0633
     45  P2B      -21.2150   -0.6460    6.7830 P.3   202  NAP202      0.5328
     46  O1X      -20.3530    0.0710    5.8210 O.2   202  NAP202     -0.2224
     47  O2X      -22.3550   -1.2850    6.0380 O.3   202  NAP202     -0.1145
     48  O3X      -21.8260    0.1480    7.9130 O.3   202  NAP202     -0.1145
@<TRIPOS>BOND
     1    20    19    1
     2    20    21    1
     3    19    17    2
     4    46    45    2
     5    21    22    2
     6    47    45    1
     7    45    11    1
     8    45    48    1
     9    17    18    1
    10    17    16    1
    11    22    16    1
    12    22    13    1
    13    11    10    1
    14    16    15    2
    15    12    13    1
    16    12    10    1
    17    12     7    1
    18    13    14    1
    19    10     8    1
    20     7     6    1
    21    15    14    1
    22     8     6    1
    23     8     9    1
    24     6     5    1
    25     5     4    1
    26     4     1    1
    27     3     1    2
    28     1     2    1
    29     1    23    1
    30    23    24    1
    31    24    27    1
    32    24    26    2
    33    24    25    1
    34    43    44    2
    35    43    42    1
    36    28    27    1
    37    28    29    1
    38    44    36    1
    39    42    38    2
    40    33    31    1
    41    33    34    1
    42    33    35    1
    43    31    29    1
    44    31    32    1
    45    29    30    1
    46    36    35    1
    47    36    37    1
    48    35    30    1
    49    38    37    1
    50    38    39    1
    51    40    39    2
    52    39    41   am
