@<TRIPOS>MOLECULE
3dau_NAP_A_1.pdb
 48 52 0 0 0
SMALL
GASTEIGER

@<TRIPOS>ATOM
      1  PA        33.4290    0.3130   -9.5450 P.3   202  NAP202      0.2189
      2  O1A       32.5630   -0.8280   -9.8250 O.3   202  NAP202     -0.4371
      3  O2A       33.0150    1.6630  -10.0220 O.2   202  NAP202     -0.5170
      4  O5B       33.6250    0.4790   -7.9840 O.3   202  NAP202     -0.3112
      5  C5B       34.2090   -0.6010   -7.2260 C.3   202  NAP202      0.1813
      6  C4B       33.9880   -0.2540   -5.7530 C.3   202  NAP202      0.1820
      7  O4B       32.5930   -0.3060   -5.3850 O.3   202  NAP202     -0.3136
      8  C3B       34.5990   -1.2950   -4.8110 C.3   202  NAP202      0.2157
      9  O3B       35.9870   -0.9930   -4.6820 O.3   202  NAP202     -0.2175
     10  C2B       33.8100   -1.0590   -3.5490 C.3   202  NAP202      0.2314
     11  O2B       34.2490    0.1400   -2.9320 O.3   202  NAP202     -0.2630
     12  C1B       32.4270   -0.8710   -4.1050 C.3   202  NAP202      0.3158
     13  N9A       31.6600   -2.1000   -4.1990 N.pl3 202  NAP202     -0.1439
     14  C8A       31.3210   -2.8270   -5.3410 C.3   202  NAP202      0.3377
     15  N7A       30.5450   -3.8940   -5.0100 N.2   202  NAP202     -0.2095
     16  C5A       30.4210   -3.8470   -3.6350 C.2   202  NAP202      0.2526
     17  C6A       29.8000   -4.6430   -2.7080 C.2   202  NAP202      0.4393
     18  N6A       29.1100   -5.7190   -3.0540 N.pl3 202  NAP202      0.2180
     19  N1A       29.8240   -4.2330   -1.4060 N.2   202  NAP202      0.0021
     20  C2A       30.5330   -3.1650   -0.9390 C.3   202  NAP202      0.5254
     21  N3A       31.1510   -2.3340   -1.8010 N.2   202  NAP202     -0.0055
     22  C4A       31.1110   -2.7190   -3.1340 C.2   202  NAP202      0.3518
     23  O3        34.9540   -0.0260   -9.9380 O.3   202  NAP202     -0.2703
     24  PN        35.7110   -0.7490  -11.1480 P.3   202  NAP202      0.2189
     25  O1N       35.1800   -2.1460  -11.2990 O.2   202  NAP202     -0.5170
     26  O2N       37.1630   -0.4210  -10.9590 O.3   202  NAP202     -0.4371
     27  O5D       35.1530    0.0040  -12.4480 O.3   202  NAP202     -0.3112
     28  C5D       35.5270    1.3350  -12.6910 C.3   202  NAP202      0.1813
     29  C4D       35.8740    1.4830  -14.1470 C.3   202  NAP202      0.1799
     30  O4D       34.7070    1.2930  -14.9240 O.3   202  NAP202     -0.3327
     31  C3D       36.5100    2.7920  -14.5370 C.3   202  NAP202      0.2158
     32  O3D       37.4630    2.6100  -15.5960 O.3   202  NAP202     -0.2175
     33  C2D       35.2980    3.5510  -15.1090 C.3   202  NAP202      0.2309
     34  O2D       35.6470    4.5180  -16.0690 O.3   202  NAP202     -0.2158
     35  C1D       34.5670    2.4120  -15.8000 C.3   202  NAP202      0.2263
     36  N1N       33.1220    2.6050  -16.0350 N.pl3 202  NAP202     -0.2787
     37  C2N       32.6590    2.4310  -17.3160 C.3   202  NAP202      0.1244
     38  C3N       31.3110    2.6110  -17.5860 C.2   202  NAP202      0.0544
     39  C7N       30.9500    2.4070  -18.9910 C.2   202  NAP202      0.2818
     40  O7N       29.6690    2.2470  -19.2190 O.2   202  NAP202     -0.2670
     41  N7N       31.7650    2.4150  -20.0310 N.am  202  NAP202     -0.0839
     42  C4N       30.3130    2.9930  -16.5760 C.2   202  NAP202      0.0033
     43  C5N       30.8680    3.1740  -15.2720 C.2   202  NAP202      0.0157
     44  C6N       32.2490    2.9830  -14.9820 C.2   202  NAP202      0.0633
     45  P2B       35.2210    0.2460   -1.6340 P.3   202  NAP202      0.5328
     46  O1X       35.0420    1.6280   -1.0510 O.3   202  NAP202     -0.1145
     47  O2X       34.7320   -0.8760   -0.7420 O.3   202  NAP202     -0.1145
     48  O3X       36.6020    0.0940   -2.2330 O.2   202  NAP202     -0.2224
@<TRIPOS>BOND
     1    41    39   am
     2    40    39    2
     3    39    38    1
     4    38    37    1
     5    38    42    2
     6    37    36    1
     7    42    43    1
     8    34    33    1
     9    36    35    1
    10    36    44    1
    11    35    33    1
    12    35    30    1
    13    32    31    1
    14    43    44    2
    15    33    31    1
    16    30    29    1
    17    31    29    1
    18    29    28    1
    19    28    27    1
    20    27    24    1
    21    25    24    2
    22    24    26    1
    23    24    23    1
    24     3     1    2
    25    23     1    1
    26     2     1    1
    27     1     4    1
    28     4     5    1
    29     5     6    1
    30     6     7    1
    31     6     8    1
    32     7    12    1
    33    14    15    1
    34    14    13    1
    35    15    16    2
    36     8     9    1
    37     8    10    1
    38    13    12    1
    39    13    22    1
    40    12    10    1
    41    16    22    1
    42    16    17    1
    43    10    11    1
    44    22    21    2
    45    18    17    1
    46    11    45    1
    47    17    19    2
    48    48    45    2
    49    21    20    1
    50    45    46    1
    51    45    47    1
    52    19    20    1
