@<TRIPOS>MOLECULE
3dau_MTX_A_1.pdb
 33 35 0 0 0
SMALL
GASTEIGER

@<TRIPOS>ATOM
      1  N1        27.4880    5.7070  -20.6240 N.2   201  MTX201     -0.2684
      2  C2        26.5390    4.7220  -20.6480 C.1   201  MTX201      0.2519
      3  NA2       25.9410    4.4490  -21.7960 N.pl3 201  MTX201     -0.0226
      4  N3        26.2840    3.9880  -19.5150 N.2   201  MTX201     -0.3033
      5  C4        26.8710    4.2920  -18.3100 C.2   201  MTX201      0.2728
      6  NA4       26.6130    3.5080  -17.2270 N.pl3 201  MTX201     -0.0887
      7  C4A       27.7860    5.3540  -18.2790 C.2   201  MTX201      0.2518
      8  N5        28.3360    5.7540  -17.0830 N.2   201  MTX201     -0.3917
      9  C6        29.1990    6.7760  -17.0200 C.2   201  MTX201      0.1330
     10  C7        29.5500    7.4360  -18.2240 C.3   201  MTX201      0.1930
     11  N8        28.9830    7.0730  -19.4450 N.2   201  MTX201     -0.1998
     12  C8A       28.0700    6.0590  -19.4640 C.1   201  MTX201      0.1314
     13  C9        29.8200    7.0820  -15.6670 C.3   201  MTX201      0.1481
     14  N10       30.3560    8.4440  -15.6770 N.pl3 201  MTX201     -0.2999
     15  CM        31.7780    8.6720  -15.4720 C.3   201  MTX201      0.1125
     16  C11       27.9680   11.7810  -16.4060 C.ar  201  MTX201      0.0551
     17  C12       29.3600   11.9340  -16.2570 C.ar  201  MTX201      0.0058
     18  C13       30.1730   10.8380  -16.0320 C.ar  201  MTX201      0.0147
     19  C14       29.5230    9.5840  -15.9070 C.ar  201  MTX201      0.0482
     20  C15       28.1300    9.4280  -16.0310 C.ar  201  MTX201      0.0147
     21  C16       27.3230   10.5380  -16.2840 C.ar  201  MTX201      0.0058
     22  C         27.0780   12.9730  -16.6740 C.2   201  MTX201      0.2652
     23  O         27.6330   14.1790  -16.5350 O.2   201  MTX201     -0.2684
     24  N         25.8360   12.8230  -17.1160 N.am  201  MTX201     -0.1918
     25  CA        24.8970   13.9370  -17.2970 C.3   201  MTX201      0.1986
     26  CT        23.6400   13.3980  -16.6550 C.2   201  MTX201      0.3842
     27  O1        23.3340   12.1440  -16.6410 O.co2 201  MTX201     -0.2437
     28  O2        22.8410   14.1910  -16.0500 O.co2 201  MTX201     -0.2437
     29  CB        24.6540   14.2940  -18.8020 C.3   201  MTX201      0.0451
     30  CG        25.6010   15.1780  -19.7340 C.3   201  MTX201      0.1164
     31  CD        25.0670   15.2300  -21.2230 C.2   201  MTX201      0.3649
     32  OE1       23.8100   15.0440  -21.2960 O.co2 201  MTX201     -0.2457
     33  OE2       25.7210   15.3830  -22.4340 O.co2 201  MTX201     -0.2457
@<TRIPOS>BOND
     1    33    31   ar
     2     3     2    1
     3    32    31   ar
     4    31    30    1
     5     2     1    2
     6     2     4    2
     7     1    12    2
     8    30    29    1
     9     4     5    2
    10    12    11    2
    11    12     7    1
    12    11    10    1
    13    29    25    1
    14     5     7    1
    15     5     6    1
    16     7     8    2
    17    10     9    1
    18    25    24    1
    19    25    26    1
    20    24    22   am
    21     8     9    2
    22     9    13    1
    23    22    23    2
    24    22    16    1
    25    26    27   ar
    26    26    28   ar
    27    16    21   ar
    28    16    17   ar
    29    21    20   ar
    30    17    18   ar
    31    18    19   ar
    32    20    19   ar
    33    19    14    1
    34    14    13    1
    35    14    15    1
