@<TRIPOS>MOLECULE
3daw_ATP_A_1.pdb
 31 33 0 0 0
SMALL
GASTEIGER

@<TRIPOS>ATOM
      1  PG         8.9630   -2.0460   24.2490 P.3   377  ATP377      0.5373
      2  O1G        8.7520   -3.2720   23.3850 O.2   377  ATP377     -0.2221
      3  O2G       10.2330   -1.2960   23.9070 O.3   377  ATP377     -0.1143
      4  O3G        7.7050   -1.1940   24.3870 O.3   377  ATP377     -0.1143
      5  PB        10.0060   -2.1510   26.9970 P.3   377  ATP377      0.2277
      6  O1B        9.2180   -2.4050   28.2590 O.3   377  ATP377     -0.4368
      7  O2B       10.6230   -0.7860   26.8520 O.2   377  ATP377     -0.5168
      8  O3B        9.0870   -2.6370   25.7590 O.3   377  ATP377     -0.2258
      9  PA        12.6100   -3.1190   27.5450 P.3   377  ATP377      0.2189
     10  O1A       12.5560   -2.5400   28.9290 O.3   377  ATP377     -0.4371
     11  O2A       13.6070   -2.5190   26.5840 O.2   377  ATP377     -0.5170
     12  O3A       11.1600   -3.2810   26.8630 O.3   377  ATP377     -0.2700
     13  O5'       13.0030   -4.6740   27.7380 O.3   377  ATP377     -0.3112
     14  C5'       12.2220   -5.6050   28.5090 C.3   377  ATP377      0.1813
     15  C4'       12.2520   -6.9980   27.8800 C.3   377  ATP377      0.1821
     16  O4'       13.6120   -7.3770   27.6610 O.3   377  ATP377     -0.3135
     17  C3'       11.6320   -8.0810   28.7580 C.3   377  ATP377      0.2184
     18  O3'       10.8730   -8.9740   27.9430 O.3   377  ATP377     -0.2174
     19  C2'       12.8330   -8.7990   29.3510 C.3   377  ATP377      0.2570
     20  O2'       12.6420  -10.1840   29.7360 O.3   377  ATP377     -0.2130
     21  C1'       13.8280   -8.6430   28.2110 C.3   377  ATP377      0.3186
     22  N9        15.1620   -8.7660   28.7710 N.pl3 377  ATP377     -0.1439
     23  C8        15.6880   -8.0600   29.7890 C.3   377  ATP377      0.3377
     24  N7        16.9480   -8.4890   30.0550 N.2   377  ATP377     -0.2095
     25  C5        17.2130   -9.4880   29.1840 C.2   377  ATP377      0.2526
     26  C6        18.3360  -10.4060   28.9050 C.2   377  ATP377      0.4393
     27  N6        19.4780  -10.3310   29.6130 N.pl3 377  ATP377      0.2180
     28  N1        18.1980  -11.3050   27.9150 N.2   377  ATP377      0.0021
     29  C2        17.0670  -11.4160   27.1960 C.3   377  ATP377      0.5254
     30  N3        16.0020  -10.6250   27.3950 N.2   377  ATP377     -0.0055
     31  C4        16.0240   -9.6650   28.3470 C.2   377  ATP377      0.3518
@<TRIPOS>BOND
     1     2     1    2
     2     3     1    1
     3     1     4    1
     4     1     8    1
     5     8     5    1
     6    11     9    2
     7     7     5    2
     8    12     5    1
     9    12     9    1
    10     5     6    1
    11    29    30    1
    12    29    28    1
    13    30    31    2
    14     9    13    1
    15     9    10    1
    16    16    15    1
    17    16    21    1
    18    13    14    1
    19    15    14    1
    20    15    17    1
    21    28    26    2
    22    18    17    1
    23    21    22    1
    24    21    19    1
    25    31    22    1
    26    31    25    1
    27    17    19    1
    28    22    23    1
    29    26    25    1
    30    26    27    1
    31    25    24    2
    32    19    20    1
    33    23    24    1
