@<TRIPOS>MOLECULE
3dax_HEM_A_1.pdb
 43 50 0 0 0
SMALL
GASTEIGER

@<TRIPOS>ATOM
      1 FE         16.1250   19.2580  -40.7570 Fe    601  HEM601      0.0000
      2  CHA       15.7640   15.9110  -41.4300 C.2   601  HEM601      0.0000
      3  CHB       18.3930   18.6170  -38.3420 C.2   601  HEM601      0.0000
      4  CHC       15.9650   22.5440  -39.6570 C.2   601  HEM601      0.0000
      5  CHD       13.8970   20.0060  -43.1710 C.2   601  HEM601      0.0000
      6  NA        16.8900   17.6150  -40.0090 N.2   601  HEM601      0.0000
      7  C1A       16.6490   16.3270  -40.4450 C.2   601  HEM601      0.0000
      8  C2A       17.4870   15.4540  -39.6640 C.2   601  HEM601      0.0000
      9  C3A       18.1950   16.1780  -38.8280 C.2   601  HEM601      0.0000
     10  C4A       17.8430   17.5510  -39.0120 C.2   601  HEM601      0.0000
     11  CMA       19.2090   15.6020  -37.8420 C.3   601  HEM601      0.0000
     12  CAA       17.5370   13.9130  -39.7640 C.3   601  HEM601      0.0000
     13  CBA       18.5590   13.4390  -40.7710 C.3   601  HEM601      0.0000
     14  CGA       18.7110   11.9370  -40.5410 C.2   601  HEM601      0.0000
     15  O1A       17.7060   11.2140  -40.8030 O.co2 601  HEM601      0.0000
     16  O2A       19.8040   11.4630  -40.0750 O.co2 601  HEM601      0.0000
     17  NB        16.9870   20.3830  -39.2290 N.ar  601  HEM601      0.0000
     18  C1B       17.9590   19.9070  -38.4140 C.ar  601  HEM601      0.0000
     19  C2B       18.4320   21.0100  -37.6090 C.ar  601  HEM601      0.0000
     20  C3B       17.7470   22.1030  -37.9890 C.ar  601  HEM601      0.0000
     21  C4B       16.8340   21.7090  -39.0060 C.ar  601  HEM601      0.0000
     22  CMB       19.5190   20.8990  -36.5200 C.3   601  HEM601      0.0000
     23  CAB       17.8330   23.5380  -37.4680 C.2   601  HEM601      0.0000
     24  CBB       18.8190   23.9110  -36.7040 C.2   601  HEM601      0.0000
     25  NC        15.0990   20.9610  -41.2630 N.2   601  HEM601      0.0000
     26  C1C       15.2670   22.2230  -40.7760 C.2   601  HEM601      0.0000
     27  C2C       14.6090   23.1510  -41.6510 C.2   601  HEM601      0.0000
     28  C3C       14.0300   22.4600  -42.6270 C.2   601  HEM601      0.0000
     29  C4C       14.3080   21.0550  -42.3970 C.2   601  HEM601      0.0000
     30  CMC       14.5590   24.6780  -41.4950 C.3   601  HEM601      0.0000
     31  CAC       13.2390   23.1560  -43.7460 C.2   601  HEM601      0.0000
     32  CBC       12.1140   22.6700  -44.1870 C.2   601  HEM601      0.0000
     33  ND        15.0170   18.0880  -42.1050 N.ar  601  HEM601      0.0000
     34  C1D       14.0940   18.6690  -42.9570 C.ar  601  HEM601      0.0000
     35  C2D       13.3780   17.6040  -43.6340 C.ar  601  HEM601      0.0000
     36  C3D       13.9520   16.2910  -43.1200 C.ar  601  HEM601      0.0000
     37  C4D       14.9790   16.7050  -42.1690 C.ar  601  HEM601      0.0000
     38  CMD       12.2680   17.7850  -44.6920 C.3   601  HEM601      0.0000
     39  CAD       13.4990   14.8540  -43.5340 C.3   601  HEM601      0.0000
     40  CBD       14.5730   14.1540  -44.4050 C.3   601  HEM601      0.0000
     41  CGD       14.0470   12.8790  -45.1090 C.2   601  HEM601      0.0000
     42  O1D       13.8250   12.9040  -46.3730 O.co2 601  HEM601      0.0000
     43  O2D       13.8640   11.8300  -44.4100 O.co2 601  HEM601      0.0000
@<TRIPOS>BOND
     1    42    41   ar
     2    41    43   ar
     3    41    40    1
     4    38    35    1
     5    40    39    1
     6    32    31    2
     7    31    28    1
     8    35    36   ar
     9    35    34   ar
    10    39    36    1
    11     5    34    2
    12     5    29    1
    13    36    37   ar
    14    34    33   ar
    15    28    29    1
    16    28    27    2
    17    29    25    2
    18    37    33   ar
    19    37     2    2
    20    33     1    1
    21    27    30    1
    22    27    26    1
    23     2     7    1
    24    25    26    1
    25    25     1    1
    26    15    14   ar
    27    26     4    2
    28    13    14    1
    29    13    12    1
    30     1     6    1
    31     1    17    1
    32    14    16   ar
    33     7     6    2
    34     7     8    1
    35     6    10    1
    36    12     8    1
    37     8     9    2
    38     4    21    1
    39    17    21   ar
    40    17    18   ar
    41    10     9    1
    42    10     3    2
    43    21    20   ar
    44     9    11    1
    45    18     3    1
    46    18    19   ar
    47    20    19   ar
    48    20    23    1
    49    19    22    1
    50    23    24    2
