@<TRIPOS>MOLECULE
3day_APC_A_1.pdb
 31 33 0 0 0
SMALL
GASTEIGER

@<TRIPOS>ATOM
      1  PG        22.9430   -3.1890   -9.2470 P.3   606  APC606      0.5389
      2  O1G       22.2080   -2.3430  -10.2760 O.2   606  APC606     -0.2220
      3  O2G       21.9850   -4.0600   -8.4610 O.3   606  APC606     -0.1143
      4  O3G       23.7990   -2.3460   -8.3510 O.3   606  APC606     -0.1143
      5  PB        24.6880   -4.0930  -11.3960 P.3   606  APC606      0.3895
      6  O1B       24.6390   -2.6250  -11.7740 O.2   606  APC606     -0.2544
      7  O2B       26.0880   -4.5700  -11.1080 O.3   606  APC606     -0.1388
      8  O3B       23.9040   -4.2450   -9.9670 O.3   606  APC606     -0.2026
      9  PA        23.9550   -4.9740  -14.2550 P.3   606  APC606      0.3820
     10  O1A       22.9130   -4.0140  -14.8670 O.2   606  APC606     -0.2548
     11  O2A       23.9560   -6.3450  -14.8340 O.3   606  APC606     -0.1392
     12  C3A       23.6680   -5.1390  -12.4730 C.3   606  APC606      0.2357
     13  O5'       25.4570   -4.4330  -14.5080 O.3   606  APC606     -0.2896
     14  C5'       25.5920   -3.2040  -15.2250 C.3   606  APC606      0.1836
     15  C4'       26.8890   -2.5320  -14.8160 C.3   606  APC606      0.1822
     16  O4'       27.9650   -3.3890  -15.1980 O.3   606  APC606     -0.3135
     17  C3'       27.1950   -1.2190  -15.5050 C.3   606  APC606      0.2184
     18  O3'       26.4380   -0.0970  -15.0090 O.3   606  APC606     -0.2174
     19  C2'       28.7160   -1.1520  -15.3380 C.3   606  APC606      0.2570
     20  O2'       29.0900   -0.6280  -14.0670 O.3   606  APC606     -0.2130
     21  C1'       29.1270   -2.6130  -15.5010 C.3   606  APC606      0.3186
     22  N9        29.5470   -2.9040  -16.9110 N.pl3 606  APC606     -0.1439
     23  C8        28.8230   -3.4190  -17.9250 C.3   606  APC606      0.3377
     24  N7        29.5440   -3.5250  -19.0630 N.2   606  APC606     -0.2095
     25  C5        30.7700   -3.0400  -18.7160 C.2   606  APC606      0.2526
     26  C6        32.0400   -2.8330  -19.4090 C.2   606  APC606      0.4393
     27  N6        32.1240   -3.1910  -20.7160 N.pl3 606  APC606      0.2180
     28  N1        33.0380   -2.2630  -18.7200 N.2   606  APC606      0.0021
     29  C2        32.9800   -1.9210  -17.4130 C.3   606  APC606      0.5254
     30  N3        31.8620   -2.0980  -16.6810 N.2   606  APC606     -0.0055
     31  C4        30.7650   -2.6340  -17.3110 C.2   606  APC606      0.3518
@<TRIPOS>BOND
     1    27    26    1
     2    26    28    2
     3    26    25    1
     4    24    25    2
     5    24    23    1
     6    28    29    1
     7    25    31    1
     8    23    22    1
     9    29    30    1
    10    31    22    1
    11    31    30    2
    12    22    21    1
    13    17    19    1
    14    17    18    1
    15    17    15    1
    16    21    19    1
    17    21    16    1
    18    19    20    1
    19    14    15    1
    20    14    13    1
    21    16    15    1
    22    10     9    2
    23    11     9    1
    24    13     9    1
    25     9    12    1
    26    12     5    1
    27     6     5    2
    28     5     7    1
    29     5     8    1
    30     2     1    2
    31     8     1    1
    32     1     3    1
    33     1     4    1
