@<TRIPOS>MOLECULE
3daz_MZM_A_1.pdb
 14 14 0 0 0
SMALL
GASTEIGER

@<TRIPOS>ATOM
      1  N1        -5.5550   -0.4510   16.4680 N.3   263  MZM263      0.0413
      2  S1        -6.0000    0.5600   16.8090 S.O2  263  MZM263      0.1177
      3  O1        -7.1860    0.6660   16.6850 O.2   263  MZM263     -0.1483
      4  O2        -5.5980    0.6550   17.8500 O.2   263  MZM263     -0.1483
      5  C1        -5.1700    1.7910   15.9800 C.ar  263  MZM263      0.2570
      6  S2        -6.1000    2.9520   15.1060 S.2   263  MZM263     -0.0108
      7  C2        -4.6230    3.6330   14.5910 C.ar  263  MZM263      0.1856
      8  N2        -3.5950    3.0800   15.0830 N.ar  263  MZM263     -0.2269
      9  C5        -2.2030    3.5200   14.8140 C.3   263  MZM263      0.1558
     10  N3        -3.8850    1.9760   15.8510 N.ar  263  MZM263     -0.1404
     11  N4        -4.7950    4.7370   13.7670 N.am  263  MZM263     -0.1545
     12  C3        -5.6410    5.4330   13.2030 C.2   263  MZM263      0.2478
     13  O3        -5.5900    6.4180   12.4610 O.2   263  MZM263     -0.2729
     14  C4        -6.8890    4.9640   13.5470 C.3   263  MZM263      0.0969
@<TRIPOS>BOND
     1    13    12    2
     2    12    14    1
     3    12    11    1
     4    11     7    2
     5     7     8   ar
     6     7     6   ar
     7     9     8    1
     8     8    10   ar
     9     6     5   ar
    10    10     5   ar
    11     5     2    1
    12     1     2    1
    13     3     2    2
    14     2     4    2
