@<TRIPOS>MOLECULE
3db3_III_B_1.pdb
 29 28 0 0 0
SMALL
GASTEIGER

@<TRIPOS>ATOM
      1  N         40.3290   -4.5600   -8.4250 N.3     8  ARG8       -0.1231
      2  CA        39.6240   -5.7540   -7.8590 C.3     8  ARG8        0.1694
      3  C         38.4070   -5.3730   -7.0100 C.2     8  ARG8        0.2592
      4  O         37.2790   -5.7420   -7.3470 O.2     8  ARG8       -0.2718
      5  CB        40.5910   -6.6470   -7.0700 C.3     8  ARG8        0.0321
      6  CG        40.9770   -7.9200   -7.8010 C.3     8  ARG8        0.0489
      7  CD        42.1290   -8.6210   -7.1130 C.3     8  ARG8        0.2205
      8  NE        43.3140   -7.7680   -7.0710 N.pl3   8  ARG8       -0.0865
      9  CZ        44.5660   -8.2020   -6.9310 C.cat   8  ARG8        0.5346
     10  NH1       44.8310   -9.4980   -6.8230 N.pl3   8  ARG8        0.1354
     11  NH2       45.5640   -7.3280   -6.9120 N.pl3   8  ARG8        0.1354
     12  N         38.6390   -4.6360   -5.9220 N.am    9  LYS9       -0.1966
     13  CA        37.5560   -4.1150   -5.0910 C.3     9  LYS9        0.1728
     14  CB        38.1220   -3.1790   -4.0310 C.3     9  LYS9        0.0310
     15  CG        38.1720   -3.8920   -2.6860 C.3     9  LYS9        0.0001
     16  CD        36.9820   -3.4910   -1.8300 C.3     9  LYS9       -0.0222
     17  CE        37.3640   -3.5100   -0.3530 C.3     9  LYS9       -0.0733
     18  NZ        36.3640   -2.9030    0.5430 N.4     9  LYS9        0.3857
     19  C         36.5100   -3.4320   -5.9380 C.2     9  LYS9        0.2616
     20  O         36.8260   -2.5250   -6.7160 O.2     9  LYS9       -0.2715
     21  CM1       36.5570   -3.4540    1.8910 C.3     9  LYS9       -0.0960
     22  CM2       36.5640   -1.4540    0.6120 C.3     9  LYS9       -0.0960
     23  CM3       34.9810   -3.1630    0.1220 C.3     9  LYS9       -0.0960
     24  N         35.2620   -3.8860   -5.7920 N.am   10  SER10      -0.1950
     25  CA        34.1470   -3.5290   -6.6840 C.3    10  SER10       0.1924
     26  C         34.0920   -2.0530   -7.0720 C.2    10  SER10       0.2314
     27  O         33.6030   -1.7050   -8.1500 O.2    10  SER10      -0.2863
     28  CB        32.8130   -3.9440   -6.0600 C.3    10  SER10       0.2116
     29  OG        32.4890   -3.1140   -4.9530 O.3    10  SER10      -0.2180
@<TRIPOS>BOND
     1     1     2    1
     2    27    26    2
     3     2     5    1
     4     2     3    1
     5     6     7    1
     6     6     5    1
     7     4     3    2
     8     7     8    1
     9    26    25    1
    10     8     9    2
    11     3    12   am
    12     9    11    1
    13     9    10    1
    14    20    19    2
    15    25    28    1
    16    25    24    1
    17    28    29    1
    18    19    24   am
    19    19    13    1
    20    12    13    1
    21    13    14    1
    22    14    15    1
    23    15    16    1
    24    16    17    1
    25    17    18    1
    26    23    18    1
    27    18    22    1
    28    18    21    1
