@<TRIPOS>MOLECULE
3db6_FRS_A_1.pdb
 34 37 0 0 0
SMALL
GASTEIGER

@<TRIPOS>ATOM
      1  N33       86.2890   78.3940   18.5340 N.2     1  FRS1       -0.1126
      2  N29       89.2510   80.1200   17.9930 N.pl3   1  FRS1        0.0662
      3  C30       88.2350   79.3040   18.4100 C.1     1  FRS1        0.2531
      4  C28       90.4220   80.3810   18.6430 C.2     1  FRS1        0.3660
      5  C27       90.7750   79.8200   19.8710 C.3     1  FRS1        0.2421
      6  C23       92.0110   80.1580   20.4340 C.2     1  FRS1        0.3493
      7  C20       92.1640   77.3390   22.2990 C.3     1  FRS1        0.0899
      8  C15       90.3260   75.5460   25.2250 C.ar    1  FRS1        0.1870
      9  C12       88.2600   75.5800   26.4120 C.2     1  FRS1        0.3496
     10  C10       86.3050   75.4140   27.7290 C.ar    1  FRS1        0.1162
     11  C5        85.8570   75.8370   28.9540 C.ar    1  FRS1        0.2313
     12  C6        86.4260   76.0560   30.3080 C.3     1  FRS1        0.4523
     13  C3        85.2990   75.3730   26.7510 C.ar    1  FRS1        0.0526
     14  C2        84.1890   75.7950   27.4610 C.ar    1  FRS1        0.1246
     15  C1        82.7730   75.9970   27.0830 C.3     1  FRS1        0.0725
     16  O13       87.8120   76.4930   25.7380 O.2     1  FRS1       -0.2484
     17  N11       87.5460   75.0300   27.4020 N.am    1  FRS1       -0.1575
     18  F9        87.5920   76.6660   30.2360 F       1  FRS1       -0.1631
     19  F8        86.5840   74.8820   30.8820 F       1  FRS1       -0.1631
     20  F7        85.6070   76.7890   31.0380 F       1  FRS1       -0.1631
     21  O4        84.5100   76.0680   28.7700 O.2     1  FRS1       -0.4524
     22  N14       89.4840   75.0890   26.1930 N.am    1  FRS1       -0.1356
     23  N17       91.5070   74.9660   25.1240 N.ar    1  FRS1       -0.2213
     24  C18       92.2380   75.5470   24.0930 C.ar    1  FRS1        0.1032
     25  C19       91.5860   76.5610   23.4310 C.ar    1  FRS1        0.0334
     26  S16       90.0110   76.8190   24.0970 S.2     1  FRS1       -0.0538
     27  C21       91.5570   78.7310   22.3600 C.3     1  FRS1        0.2561
     28  N22       92.4160   79.6420   21.6230 N.pl3   1  FRS1       -0.0346
     29  N26       91.2900   81.2320   18.0460 N.2     1  FRS1       -0.0064
     30  C25       92.4670   81.5440   18.6070 C.3     1  FRS1        0.5247
     31  N24       92.8300   81.0160   19.7840 N.2     1  FRS1       -0.0077
     32  N35       87.0260   79.3680   17.8390 N.2     1  FRS1       -0.0527
     33  C32       87.1080   77.8230   19.4590 C.2     1  FRS1        0.2350
     34  N31       88.3400   78.3900   19.3880 N.2     1  FRS1       -0.1327
@<TRIPOS>BOND
     1    32     3    2
     2    32     1    1
     3     2     3    1
     4     2     4    1
     5    29    30    1
     6    29     4    2
     7     3    34    2
     8     1    33    2
     9    30    31    1
    10     4     5    1
    11    34    33    1
    12    31     6    2
    13     5     6    1
    14     6    28    1
    15    28    27    1
    16     7    27    1
    17     7    25    1
    18    25    24   ar
    19    25    26   ar
    20    24    23   ar
    21    26     8   ar
    22    23     8   ar
    23     8    22    1
    24    16     9    2
    25    22     9   am
    26     9    17   am
    27    13    14   ar
    28    13    10   ar
    29    15    14    1
    30    17    10    1
    31    14    21   ar
    32    10    11   ar
    33    21    11   ar
    34    11    12    1
    35    18    12    1
    36    12    19    1
    37    12    20    1
