@<TRIPOS>MOLECULE
3db8_1FR_A_1.pdb
 29 32 0 0 0
SMALL
GASTEIGER

@<TRIPOS>ATOM
      1  C28      118.7340   57.0660   42.6340 C.ar  313  1FR313     -0.0026
      2  C27      119.0730   58.3360   43.1060 C.ar  313  1FR313     -0.0003
      3  C26      119.8180   58.4830   44.2760 C.ar  313  1FR313     -0.0000
      4  C24      119.8760   56.0900   44.5140 C.ar  313  1FR313     -0.0026
      5  C23      119.1340   55.9260   43.3380 C.ar  313  1FR313     -0.0026
      6  C22      118.8000   54.5410   42.8860 C.3   313  1FR313      0.1163
      7  C17      117.7010   58.7540   47.1490 C.3   313  1FR313      0.0291
      8  C15      115.7900   57.7220   45.8320 C.ar  313  1FR313     -0.0026
      9  C12      114.2060   57.6080   48.1150 C.ar  313  1FR313      0.0574
     10  C13      115.4990   58.1240   48.1880 C.ar  313  1FR313      0.0071
     11  C14      116.2980   58.1870   47.0470 C.ar  313  1FR313     -0.0212
     12  C11      113.6970   57.1510   46.9020 C.ar  313  1FR313      0.0130
     13  C10      114.4930   57.2010   45.7580 C.ar  313  1FR313      0.0215
     14  C8       113.9500   56.7110   44.4570 C.ar  313  1FR313      0.1230
     15  C4       114.7160   55.9710   43.4040 C.ar  313  1FR313      0.0624
     16  C5       113.8300   55.7250   42.3920 C.ar  313  1FR313      0.1960
     17  C6       114.2100   55.0470   41.2380 C.ar  313  1FR313      0.1405
     18  C3       116.0270   55.5400   43.3050 C.ar  313  1FR313      0.0405
     19  C2       116.4010   54.8600   42.1390 C.ar  313  1FR313      0.1480
     20 CL        113.1970   57.5350   49.5950 Cl    313  1FR313     -0.0823
     21  C18      117.7890   60.1280   46.4830 C.3   313  1FR313      0.0402
     22  C19      117.3250   61.2490   47.4050 C.3   313  1FR313      0.1825
     23  O20      116.1840   61.9040   46.8310 O.3   313  1FR313     -0.2204
     24  O21      112.5670   56.2490   42.7240 O.2   313  1FR313     -0.3518
     25  N9       112.6620   56.8650   44.0230 N.ar  313  1FR313     -0.0769
     26  N1       115.4890   54.6320   41.1470 N.ar  313  1FR313     -0.2244
     27  N7       117.6750   54.4160   41.9540 N.pl3 313  1FR313     -0.2176
     28  C29      120.0120   53.9160   42.2000 C.3   313  1FR313      0.0283
     29  C25      120.2210   57.3570   44.9880 C.ar  313  1FR313     -0.0003
@<TRIPOS>BOND
     1    26    17   ar
     2    26    19   ar
     3    17    16   ar
     4    27    19    1
     5    27     6    1
     6    19    18   ar
     7    28     6    1
     8    16    24   ar
     9    16    15   ar
    10     1     2   ar
    11     1     5   ar
    12    24    25   ar
    13     6     5    1
    14     2     3   ar
    15    18    15   ar
    16     5     4   ar
    17    15    14   ar
    18    25    14   ar
    19     3    29   ar
    20    14    13    1
    21     4    29   ar
    22    13     8   ar
    23    13    12   ar
    24     8    11   ar
    25    21     7    1
    26    21    22    1
    27    23    22    1
    28    12     9   ar
    29    11     7    1
    30    11    10   ar
    31     9    10   ar
    32     9    20    1
