@<TRIPOS>MOLECULE
3dba_35G_A_1.pdb
 23 26 0 0 0
SMALL
GASTEIGER

@<TRIPOS>ATOM
      1  P         17.2480   35.9140   26.1770 P.3     1  35G1        0.2141
      2  O1P       18.0360   36.1300   27.4490 O.3     1  35G1       -0.4373
      3  O2P       16.7590   37.0760   25.3400 O.2     1  35G1       -0.5172
      4  O5'       15.9490   35.0550   26.5650 O.3     1  35G1       -0.3114
      5  C5'       15.1960   34.4160   25.5360 C.3     1  35G1        0.1812
      6  C4'       16.1740   33.5300   24.7910 C.3     1  35G1        0.1771
      7  O4'       15.6770   32.8360   23.6590 O.3     1  35G1       -0.3327
      8  C3'       17.2910   34.3330   24.1870 C.3     1  35G1        0.1857
      9  O3'       18.0470   34.9100   25.2280 O.3     1  35G1       -0.3112
     10  C2'       17.9870   33.2630   23.3920 C.3     1  35G1        0.2282
     11  O2'       18.9460   32.6040   24.2280 O.3     1  35G1       -0.2159
     12  C1'       16.8310   32.3630   22.9740 C.3     1  35G1        0.2292
     13  N9        16.6140   32.4510   21.5140 N.pl3   1  35G1       -0.2354
     14  C8        16.3490   33.5580   20.7850 C.3     1  35G1        0.2246
     15  N7        16.2260   33.2410   19.4610 N.2     1  35G1       -0.2322
     16  C5        16.4080   31.9090   19.3420 C.2     1  35G1        0.2182
     17  C6        16.4340   30.9180   18.2530 C.1     1  35G1        0.2372
     18  O6        16.2290   31.2400   17.0670 O.2     1  35G1       -0.2069
     19  N1        16.6630   29.6420   18.5830 N.2     1  35G1       -0.2485
     20  C2        16.8910   29.2400   19.8460 C.1     1  35G1        0.2531
     21  N2        17.1290   27.9350   20.0910 N.pl3   1  35G1       -0.0226
     22  N3        16.8970   30.0950   20.8880 N.2     1  35G1       -0.3074
     23  C4        16.6690   31.4050   20.6940 C.2     1  35G1        0.2300
@<TRIPOS>BOND
     1    18    17    2
     2    17    19    2
     3    17    16    1
     4    19    20    2
     5    16    15    2
     6    16    23    1
     7    15    14    1
     8    20    21    1
     9    20    22    2
    10    23    22    2
    11    23    13    1
    12    14    13    1
    13    13    12    1
    14    12    10    1
    15    12     7    1
    16    10     8    1
    17    10    11    1
    18     7     6    1
    19     8     6    1
    20     8     9    1
    21     6     5    1
    22     9     1    1
    23     3     1    2
    24     5     4    1
    25     1     4    1
    26     1     2    1
