@<TRIPOS>MOLECULE
3dbc_2FR_A_1.pdb
 30 33 0 0 0
SMALL
GASTEIGER

@<TRIPOS>ATOM
      1  C30      119.0160   56.9480   42.8440 C.ar  313  2FR313     -0.0026
      2  C28      119.9450   58.3870   44.5480 C.ar  313  2FR313     -0.0000
      3  C27      120.2230   57.2710   45.3340 C.ar  313  2FR313     -0.0003
      4  C26      119.8940   55.9970   44.8710 C.ar  313  2FR313     -0.0026
      5  C24      120.1680   53.7900   42.5110 C.3   313  2FR313      0.0283
      6  C23      118.9490   54.4350   43.1660 C.3   313  2FR313      0.1163
      7  N21      117.5840   61.8340   45.4870 N.am  313  2FR313     -0.0878
      8  C16      116.5760   58.5100   47.1750 C.ar  313  2FR313     -0.0202
      9  C17      116.0920   58.1120   45.9220 C.ar  313  2FR313      0.0149
     10  C20      116.8900   61.5160   46.5800 C.2   313  2FR313      0.2611
     11  C15      115.8660   58.1930   48.3300 C.ar  313  2FR313     -0.0042
     12  C12      114.8970   57.3900   45.7570 C.ar  313  2FR313      0.0825
     13  C13      114.2210   57.1130   46.9530 C.ar  313  2FR313      0.0191
     14  C14      114.6770   57.4910   48.2140 C.ar  313  2FR313      0.0012
     15  C11      111.7750   56.7970   42.0190 C.3   313  2FR313      0.0540
     16  C10      112.9120   56.8220   43.0010 C.ar  313  2FR313      0.0822
     17  C4       115.0420   56.2680   43.6490 C.ar  313  2FR313      0.0883
     18  C5       114.1500   56.1080   42.5990 C.ar  313  2FR313      0.0522
     19  C6       114.4870   55.3920   41.4510 C.ar  313  2FR313      0.1030
     20  C3       116.2970   55.6880   43.5320 C.ar  313  2FR313      0.0550
     21  C2       116.6200   54.9730   42.3680 C.ar  313  2FR313      0.1493
     22  O22      115.7150   61.8270   46.7220 O.2   313  2FR313     -0.2716
     23  C19      117.6240   60.7510   47.6690 C.3   313  2FR313      0.0932
     24  C18      117.8740   59.2870   47.2870 C.3   313  2FR313      0.0361
     25  N8       114.3890   57.0040   44.5670 N.ar  313  2FR313     -0.2298
     26  N9       113.0750   57.3680   44.2210 N.ar  313  2FR313     -0.1694
     27  N1       115.7110   54.8440   41.3630 N.ar  313  2FR313     -0.2276
     28  N7       117.8450   54.3970   42.2020 N.pl3 313  2FR313     -0.2175
     29  C25      119.2920   55.8180   43.6230 C.ar  313  2FR313     -0.0026
     30  C29      119.3350   58.2240   43.3050 C.ar  313  2FR313     -0.0003
@<TRIPOS>BOND
     1    27    19   ar
     2    27    21   ar
     3    19    18   ar
     4    15    16    1
     5    28    21    1
     6    28     6    1
     7    21    20   ar
     8     5     6    1
     9    18    16   ar
    10    18    17   ar
    11     1    30   ar
    12     1    29   ar
    13    16    26   ar
    14     6    29    1
    15    30     2   ar
    16    20    17   ar
    17    29     4   ar
    18    17    25   ar
    19    26    25   ar
    20     2     3   ar
    21    25    12    1
    22     4     3   ar
    23     7    10   am
    24    12     9   ar
    25    12    13   ar
    26     9     8   ar
    27    10    22    2
    28    10    23    1
    29    13    14   ar
    30     8    24    1
    31     8    11   ar
    32    24    23    1
    33    14    11   ar
