@<TRIPOS>MOLECULE
3dbd_3FR_A_1.pdb
 35 39 0 0 0
SMALL
GASTEIGER

@<TRIPOS>ATOM
      1  C31       60.0740   14.7270   48.1870 C.ar  313  3FR313      0.0001
      2  C30       58.8380   15.0890   48.7180 C.ar  313  3FR313      0.0000
      3  C28       59.0490   17.2880   47.7210 C.ar  313  3FR313      0.0045
      4  C26       57.1640   23.3860   42.1510 C.3   313  3FR313      0.0540
      5  C24       53.7330   15.1370   42.8240 C.3   313  3FR313      0.0283
      6  C23       58.1150   19.0960   46.2260 C.ar  313  3FR313      0.0192
      7  C22       58.4740   18.6480   47.5030 C.ar  313  3FR313      0.0025
      8  C17       57.1230   22.2720   43.1610 C.ar  313  3FR313      0.0822
      9  C20       57.7570   20.7440   48.4090 C.ar  313  3FR313      0.0592
     10  C12       56.3810   21.0380   42.7810 C.ar  313  3FR313      0.0522
     11  C13       55.6840   20.6850   41.6280 C.ar  313  3FR313      0.1030
     12  C11       56.4860   20.1720   43.8610 C.ar  313  3FR313      0.0883
     13  C10       55.8690   18.9280   43.7710 C.ar  313  3FR313      0.0550
     14  C9        55.1740   18.5920   42.6000 C.ar  313  3FR313      0.1493
     15  C7        54.5130   16.3070   43.4200 C.3   313  3FR313      0.1163
     16  C4        55.9990   15.2720   45.1260 C.ar  313  3FR313     -0.0026
     17  C5        55.8600   15.8380   43.8570 C.ar  313  3FR313     -0.0026
     18  C6        56.9870   15.9540   43.0360 C.ar  313  3FR313     -0.0026
     19  C3        57.2440   14.8240   45.5650 C.ar  313  3FR313     -0.0003
     20  C2        58.3630   14.9440   44.7430 C.ar  313  3FR313     -0.0000
     21  C1        58.2340   15.5120   43.4770 C.ar  313  3FR313     -0.0003
     22  O36       61.6730   18.8090   46.9240 O.2   313  3FR313     -0.2667
     23  C34       61.1000   17.8840   46.3720 C.2   313  3FR313      0.2842
     24  N35       61.1700   17.6980   45.0550 N.am  313  3FR313     -0.0837
     25  C33       60.2890   16.9240   47.1950 C.ar  313  3FR313      0.0567
     26  C32       60.7970   15.6450   47.4270 C.ar  313  3FR313      0.0046
     27  C29       58.3300   16.3660   48.4870 C.ar  313  3FR313      0.0001
     28  C21       58.2920   19.4790   48.6030 C.ar  313  3FR313      0.0115
     29 CL         57.5070   21.8430   49.8060 Cl    313  3FR313     -0.0822
     30  C19       57.4110   21.1600   47.1260 C.ar  313  3FR313      0.0305
     31  C18       57.5640   20.3660   45.9850 C.ar  313  3FR313      0.0836
     32  N15       57.2190   20.8380   44.7730 N.ar  313  3FR313     -0.2298
     33  N16       57.6340   22.1270   44.3980 N.ar  313  3FR313     -0.1694
     34  N14       55.1020   19.4760   41.5690 N.ar  313  3FR313     -0.2276
     35  N8        54.5580   17.3900   42.4410 N.pl3 313  3FR313     -0.2175
@<TRIPOS>BOND
     1    34    11   ar
     2    34    14   ar
     3    11    10   ar
     4     4     8    1
     5    35    14    1
     6    35    15    1
     7    14    13   ar
     8    10     8   ar
     9    10    12   ar
    10     5    15    1
    11    18    21   ar
    12    18    17   ar
    13     8    33   ar
    14    15    17    1
    15    21    20   ar
    16    13    12   ar
    17    17    16   ar
    18    12    32   ar
    19    33    32   ar
    20    20    19   ar
    21    32    31    1
    22    24    23   am
    23    16    19   ar
    24    31     6   ar
    25    31    30   ar
    26     6     7   ar
    27    23    22    2
    28    23    25    1
    29    30     9   ar
    30    25    26   ar
    31    25     3   ar
    32    26     1   ar
    33     7     3    1
    34     7    28   ar
    35     3    27   ar
    36     1     2   ar
    37     9    28   ar
    38     9    29    1
    39    27     2   ar
