@<TRIPOS>MOLECULE
3dbe_4FR_A_1.pdb
 45 50 0 0 0
SMALL
GASTEIGER

@<TRIPOS>ATOM
      1  C31       14.0110   77.9100   48.1560 C.ar    1  4FR1        0.0001
      2  C30       14.6550   79.1090   47.8700 C.ar    1  4FR1        0.0000
      3  C28       16.7580   77.9810   47.4650 C.ar    1  4FR1        0.0045
      4  C26       23.1380   79.3070   41.8450 C.3     1  4FR1        0.0540
      5  C23       18.6130   78.4420   45.8350 C.ar    1  4FR1        0.0192
      6  C22       18.1790   77.8460   47.0260 C.ar    1  4FR1        0.0025
      7  C17       21.9460   79.1760   42.7480 C.ar    1  4FR1        0.0822
      8  C20       20.3190   76.8010   47.2430 C.ar    1  4FR1        0.0592
      9  C12       20.7210   79.9270   42.3750 C.ar    1  4FR1        0.0522
     10  C13       20.4350   80.7680   41.3050 C.ar    1  4FR1        0.1031
     11  C11       19.7830   79.6470   43.3540 C.ar    1  4FR1        0.0883
     12  C10       18.5260   80.2320   43.2440 C.ar    1  4FR1        0.0553
     13  C9        18.2610   81.0750   42.1590 C.ar    1  4FR1        0.1533
     14  O40       11.1510   81.5580   44.2870 O.2     1  4FR1       -0.2684
     15  C41       12.2030   81.6930   44.8890 C.2     1  4FR1        0.2648
     16  N42       12.2540   81.8860   46.2080 N.am    1  4FR1       -0.2033
     17  C43       11.0760   81.9150   47.0630 C.3     1  4FR1        0.0984
     18  C45       11.3950   80.8520   48.1160 C.3     1  4FR1        0.0390
     19  C46       10.4440   80.9300   49.3070 C.3     1  4FR1        0.0739
     20  N47       10.4220   82.2870   49.8860 N.3     1  4FR1       -0.2714
     21  C48        9.4310   82.2940   50.9680 C.3     1  4FR1        0.0896
     22  C49       10.0580   83.3120   48.8870 C.3     1  4FR1        0.0739
     23  C44       11.0420   83.2950   47.7140 C.3     1  4FR1        0.0390
     24  C50       13.5010   81.6670   44.1330 C.ar    1  4FR1        0.0581
     25  C55       14.5730   80.9080   44.6070 C.ar    1  4FR1        0.0061
     26  C56       15.7800   80.8930   43.9060 C.ar    1  4FR1        0.0198
     27  C57       15.9240   81.6360   42.7310 C.ar    1  4FR1        0.1059
     28  C52       14.8570   82.3880   42.2650 C.ar    1  4FR1        0.1540
     29  O53       15.0140   83.1170   41.1120 O.3     1  4FR1       -0.4701
     30  C54       15.5300   84.4510   41.1750 C.3     1  4FR1        0.2525
     31  C51       13.6460   82.4060   42.9600 C.ar    1  4FR1        0.0428
     32  N8        17.0610   81.6860   41.9780 N.pl3   1  4FR1       -0.1910
     33  N14       19.2180   81.3190   41.2260 N.ar    1  4FR1       -0.2272
     34  N16       21.7360   78.4930   43.8790 N.ar    1  4FR1       -0.1694
     35  N15       20.4130   78.8160   44.2040 N.ar    1  4FR1       -0.2298
     36  C18       19.9060   78.2710   45.3190 C.ar    1  4FR1        0.0836
     37  C19       20.7230   77.4270   46.0730 C.ar    1  4FR1        0.0305
     38 CL         21.4880   75.7640   48.1260 Cl      1  4FR1       -0.0822
     39  C21       19.0380   77.0030   47.7270 C.ar    1  4FR1        0.0115
     40  C33       16.0780   76.7600   47.7030 C.ar    1  4FR1        0.0567
     41  C34       16.7680   75.4240   47.6270 C.2     1  4FR1        0.2842
     42  O35       17.0630   74.9080   46.4370 O.2     1  4FR1       -0.2667
     43  N36       17.0400   74.8260   48.6480 N.am    1  4FR1       -0.0837
     44  C29       16.0090   79.1520   47.4970 C.ar    1  4FR1        0.0001
     45  C32       14.7330   76.7250   48.0660 C.ar    1  4FR1        0.0046
@<TRIPOS>BOND
     1    29    30    1
     2    29    28    1
     3    33    10   ar
     4    33    13   ar
     5    10     9   ar
     6     4     7    1
     7    32    13    1
     8    32    27    1
     9    13    12   ar
    10    28    27   ar
    11    28    31   ar
    12     9     7   ar
    13     9    11   ar
    14    27    26   ar
    15     7    34   ar
    16    31    24   ar
    17    12    11   ar
    18    11    35   ar
    19    34    35   ar
    20    26    25   ar
    21    24    25   ar
    22    24    15    1
    23    35    36    1
    24    14    15    2
    25    15    16   am
    26    36     5   ar
    27    36    37   ar
    28     5     6   ar
    29    37     8   ar
    30    16    17    1
    31    42    41    2
    32     6     3    1
    33     6    39   ar
    34    17    23    1
    35    17    18    1
    36     8    39   ar
    37     8    38    1
    38     3    44   ar
    39     3    40   ar
    40    44     2   ar
    41    41    40    1
    42    41    43   am
    43    40    45   ar
    44    23    22    1
    45     2     1   ar
    46    45     1   ar
    47    18    19    1
    48    22    20    1
    49    19    20    1
    50    20    21    1
