@<TRIPOS>MOLECULE
3dbf_5FR_A_1.pdb
 41 45 0 0 0
SMALL
GASTEIGER

@<TRIPOS>ATOM
      1  C26       44.5700  108.9960   10.6500 C.3     1  5FR1        0.0540
      2  C17       45.7200  109.9660   10.6350 C.ar    1  5FR1        0.0822
      3  C12       46.8760  109.6610   11.5190 C.ar    1  5FR1        0.0522
      4  C13       47.1270  108.6090   12.3980 C.ar    1  5FR1        0.1031
      5  C11       47.7910  110.6850   11.3320 C.ar    1  5FR1        0.0879
      6  C10       48.9870  110.6390   12.0520 C.ar    1  5FR1        0.0553
      7  C9        49.2140  109.5720   12.9350 C.ar    1  5FR1        0.1533
      8 CL         46.1080  116.3010    9.0050 Cl      1  5FR1       -0.0822
      9  C61       47.2940  114.9810    9.2670 C.2     1  5FR1        0.0591
     10  C68       46.8870  113.7300    9.7220 C.2     1  5FR1        0.0265
     11  C62       48.6340  115.2000    9.0160 C.2     1  5FR1        0.0151
     12  C63       49.5240  114.1590    9.2290 C.2     1  5FR1        0.0191
     13  C69       50.7630  114.3880    8.9960 C.1     1  5FR1       -0.1003
     14  C70       52.2300  114.5550    8.8590 C.2     1  5FR1        0.1022
     15  C71       53.4120  114.5580    9.5480 C.2     1  5FR1        0.2920
     16  O73       53.9240  113.4270    9.7980 O.2     1  5FR1       -0.2660
     17  N72       53.9790  115.6930    9.9300 N.am    1  5FR1       -0.0832
     18  C66       49.0980  112.9100    9.6930 C.3     1  5FR1        0.0799
     19  C67       47.7450  112.6420    9.9550 C.2     1  5FR1        0.0663
     20  N15       47.2210  111.4890   10.4120 N.ar    1  5FR1       -0.2335
     21  N16       45.9480  111.1060    9.9670 N.ar    1  5FR1       -0.1697
     22  N14       48.2810  108.5920   13.0790 N.ar    1  5FR1       -0.2272
     23  N8        50.3470  109.4400   13.6840 N.pl3   1  5FR1       -0.1910
     24  C57       51.4540  110.2350   13.7610 C.ar    1  5FR1        0.1059
     25  C56       51.6220  111.4110   13.0290 C.ar    1  5FR1        0.0198
     26  C55       52.7890  112.1660   13.1710 C.ar    1  5FR1        0.0061
     27  C52       52.4600  109.8320   14.6280 C.ar    1  5FR1        0.1540
     28  O53       52.3080  108.6890   15.3610 O.3     1  5FR1       -0.4701
     29  C54       51.9250  108.8100   16.7320 C.3     1  5FR1        0.2525
     30  C51       53.6250  110.5840   14.7730 C.ar    1  5FR1        0.0428
     31  C50       53.7950  111.7590   14.0490 C.ar    1  5FR1        0.0581
     32  C41       55.0630  112.5500   14.2150 C.2     1  5FR1        0.2648
     33  O40       55.9450  112.0840   14.9230 O.2     1  5FR1       -0.2684
     34  N42       55.1950  113.7190   13.5810 N.am    1  5FR1       -0.2033
     35  C43       56.3890  114.5520   13.6620 C.3     1  5FR1        0.0984
     36  C44       56.2570  115.4070   14.9170 C.3     1  5FR1        0.0390
     37  C49       57.3690  116.4560   14.9310 C.3     1  5FR1        0.0739
     38  N47       57.2720  117.3310   13.7440 N.3     1  5FR1       -0.2714
     39  C48       58.3740  118.3050   13.7810 C.3     1  5FR1        0.0896
     40  C46       57.3650  116.5620   12.4890 C.3     1  5FR1        0.0739
     41  C45       56.3120  115.4570   12.4350 C.3     1  5FR1        0.0390
@<TRIPOS>BOND
     1    14    13    2
     2    14    15    1
     3    13    12    2
     4     8     9    1
     5    11    12    1
     6    11     9    2
     7    12    18    1
     8     9    10    1
     9    15    16    2
    10    15    17   am
    11    18    19    1
    12    10    19    2
    13    19    20    1
    14    21    20   ar
    15    21     2   ar
    16    20     5   ar
    17     2     1    1
    18     2     3   ar
    19     5     3   ar
    20     5     6   ar
    21     3     4   ar
    22     6     7   ar
    23     4    22   ar
    24    41    40    1
    25    41    35    1
    26    40    38    1
    27     7    22   ar
    28     7    23    1
    29    25    26   ar
    30    25    24   ar
    31    26    31   ar
    32    34    35    1
    33    34    32   am
    34    35    36    1
    35    23    24    1
    36    38    39    1
    37    38    37    1
    38    24    27   ar
    39    31    32    1
    40    31    30   ar
    41    32    33    2
    42    27    30   ar
    43    27    28    1
    44    36    37    1
    45    28    29    1
