@<TRIPOS>MOLECULE
3dbg_HEM_A_1.pdb
 43 50 0 0 0
SMALL
GASTEIGER

@<TRIPOS>ATOM
      1  CHA       32.0550   -4.8080   -1.4020 C.2   500  HEM500      0.0000
      2  CHB       34.6530   -0.6530   -1.9010 C.2   500  HEM500      0.0000
      3  CHC       30.5340    1.9700   -0.9430 C.2   500  HEM500      0.0000
      4  CHD       27.9630   -2.2290   -0.4460 C.2   500  HEM500      0.0000
      5  C1A       33.1390   -3.9440   -1.6320 C.ar  500  HEM500      0.0000
      6  C2A       34.5230   -4.3520   -1.9210 C.ar  500  HEM500      0.0000
      7  C3A       35.2800   -3.1650   -2.0780 C.ar  500  HEM500      0.0000
      8  C4A       34.3580   -2.0340   -1.8630 C.ar  500  HEM500      0.0000
      9  CMA       36.7890   -3.0150   -2.3850 C.3   500  HEM500      0.0000
     10  CAA       34.9330   -5.8800   -2.0200 C.3   500  HEM500      0.0000
     11  CBA       36.1470   -6.2960   -2.7820 C.3   500  HEM500      0.0000
     12  CGA       36.5930   -7.6980   -2.3890 C.2   500  HEM500      0.0000
     13  O1A       36.7990   -8.4750   -3.3670 O.co2 500  HEM500      0.0000
     14  O2A       36.7350   -7.9900   -1.1930 O.co2 500  HEM500      0.0000
     15  C1B       33.7680    0.4570   -1.6890 C.2   500  HEM500      0.0000
     16  C2B       34.1370    1.8700   -1.7540 C.2   500  HEM500      0.0000
     17  C3B       32.9670    2.6130   -1.4920 C.2   500  HEM500      0.0000
     18  C4B       31.8950    1.6710   -1.2450 C.2   500  HEM500      0.0000
     19  CMB       35.5310    2.4250   -2.0680 C.3   500  HEM500      0.0000
     20  CAB       32.8230    4.1320   -1.4470 C.3   500  HEM500      0.0000
     21  CBB       33.2760    4.7430   -0.1470 C.3   500  HEM500      0.0000
     22  C1C       29.4590    1.0590   -0.7100 C.ar  500  HEM500      0.0000
     23  C2C       28.0660    1.4600   -0.3870 C.ar  500  HEM500      0.0000
     24  C3C       27.3380    0.2850   -0.2610 C.ar  500  HEM500      0.0000
     25  C4C       28.2640   -0.8380   -0.4780 C.ar  500  HEM500      0.0000
     26  CMC       27.5660    2.9320   -0.2610 C.3   500  HEM500      0.0000
     27  CAC       25.8290    0.1160    0.0650 C.3   500  HEM500      0.0000
     28  CBC       25.4220    0.4470    1.4900 C.3   500  HEM500      0.0000
     29  C1D       28.8300   -3.3230   -0.6580 C.2   500  HEM500      0.0000
     30  C2D       28.4710   -4.7420   -0.6240 C.2   500  HEM500      0.0000
     31  C3D       29.6280   -5.4800   -0.8800 C.2   500  HEM500      0.0000
     32  C4D       30.7030   -4.5020   -1.1100 C.2   500  HEM500      0.0000
     33  CMD       27.0710   -5.2960   -0.3160 C.3   500  HEM500      0.0000
     34  CAD       29.7540   -7.0320   -0.9490 C.3   500  HEM500      0.0000
     35  CBD       29.8850   -7.5980   -2.4100 C.3   500  HEM500      0.0000
     36  CGD       30.0370   -9.1120   -2.4400 C.2   500  HEM500      0.0000
     37  O1D       29.5900   -9.8310   -1.5150 O.co2 500  HEM500      0.0000
     38  O2D       30.6500   -9.5370   -3.4410 O.co2 500  HEM500      0.0000
     39  NA        33.0650   -2.5480   -1.5970 N.ar  500  HEM500      0.0000
     40  NB        32.3740    0.3520   -1.3760 N.2   500  HEM500      0.0000
     41  NC        29.5700   -0.3520   -0.7600 N.ar  500  HEM500      0.0000
     42  ND        30.1990   -3.1950   -0.9680 N.2   500  HEM500      0.0000
     43 FE         31.2670   -1.4520   -1.3500 Fe    500  HEM500      0.0000
@<TRIPOS>BOND
     1    38    36   ar
     2    13    12   ar
     3    11    12    1
     4    11    10    1
     5    36    35    1
     6    36    37   ar
     7    35    34    1
     8    12    14   ar
     9     9     7    1
    10     7     6   ar
    11     7     8   ar
    12    19    16    1
    13    10     6    1
    14     6     5   ar
    15     2     8    2
    16     2    15    1
    17     8    39   ar
    18    16    15    1
    19    16    17    2
    20    15    40    2
    21     5    39   ar
    22     5     1    2
    23    39    43    1
    24    17    20    1
    25    17    18    1
    26    20    21    1
    27     1    32    1
    28    40    43    1
    29    40    18    1
    30    43    42    1
    31    43    41    1
    32    18     3    2
    33    32    42    2
    34    32    31    1
    35    42    29    1
    36    34    31    1
    37     3    22    1
    38    31    30    2
    39    41    22   ar
    40    41    25   ar
    41    22    23   ar
    42    29    30    1
    43    29     4    2
    44    30    33    1
    45    25     4    1
    46    25    24   ar
    47    23    26    1
    48    23    24   ar
    49    24    27    1
    50    27    28    1
