@<TRIPOS>MOLECULE
3dbj_CYC_A_1.pdb
 43 46 0 0 0
SMALL
GASTEIGER

@<TRIPOS>ATOM
      1  CHA       36.1060   17.0350   24.6800 C.3   201  CYC201      0.1170
      2  NA        35.5330   14.7030   24.1650 N.2   201  CYC201     -0.4104
      3  C1A       35.3700   15.8770   24.8320 C.2   201  CYC201      0.1114
      4  C2A       34.2500   15.7300   25.7880 C.2   201  CYC201      0.0024
      5  C3A       33.8130   14.3680   25.5800 C.2   201  CYC201      0.0021
      6  C4A       34.6500   13.7450   24.5480 C.2   201  CYC201      0.1114
      7  CMA       32.6780   13.7650   26.3470 C.3   201  CYC201      0.0331
      8  CAA       33.6980   16.7450   26.7540 C.3   201  CYC201      0.0402
      9  CBA       34.5650   17.0670   27.8850 C.3   201  CYC201      0.1188
     10  CGA       34.4680   15.9480   28.8950 C.2   201  CYC201      0.3652
     11  O1A       33.7950   16.2100   29.8860 O.co2 201  CYC201     -0.2456
     12  O2A       35.0550   14.8580   28.7200 O.co2 201  CYC201     -0.2456
     13  CHB       34.7060   12.3900   23.9080 C.3   201  CYC201      0.1181
     14  NB        33.1300   11.0240   25.0920 N.2   201  CYC201     -0.3375
     15  C1B       34.0440   11.1880   24.1490 C.2   201  CYC201      0.1254
     16  C2B       34.2410    9.9570   23.4240 C.2   201  CYC201      0.0128
     17  C3B       33.3890    8.9830   23.9730 C.2   201  CYC201      0.0706
     18  C4B       32.7630    9.7510   24.9860 C.1   201  CYC201      0.2000
     19  CMB       35.1690    9.7670   22.3260 C.3   201  CYC201      0.0339
     20  CAB       33.1750    7.5360   23.6220 C.3   201  CYC201      0.0390
     21  CBB       33.8200    6.5900   24.6790 C.3   201  CYC201      0.0058
     22  OB        31.8360    9.1590   25.7900 O.2   201  CYC201     -0.2096
     23  NC        40.2350   18.1000   19.6000 N.2   201  CYC201     -0.3448
     24  C1C       40.9160   18.1920   18.5050 C.1   201  CYC201      0.1788
     25  C2C       41.5400   16.8970   17.9750 C.3   201  CYC201      0.1246
     26  C3C       41.0190   15.9200   18.9660 C.3   201  CYC201      0.0660
     27  C4C       40.2560   16.8040   19.9770 C.2   201  CYC201      0.1070
     28  CMC       41.2780   16.6330   16.4840 C.3   201  CYC201      0.0192
     29  CAC       42.0530   14.9320   19.5580 C.3   201  CYC201      0.0078
     30  CBC       42.5420   13.9230   18.6350 C.3   201  CYC201      0.0005
     31  OC        41.1160   19.2830   17.8260 O.2   201  CYC201     -0.2142
     32  CHD       39.6200   16.3850   21.1440 C.3   201  CYC201      0.1138
     33  ND        37.8020   16.4510   22.8440 N.2   201  CYC201     -0.4104
     34  C1D       38.8460   17.1170   22.1960 C.2   201  CYC201      0.1111
     35  C2D       38.9510   18.4240   22.7150 C.2   201  CYC201      0.0021
     36  C3D       37.9020   18.5820   23.7450 C.2   201  CYC201      0.0024
     37  C4D       37.2230   17.3070   23.7750 C.2   201  CYC201      0.1114
     38  CMD       39.9450   19.4910   22.3100 C.3   201  CYC201      0.0331
     39  CAD       37.6200   19.7910   24.5660 C.3   201  CYC201      0.0402
     40  CBD       36.8260   20.8150   23.9770 C.3   201  CYC201      0.1188
     41  CGD       36.6640   21.9850   24.9350 C.2   201  CYC201      0.3652
     42  O1D       36.1070   21.8800   25.9870 O.co2 201  CYC201     -0.2456
     43  O2D       37.1490   23.1800   24.6680 O.co2 201  CYC201     -0.2456
@<TRIPOS>BOND
     1    28    25    1
     2    31    24    2
     3    25    24    1
     4    25    26    1
     5    24    23    2
     6    30    29    1
     7    26    29    1
     8    26    27    1
     9    23    27    2
    10    27    32    1
    11    32    34    1
    12    34    35    1
    13    34    33    2
    14    38    35    1
    15    19    16    1
    16    35    36    2
    17    33    37    2
    18    16    17    2
    19    16    15    1
    20    20    17    1
    21    20    21    1
    22    36    37    1
    23    36    39    1
    24    37     1    1
    25    13    15    1
    26    13     6    1
    27    17    18    1
    28    40    39    1
    29    40    41    1
    30    15    14    2
    31     2     6    2
    32     2     3    2
    33     6     5    1
    34    43    41   ar
    35     1     3    1
    36     3     4    1
    37    41    42   ar
    38    18    14    2
    39    18    22    2
    40     5     4    2
    41     5     7    1
    42     4     8    1
    43     8     9    1
    44     9    10    1
    45    12    10   ar
    46    10    11   ar
