@<TRIPOS>MOLECULE
3dbm_HEM_A_1.pdb
 43 50 0 0 0
SMALL
GASTEIGER

@<TRIPOS>ATOM
      1 FE         39.7880   32.9090   25.1610 Fe    600  HEM600      0.0000
      2  CHA       41.1140   35.4180   27.0490 C.2   600  HEM600      0.0000
      3  CHB       42.8870   31.8130   24.4910 C.2   600  HEM600      0.0000
      4  CHC       38.4190   30.3720   23.2670 C.2   600  HEM600      0.0000
      5  CHD       36.6890   34.0540   25.8090 C.2   600  HEM600      0.0000
      6  NA        41.6400   33.4580   25.6620 N.ar  600  HEM600      0.0000
      7  C1A       42.0150   34.5400   26.4930 C.ar  600  HEM600      0.0000
      8  C2A       43.4100   34.6260   26.6800 C.ar  600  HEM600      0.0000
      9  C3A       43.9200   33.6130   25.9550 C.ar  600  HEM600      0.0000
     10  C4A       42.8240   32.8820   25.3060 C.ar  600  HEM600      0.0000
     11  CMA       45.4040   33.2470   25.8070 C.3   600  HEM600      0.0000
     12  CAA       44.2040   35.6290   27.5160 C.3   600  HEM600      0.0000
     13  CBA       44.4560   36.9510   26.8610 C.3   600  HEM600      0.0000
     14  CGA       45.2570   37.9310   27.7300 C.2   600  HEM600      0.0000
     15  O1A       44.6570   38.7230   28.5000 O.co2 600  HEM600      0.0000
     16  O2A       46.4510   37.9080   27.6570 O.co2 600  HEM600      0.0000
     17  NB        40.5470   31.4050   24.0720 N.2   600  HEM600      0.0000
     18  C1B       41.8320   31.0850   23.8790 C.2   600  HEM600      0.0000
     19  C2B       42.0270   29.9450   23.0050 C.2   600  HEM600      0.0000
     20  C3B       40.6730   29.5270   22.6440 C.2   600  HEM600      0.0000
     21  C4B       39.8160   30.4270   23.3210 C.2   600  HEM600      0.0000
     22  CMB       43.3410   29.3610   22.5940 C.3   600  HEM600      0.0000
     23  CAB       40.3610   28.4090   21.7680 C.2   600  HEM600      0.0000
     24  CBB       40.7160   27.1610   21.9810 C.2   600  HEM600      0.0000
     25  NC        37.9130   32.3490   24.6890 N.ar  600  HEM600      0.0000
     26  C1C       37.5580   31.2580   23.9030 C.ar  600  HEM600      0.0000
     27  C2C       36.0920   31.1440   23.8180 C.ar  600  HEM600      0.0000
     28  C3C       35.5510   32.2230   24.5460 C.ar  600  HEM600      0.0000
     29  C4C       36.7720   32.9440   25.0620 C.ar  600  HEM600      0.0000
     30  CMC       35.3240   30.0560   23.0710 C.3   600  HEM600      0.0000
     31  CAC       34.2400   32.5260   24.7320 C.2   600  HEM600      0.0000
     32  CBC       33.3890   32.6700   25.6930 C.2   600  HEM600      0.0000
     33  ND        39.0540   34.4580   26.2070 N.2   600  HEM600      0.0000
     34  C1D       37.7490   34.7650   26.3420 C.2   600  HEM600      0.0000
     35  C2D       37.5640   35.9980   27.1640 C.2   600  HEM600      0.0000
     36  C3D       38.8410   36.3820   27.5250 C.2   600  HEM600      0.0000
     37  C4D       39.7610   35.3970   26.9180 C.2   600  HEM600      0.0000
     38  CMD       36.2080   36.6050   27.4780 C.3   600  HEM600      0.0000
     39  CAD       39.2200   37.5850   28.3830 C.3   600  HEM600      0.0000
     40  CBD       38.6610   37.4570   29.7840 C.3   600  HEM600      0.0000
     41  CGD       38.9670   38.5760   30.6760 C.2   600  HEM600      0.0000
     42  O1D       38.7680   39.7720   30.2900 O.co2 600  HEM600      0.0000
     43  O2D       39.4090   38.3260   31.8090 O.co2 600  HEM600      0.0000
@<TRIPOS>BOND
     1    23    24    2
     2    23    20    1
     3    22    19    1
     4    20    19    2
     5    20    21    1
     6    19    18    1
     7    30    27    1
     8     4    21    2
     9     4    26    1
    10    21    17    1
    11    27    26   ar
    12    27    28   ar
    13    18    17    2
    14    18     3    1
    15    26    25   ar
    16    17     1    1
    17     3    10    2
    18    28    31    1
    19    28    29   ar
    20    25    29   ar
    21    25     1    1
    22    31    32    2
    23    29     5    1
    24     1     6    1
    25     1    33    1
    26    10     6   ar
    27    10     9   ar
    28     6     7   ar
    29    11     9    1
    30     5    34    2
    31     9     8   ar
    32    33    34    1
    33    33    37    2
    34    34    35    1
    35     7     8   ar
    36     7     2    2
    37     8    12    1
    38    13    12    1
    39    13    14    1
    40    37     2    1
    41    37    36    1
    42    35    38    1
    43    35    36    2
    44    36    39    1
    45    16    14   ar
    46    14    15   ar
    47    39    40    1
    48    40    41    1
    49    42    41   ar
    50    41    43   ar
