@<TRIPOS>MOLECULE
3dbm_HO2_A_1.pdb
 21 20 0 0 0
SMALL
GASTEIGER

@<TRIPOS>ATOM
      1  C18       50.0160   36.6830   17.9380 C.3   601  HO2601      0.0000
      2  C17       48.5390   36.9880   17.6800 C.3   601  HO2601      0.0000
      3  C16       47.6280   36.1160   18.5480 C.3   601  HO2601      0.0001
      4  C15       46.1570   36.3200   18.1770 C.3   601  HO2601      0.0030
      5  C14       45.2490   35.3550   18.9460 C.3   601  HO2601      0.0375
      6  C13       43.8090   35.4170   18.4300 C.3   601  HO2601      0.1740
      7  O21       42.9930   34.4600   19.1120 O.3   601  HO2601     -0.2183
      8  C12       43.7990   35.1100   16.9320 C.2   601  HO2601      0.0061
      9  C11       42.6210   35.2420   16.2070 C.2   601  HO2601     -0.0024
     10  C10       42.6160   34.9700   14.8440 C.2   601  HO2601     -0.0048
     11  C09       43.7850   34.5660   14.2080 C.2   601  HO2601     -0.0261
     12  C08       43.7870   34.3030   12.8430 C.3   601  HO2601      0.0260
     13  C07       43.5940   35.5960   12.0460 C.3   601  HO2601      0.0047
     14  C06       43.9290   35.3930   10.5670 C.3   601  HO2601      0.0003
     15  C05       45.3740   34.9080   10.4240 C.3   601  HO2601      0.0000
     16  C04       45.8080   34.7450    8.9650 C.3   601  HO2601      0.0006
     17  C03       45.9690   36.0890    8.2500 C.3   601  HO2601      0.0118
     18  C02       44.6300   36.8090    8.0810 C.3   601  HO2601      0.1141
     19  C01       43.6370   35.9180    7.3320 C.2   601  HO2601      0.3649
     20  O20       43.6440   35.9740    6.0830 O.co2 601  HO2601     -0.2457
     21  O19       42.9000   35.1920    8.0360 O.co2 601  HO2601     -0.2457
@<TRIPOS>BOND
     1    20    19   ar
     2    19    21   ar
     3    19    18    1
     4    18    17    1
     5    17    16    1
     6    16    15    1
     7    15    14    1
     8    14    13    1
     9    13    12    1
    10    12    11    1
    11    11    10    2
    12    10     9    1
    13     9     8    2
    14     8     6    1
    15     2     1    1
    16     2     3    1
    17     4     3    1
    18     4     5    1
    19     6     5    1
    20     6     7    1
