@<TRIPOS>MOLECULE
3dbn_CS2_A_1.pdb
 13 12 0 0 0
SMALL
GASTEIGER

@<TRIPOS>ATOM
      1  C2        -3.3370   23.9720    0.0220 C.3   388  CS2388      0.2865
      2  C3        -2.5020   22.6820    0.0180 C.3   388  CS2388      0.2260
      3  O1A       -1.7030   25.1600    1.3680 O.co2 388  CS2388     -0.2427
      4  C1        -2.6140   25.2560    0.5170 C.2   388  CS2388      0.3973
      5  O1B       -3.0270   26.3320    0.0470 O.co2 388  CS2388     -0.2427
      6  O2        -3.8640   24.1240   -1.3070 O.3   388  CS2388     -0.2080
      7  O3        -3.1020   21.8520   -0.9670 O.3   388  CS2388     -0.2169
      8  C4        -1.0000   22.8300   -0.3050 C.3   388  CS2388      0.2180
      9  O4        -0.8210   23.0990   -1.7020 O.3   388  CS2388     -0.2175
     10  C5        -0.1730   21.5860    0.1320 C.3   388  CS2388      0.2175
     11  O5        -0.2870   20.5160   -0.8310 O.3   388  CS2388     -0.2175
     12  C6        -0.5750   21.0770    1.5330 C.3   388  CS2388      0.2175
     13  O6         0.5490   20.5080    2.2140 O.3   388  CS2388     -0.2175
@<TRIPOS>BOND
     1     9     8    1
     2     6     1    1
     3     7     2    1
     4    11    10    1
     5     8     2    1
     6     8    10    1
     7     2     1    1
     8     1     4    1
     9     5     4   ar
    10    10    12    1
    11     4     3   ar
    12    12    13    1
