@<TRIPOS>MOLECULE
3dbp_NUP_A_1.pdb
 22 23 0 0 0
SMALL
GASTEIGER

@<TRIPOS>ATOM
      1  O4         3.0610    7.7320   22.5760 O.2   1000  NUP1000    -0.2082
      2  C4         3.6560    7.8320   23.7660 C.1   1000  NUP1000     0.2263
      3  N2         3.6440    9.0160   24.4090 N.2   1000  NUP1000    -0.2265
      4  C2         4.1720    9.1680   25.6400 C.1   1000  NUP1000     0.3759
      5  O2         4.1300   10.3050   26.1450 O.2   1000  NUP1000    -0.1670
      6  C5         4.2540    6.7360   24.3650 C.2   1000  NUP1000     0.2000
      7  C6         4.7570    6.9150   25.6440 C.2   1000  NUP1000     0.3944
      8  N3         5.2690    5.8050   26.2300 N.pl3 1000  NUP1000     0.2119
      9  N1         4.7830    8.1320   26.2500 N.am  1000  NUP1000    -0.0553
     10  C1'        5.3630    8.2650   27.5910 C.3   1000  NUP1000     0.3330
     11  O4'        4.3140    8.6320   28.5100 O.3   1000  NUP1000    -0.3127
     12  C2'        6.4120    9.3690   27.7080 C.3   1000  NUP1000     0.2581
     13  O2'        7.7680    8.8930   27.5080 O.3   1000  NUP1000    -0.2130
     14  C3'        6.2190    9.8880   29.1240 C.3   1000  NUP1000     0.2185
     15  O3'        6.9900    9.1100   30.0700 O.3   1000  NUP1000    -0.2174
     16  C4'        4.7250    9.6830   29.3840 C.3   1000  NUP1000     0.1823
     17  C5'        3.8910   10.9320   29.1050 C.3   1000  NUP1000     0.1860
     18  O5'        4.1890   11.8070   30.1920 O.3   1000  NUP1000    -0.2675
     19  P          3.4070   13.2200   30.3530 P.3   1000  NUP1000     0.5327
     20  O1P        3.3780   13.8820   28.9880 O.2   1000  NUP1000    -0.2224
     21  O2P        4.2490   13.9280   31.3520 O.3   1000  NUP1000    -0.1145
     22  O3P        2.0040   12.9000   30.8850 O.3   1000  NUP1000    -0.1145
@<TRIPOS>BOND
     1     1     2    2
     2     2     6    1
     3     2     3    2
     4     6     7    2
     5     3     4    2
     6     4     5    2
     7     4     9   am
     8     7     8    1
     9     7     9    1
    10     9    10    1
    11    13    12    1
    12    10    12    1
    13    10    11    1
    14    12    14    1
    15    11    16    1
    16    20    19    2
    17    17    16    1
    18    17    18    1
    19    14    16    1
    20    14    15    1
    21    18    19    1
    22    19    22    1
    23    19    21    1
