@<TRIPOS>MOLECULE
3dbs_GD9_A_1.pdb
 35 40 0 0 0
SMALL
GASTEIGER

@<TRIPOS>ATOM
      1  O3        19.6860   59.5250   24.4390 O.3     1  GD91       -0.3501
      2  C4        22.2550   61.7810   22.1080 C.2     1  GD91        0.1896
      3  C5        21.3750   65.3980   21.3670 C.2     1  GD91        0.0223
      4  C6        22.5920   65.2050   20.8630 C.2     1  GD91        0.0331
      5  N1        24.1570   63.2850   20.7550 N.2     1  GD91       -0.3431
      6  C7        20.6910   66.7430   21.2780 C.3     1  GD91        0.1055
      7  C8        25.6090   61.4690   20.6670 C.2     1  GD91        0.0708
      8  N2        23.4480   61.2570   21.7200 N.2     1  GD91       -0.3282
      9  C9        19.9210   68.3930   19.6720 C.3     1  GD91        0.0918
     10  C10       19.5300   68.5240   18.1960 C.3     1  GD91        0.1128
     11  C11       18.8850   66.2070   18.2080 C.3     1  GD91        0.1128
     12  C12       18.9810   66.1720   19.7140 C.3     1  GD91        0.0918
     13  N3        21.3800   60.9900   22.8100 N.pl3   1  GD91       -0.2801
     14  C13       17.2570   69.1770   15.8700 C.3     1  GD91        0.1960
     15  C14       21.9500   59.8880   23.5830 C.3     1  GD91        0.1250
     16  C15       21.0620   59.6020   24.7890 C.3     1  GD91        0.1636
     17  N4        20.1610   66.9800   19.9550 N.3     1  GD91       -0.2660
     18  O2        19.2330   67.3420   15.4530 O.2     1  GD91       -0.1572
     19  S2        18.0130   67.5640   16.2420 S.O2    1  GD91        0.0457
     20  O1        17.0380   66.4970   15.9810 O.2     1  GD91       -0.1572
     21  N5        18.4720   67.5550   17.8980 N.3     1  GD91       -0.1565
     22  S1        20.6610   64.0680   22.1100 S.3     1  GD91       -0.1017
     23  C2        22.9930   63.8290   21.1100 C.2     1  GD91        0.1397
     24  C1        22.0320   63.1230   21.7860 C.3     1  GD91        0.1719
     25  C3        24.3750   61.9890   21.0520 C.1     1  GD91        0.1348
     26  C18       26.2540   61.9140   19.5170 C.3     1  GD91        0.0647
     27  C19       27.4900   61.3820   19.1820 C.2     1  GD91       -0.0190
     28  C20       28.0880   60.4370   19.9900 C.2     1  GD91        0.0168
     29  C21       27.4540   60.0120   21.1410 C.2     1  GD91        0.1045
     30  N6        27.8630   59.0900   22.0790 N.2     1  GD91       -0.1479
     31  C22       26.2510   60.5350   21.4380 C.2     1  GD91        0.0479
     32  C23       25.8280   59.9200   22.6520 C.2     1  GD91        0.1241
     33  N7        26.8030   59.0610   23.0310 N.2     1  GD91       -0.1463
     34  C16       19.2500   60.7430   23.8500 C.3     1  GD91        0.1636
     35  C17       19.9550   60.8890   22.5000 C.3     1  GD91        0.1250
@<TRIPOS>BOND
     1    18    19    2
     2    14    19    1
     3    20    19    2
     4    19    21    1
     5    21    10    1
     6    21    11    1
     7    10     9    1
     8    11    12    1
     9    27    26    1
    10    27    28    2
    11    26     7    1
    12     9    17    1
    13    12    17    1
    14    17     6    1
    15    28    29    1
    16     7    25    1
    17     7    31    2
    18     5    25    2
    19     5    23    2
    20     4    23    1
    21     4     3    2
    22    25     8    2
    23    23    24    1
    24    29    31    1
    25    29    30    2
    26     6     3    1
    27     3    22    1
    28    31    32    1
    29     8     2    2
    30    24     2    1
    31    24    22    1
    32    30    33    1
    33     2    13    1
    34    35    13    1
    35    35    34    1
    36    32    33    2
    37    13    15    1
    38    15    16    1
    39    34     1    1
    40     1    16    1
