@<TRIPOS>MOLECULE
3dbu_D8W_A_1.pdb
 19 20 0 0 0
SMALL
GASTEIGER

@<TRIPOS>ATOM
      1  C1        -3.7420    7.3070   14.8980 C.ar  301  D8W301      0.0202
      2  C2        -2.6920    8.1510   15.2590 C.ar  301  D8W301      0.0014
      3  C3        -1.8840    8.6900   14.2660 C.ar  301  D8W301      0.0001
      4  C4        -2.1030    8.4210   12.9200 C.ar  301  D8W301      0.0014
      5  C5        -3.1460    7.5680   12.5600 C.ar  301  D8W301      0.0202
      6  C6        -3.9410    7.0250   13.5560 C.ar  301  D8W301      0.1271
      7  S1        -5.1670    6.0530   13.1690 S.O2  301  D8W301      0.0947
      8  O1        -6.1580    6.2660   14.2320 O.2   301  D8W301     -0.1482
      9  O2        -5.7080    6.4880   11.8610 O.2   301  D8W301     -0.1482
     10  N1        -4.5820    4.6730   13.0350 N.pl3 301  D8W301     -0.0684
     11  C7        -4.5930    3.6580   13.9330 C.ar  301  D8W301      0.2253
     12  S2        -5.8540    3.4340   15.0680 S.2   301  D8W301     -0.0075
     13  N2        -3.6410    2.6990   14.0260 N.ar  301  D8W301     -0.1209
     14  N3        -3.9230    1.7500   15.0500 N.ar  301  D8W301     -0.1188
     15  C8        -5.0860    2.0190   15.6820 C.ar  301  D8W301      0.2591
     16  S3        -5.8550    0.9830   16.7270 S.O2  301  D8W301      0.1178
     17  O3        -5.2900    1.2210   18.0210 O.2   301  D8W301     -0.1483
     18  O4        -7.2460    1.2080   16.6850 O.2   301  D8W301     -0.1483
     19  N4        -5.5030   -0.5170   16.2880 N.3   301  D8W301      0.0413
@<TRIPOS>BOND
     1     9     7    2
     2     5     4   ar
     3     5     6   ar
     4     4     3   ar
     5    10     7    1
     6    10    11    1
     7     7     6    1
     8     7     8    2
     9     6     1   ar
    10    11    13   ar
    11    11    12   ar
    12    13    14   ar
    13     3     2   ar
    14     1     2   ar
    15    14    15   ar
    16    12    15   ar
    17    15    16    1
    18    19    16    1
    19    18    16    2
    20    16    17    2
