@<TRIPOS>MOLECULE
3dbv_NAD_O_1.pdb
 44 48 0 0 0
SMALL
GASTEIGER

@<TRIPOS>ATOM
      1  PA       -17.2770   -8.3390   46.7200 P.3   336  NAD336      0.2189
      2  O1A      -17.9860   -7.0430   46.4890 O.3   336  NAD336     -0.4371
      3  O2A      -16.7690   -9.0050   45.4880 O.2   336  NAD336     -0.5170
      4  O5B      -18.2770   -9.3060   47.4960 O.3   336  NAD336     -0.3112
      5  C5B      -19.3700   -8.8040   48.3090 C.3   336  NAD336      0.1813
      6  C4B      -20.4960   -9.8150   48.1360 C.3   336  NAD336      0.1821
      7  O4B      -21.3840   -9.8600   49.2550 O.3   336  NAD336     -0.3135
      8  C3B      -21.3310   -9.6150   46.8730 C.3   336  NAD336      0.2184
      9  O3B      -21.2320  -10.7630   46.0290 O.3   336  NAD336     -0.2174
     10  C2B      -22.7350   -9.3270   47.4040 C.3   336  NAD336      0.2570
     11  O2B      -23.7300   -9.6580   46.3990 O.3   336  NAD336     -0.2130
     12  C1B      -22.6970  -10.1250   48.7480 C.3   336  NAD336      0.3186
     13  N9A      -23.5660   -9.7080   49.8830 N.pl3 336  NAD336     -0.1439
     14  C8A      -23.5420   -8.4700   50.4040 C.3   336  NAD336      0.3377
     15  N7A      -24.4010   -8.3490   51.4140 N.2   336  NAD336     -0.2095
     16  C5A      -24.9550   -9.5360   51.5080 C.2   336  NAD336      0.2526
     17  C6A      -25.8900   -9.8480   52.4800 C.2   336  NAD336      0.4393
     18  N6A      -26.2750   -8.9460   53.3770 N.pl3 336  NAD336      0.2180
     19  N1A      -26.3650  -11.1050   52.4180 N.2   336  NAD336      0.0021
     20  C2A      -25.9220  -11.9780   51.4990 C.3   336  NAD336      0.5254
     21  N3A      -24.9990  -11.6620   50.5900 N.2   336  NAD336     -0.0055
     22  C4A      -24.4790  -10.4180   50.5670 C.2   336  NAD336      0.3518
     23  O3       -16.0940   -8.1160   47.7900 O.3   336  NAD336     -0.2703
     24  PN       -14.8060   -8.8340   48.4180 P.3   336  NAD336      0.2189
     25  O1N      -13.5570   -8.1870   47.9700 O.2   336  NAD336     -0.5170
     26  O2N      -15.0360  -10.3070   48.3090 O.3   336  NAD336     -0.4371
     27  O5D      -14.7840   -8.4490   49.9540 O.3   336  NAD336     -0.3112
     28  C5D      -15.4370   -9.2780   50.9030 C.3   336  NAD336      0.1813
     29  C4D      -14.9840   -8.9410   52.2750 C.3   336  NAD336      0.1799
     30  O4D      -13.7360   -9.5710   52.5830 O.3   336  NAD336     -0.3327
     31  C3D      -14.7730   -7.4690   52.4550 C.3   336  NAD336      0.2158
     32  O3D      -14.7100   -7.3490   53.8840 O.3   336  NAD336     -0.2175
     33  C2D      -13.3360   -7.2330   52.0210 C.3   336  NAD336      0.2309
     34  O2D      -12.7900   -6.0050   52.5960 O.3   336  NAD336     -0.2158
     35  C1D      -12.7430   -8.5340   52.5760 C.3   336  NAD336      0.2263
     36  N1N      -11.5600   -8.9420   51.8160 N.pl3 336  NAD336     -0.2787
     37  C2N      -11.4150   -8.7650   50.4010 C.3   336  NAD336      0.1244
     38  C3N      -10.1960   -9.0980   49.7800 C.2   336  NAD336      0.0544
     39  C7N       -9.8280   -8.8230   48.2990 C.2   336  NAD336      0.2818
     40  O7N       -8.6850   -8.5000   48.0000 O.2   336  NAD336     -0.2670
     41  N7N      -10.7330   -8.9450   47.3400 N.am  336  NAD336     -0.0839
     42  C4N       -9.1810   -9.6270   50.5720 C.2   336  NAD336      0.0033
     43  C5N       -9.3530   -9.7940   51.9480 C.2   336  NAD336      0.0157
     44  C6N      -10.5320   -9.4470   52.6090 C.2   336  NAD336      0.0633
@<TRIPOS>BOND
     1     3     1    2
     2     9     8    1
     3    11    10    1
     4     2     1    1
     5     1     4    1
     6     1    23    1
     7     8    10    1
     8     8     6    1
     9    41    39   am
    10    10    12    1
    11     4     5    1
    12    23    24    1
    13    25    24    2
    14    40    39    2
    15     6     5    1
    16     6     7    1
    17    39    38    1
    18    26    24    1
    19    24    27    1
    20    12     7    1
    21    12    13    1
    22    38    37    1
    23    38    42    2
    24    13    14    1
    25    13    22    1
    26    27    28    1
    27    37    36    1
    28    14    15    1
    29    22    21    2
    30    22    16    1
    31    42    43    1
    32    21    20    1
    33    28    29    1
    34    15    16    2
    35    20    19    1
    36    16    17    1
    37    36    35    1
    38    36    44    1
    39    43    44    2
    40    33    31    1
    41    33    35    1
    42    33    34    1
    43    29    31    1
    44    29    30    1
    45    19    17    2
    46    31    32    1
    47    17    18    1
    48    35    30    1
