@<TRIPOS>MOLECULE
3dbx_PLM_A_1.pdb
 18 17 0 0 0
SMALL
GASTEIGER

@<TRIPOS>ATOM
      1  C1        16.3280   66.3550   22.6770 C.2   522  PLM522      0.3649
      2  O1        17.5560   66.5190   22.8930 O.co2 522  PLM522     -0.2457
      3  O2        15.5800   67.3590   22.7120 O.co2 522  PLM522     -0.2457
      4  C2        15.7460   64.9840   22.3790 C.3   522  PLM522      0.1141
      5  C3        16.6430   63.8700   22.9250 C.3   522  PLM522      0.0118
      6  C4        15.9930   62.4930   22.8080 C.3   522  PLM522      0.0006
      7  C5        15.1980   62.1170   24.0610 C.3   522  PLM522      0.0000
      8  C6        16.0530   61.4930   25.1670 C.3   522  PLM522      0.0000
      9  C7        15.5530   61.8710   26.5600 C.3   522  PLM522      0.0000
     10  C8        14.8320   60.7170   27.2340 C.3   522  PLM522      0.0000
     11  C9        15.1230   60.6880   28.7320 C.3   522  PLM522      0.0000
     12  CA        14.4510   59.4640   29.3460 C.3   522  PLM522      0.0000
     13  CB        15.2970   58.8140   30.4330 C.3   522  PLM522      0.0000
     14  CC        16.1410   57.6590   29.9060 C.3   522  PLM522      0.0000
     15  CD        15.4680   56.3100   30.1210 C.3   522  PLM522      0.0000
     16  CE        16.0990   55.2940   29.1930 C.3   522  PLM522      0.0000
     17  CF        16.4830   54.0190   29.9330 C.3   522  PLM522      0.0000
     18  CG        17.7370   53.4020   29.3240 C.3   522  PLM522      0.0000
@<TRIPOS>BOND
     1     4     1    1
     2     4     5    1
     3     1     3   ar
     4     1     2   ar
     5     6     5    1
     6     6     7    1
     7     7     8    1
     8     8     9    1
     9     9    10    1
    10    10    11    1
    11    11    12    1
    12    16    17    1
    13    16    15    1
    14    18    17    1
    15    12    13    1
    16    14    15    1
    17    14    13    1
