@<TRIPOS>MOLECULE
3dc1_AKG_A_1.pdb
 10 9 0 0 0
SMALL
GASTEIGER

@<TRIPOS>ATOM
      1  C1         6.5470   -9.3690    4.1760 C.2   426  AKG426      0.4261
      2  O1         7.4150   -8.9010    5.0090 O.co2 426  AKG426     -0.2369
      3  O2         5.5200   -8.7200    3.7920 O.co2 426  AKG426     -0.2369
      4  C2         6.8030  -10.7360    3.6950 C.2   426  AKG426      0.2749
      5  O5         7.1760  -10.8190    2.5370 O.2   426  AKG426     -0.2795
      6  C3         6.7030  -11.9100    4.6630 C.2   426  AKG426      0.0558
      7  C4         6.0640  -13.2080    4.1110 C.2   426  AKG426      0.0896
      8  C5         6.0450  -14.4770    5.0260 C.2   426  AKG426      0.3881
      9  O3         6.5510  -14.5340    6.2310 O.co2 426  AKG426     -0.2405
     10  O4         5.4590  -15.4870    4.4900 O.co2 426  AKG426     -0.2405
@<TRIPOS>BOND
     1     5     4    2
     2     4     1    1
     3     4     6    1
     4     3     1   ar
     5     7     6    2
     6     7     8    1
     7     1     2   ar
     8    10     8   ar
     9     8     9   ar
