@<TRIPOS>MOLECULE
3dc2_TLA_B_1.pdb
 10 9 0 0 0
SMALL
GASTEIGER

@<TRIPOS>ATOM
      1  O1        38.1500   87.5000  -18.5410 O.co2 700  TLA700     -0.2427
      2  O11       40.2130   86.7140  -18.1770 O.co2 700  TLA700     -0.2427
      3  C1        39.2520   87.6230  -18.0020 C.2   700  TLA700      0.3979
      4  C2        39.5380   88.7900  -17.1090 C.3   700  TLA700      0.2950
      5  O2        40.8290   88.5660  -16.5760 O.3   700  TLA700     -0.2075
      6  C3        38.5100   88.8070  -15.9810 C.3   700  TLA700      0.2950
      7  O3        38.4970   87.5130  -15.3970 O.3   700  TLA700     -0.2075
      8  C4        38.8440   89.8770  -14.9660 C.2   700  TLA700      0.3979
      9  O4        38.8890   89.6400  -13.7600 O.co2 700  TLA700     -0.2427
     10  O41       39.0940   91.1180  -15.3880 O.co2 700  TLA700     -0.2427
@<TRIPOS>BOND
     1     1     3   ar
     2     2     3   ar
     3     3     4    1
     4     4     5    1
     5     4     6    1
     6     6     7    1
     7     6     8    1
     8    10     8   ar
     9     8     9   ar
