@<TRIPOS>MOLECULE
3dc3_AZM_A_1.pdb
 13 13 0 0 0
SMALL
GASTEIGER

@<TRIPOS>ATOM
      1  C1        -5.1710    2.0530   15.9880 C.ar  263  AZM263      0.2590
      2  C2        -4.7260    3.8470   14.5620 C.ar  263  AZM263      0.2093
      3  C3        -5.5320    5.7530   13.2640 C.2   263  AZM263      0.2478
      4  C4        -5.2070    6.6980   12.4970 C.3   263  AZM263      0.0969
      5  N1        -5.4920   -0.5860   16.3150 N.3   263  AZM263      0.0413
      6  N2        -3.5950    3.2790   15.0570 N.ar  263  AZM263     -0.1222
      7  N3        -3.8530    2.1680   15.9320 N.ar  263  AZM263     -0.1189
      8  N4        -4.6410    5.0950   13.9610 N.am  263  AZM263     -0.1528
      9  O1        -5.4940    0.9270   18.2800 O.2   263  AZM263     -0.1483
     10  O2        -7.3740    1.0210   16.7110 O.2   263  AZM263     -0.1483
     11  O3        -6.9800    5.6060   13.5770 O.2   263  AZM263     -0.2729
     12  S1        -5.9630    0.8210   16.9040 S.O2  263  AZM263      0.1178
     13  S2        -6.0650    3.3190   15.2400 S.2   263  AZM263     -0.0087
@<TRIPOS>BOND
     1     4     3    1
     2     3    11    2
     3     3     8   am
     4     8     2    1
     5     2     6   ar
     6     2    13   ar
     7     6     7   ar
     8    13     1   ar
     9     7     1   ar
    10     1    12    1
    11     5    12    1
    12    10    12    2
    13    12     9    2
