@<TRIPOS>MOLECULE
3dc4_ADP_A_1.pdb
 27 29 0 0 0
SMALL
GASTEIGER

@<TRIPOS>ATOM
      1  PB       -10.4170  -54.0380   27.2830 P.3   401  ADP401      0.5373
      2  O1B      -10.4460  -53.8270   28.7420 O.3   401  ADP401     -0.1143
      3  O2B      -11.0560  -52.7910   26.5810 O.2   401  ADP401     -0.2221
      4  O3B       -8.8000  -54.2330   26.8700 O.3   401  ADP401     -0.1143
      5  PA       -12.4400  -55.2420   25.8500 P.3   401  ADP401      0.2231
      6  O1A      -13.4050  -54.2900   26.3640 O.3   401  ADP401     -0.4370
      7  O2A      -11.8310  -54.7540   24.4720 O.2   401  ADP401     -0.5169
      8  O3A      -11.2370  -55.4100   26.9630 O.3   401  ADP401     -0.2261
      9  O5'      -13.1350  -56.6770   25.7180 O.3   401  ADP401     -0.3111
     10  C5'      -12.2010  -57.6210   25.1770 C.3   401  ADP401      0.1813
     11  C4'      -12.9880  -58.7360   24.4830 C.3   401  ADP401      0.1821
     12  O4'      -13.8380  -59.4310   25.4300 O.3   401  ADP401     -0.3135
     13  C3'      -13.9360  -58.1440   23.3730 C.3   401  ADP401      0.2184
     14  O3'      -14.3300  -59.1410   22.4400 O.3   401  ADP401     -0.2174
     15  C2'      -15.2430  -57.9880   24.2550 C.3   401  ADP401      0.2570
     16  O2'      -16.4190  -58.0180   23.4310 O.3   401  ADP401     -0.2130
     17  C1'      -15.2320  -59.2740   25.1240 C.3   401  ADP401      0.3186
     18  N9       -15.9730  -59.0630   26.3670 N.pl3 401  ADP401     -0.1439
     19  C8       -15.5180  -58.3990   27.4830 C.3   401  ADP401      0.3377
     20  N7       -16.4810  -58.2700   28.3680 N.2   401  ADP401     -0.2095
     21  C5       -17.5390  -59.0190   27.9600 C.2   401  ADP401      0.2526
     22  C6       -18.8420  -59.2760   28.4570 C.2   401  ADP401      0.4393
     23  N6       -19.1980  -58.8650   29.7290 N.pl3 401  ADP401      0.2180
     24  N1       -19.7180  -59.9570   27.6800 N.2   401  ADP401      0.0021
     25  C2       -19.3460  -60.4780   26.5070 C.3   401  ADP401      0.5254
     26  N3       -18.1470  -60.2430   25.9840 N.2   401  ADP401     -0.0055
     27  C4       -17.2460  -59.4940   26.6360 C.2   401  ADP401      0.3518
@<TRIPOS>BOND
     1    14    13    1
     2    13    15    1
     3    13    11    1
     4    16    15    1
     5    15    17    1
     6     7     5    2
     7    11    10    1
     8    11    12    1
     9    17    12    1
    10    17    18    1
    11    10     9    1
    12     9     5    1
    13     5     6    1
    14     5     8    1
    15    26    25    1
    16    26    27    2
    17    18    27    1
    18    18    19    1
    19    25    24    1
    20     3     1    2
    21    27    21    1
    22     4     1    1
    23     8     1    1
    24     1     2    1
    25    19    20    1
    26    24    22    2
    27    21    20    2
    28    21    22    1
    29    22    23    1
