@<TRIPOS>MOLECULE
3dcb_ANP_A_1.pdb
 31 33 0 0 0
SMALL
GASTEIGER

@<TRIPOS>ATOM
      1  PG        78.9820   12.8800  -10.1660 P.3   401  ANP401      0.4884
      2  O1G       79.5050   11.7650   -9.3710 O.3   401  ANP401     -0.1240
      3  O2G       79.1770   14.2400   -9.3620 O.3   401  ANP401     -0.1240
      4  O3G       77.4090   12.6850  -10.3870 O.2   401  ANP401     -0.2331
      5  PB        79.6230   11.6200  -12.6280 P.3   401  ANP401      0.4669
      6  O1B       80.3690   10.5500  -11.9450 O.3   401  ANP401     -0.1253
      7  O2B       78.0830   11.1940  -12.7840 O.2   401  ANP401     -0.2351
      8  N3B       79.7660   13.0270  -11.6680 N.3   401  ANP401     -0.0163
      9  PA        79.3360   11.9860  -15.2890 P.3   401  ANP401      0.2220
     10  O1A       78.7110   10.6660  -15.4260 O.2   401  ANP401     -0.5170
     11  O2A       78.2310   13.0920  -15.0200 O.3   401  ANP401     -0.4370
     12  O3A       80.3660   11.9890  -14.0160 O.3   401  ANP401     -0.2360
     13  O5'       80.1600   12.3270  -16.6090 O.3   401  ANP401     -0.3111
     14  C5'       80.7730   13.6310  -16.4550 C.3   401  ANP401      0.1813
     15  C4'       81.2970   14.1030  -17.8160 C.3   401  ANP401      0.1821
     16  O4'       82.3310   13.1940  -18.3060 O.3   401  ANP401     -0.3135
     17  C3'       80.1290   14.1000  -18.8420 C.3   401  ANP401      0.2184
     18  O3'       80.3560   14.9990  -19.9080 O.3   401  ANP401     -0.2174
     19  C2'       80.4150   12.7020  -19.5040 C.3   401  ANP401      0.2570
     20  O2'       79.8680   12.6250  -20.8250 O.3   401  ANP401     -0.2130
     21  C1'       81.9580   12.7310  -19.6210 C.3   401  ANP401      0.3186
     22  N9        82.4560   11.3690  -19.8300 N.pl3 401  ANP401     -0.1439
     23  C8        82.7450   10.4400  -18.8590 C.3   401  ANP401      0.3377
     24  N7        83.0270    9.2870  -19.3970 N.2   401  ANP401     -0.2095
     25  C5        83.1260    9.4360  -20.7420 C.2   401  ANP401      0.2526
     26  C6        83.3950    8.5820  -21.8320 C.2   401  ANP401      0.4393
     27  N6        83.7970    7.2850  -21.6120 N.pl3 401  ANP401      0.2180
     28  N1        83.2470    9.0540  -23.0960 N.2   401  ANP401      0.0021
     29  C2        82.9700   10.3490  -23.3220 C.3   401  ANP401      0.5254
     30  N3        82.6880   11.1900  -22.3250 N.2   401  ANP401     -0.0055
     31  C4        82.7080   10.7730  -21.0460 C.2   401  ANP401      0.3518
@<TRIPOS>BOND
     1    29    28    1
     2    29    30    1
     3    28    26    2
     4    30    31    2
     5    26    27    1
     6    26    25    1
     7    31    25    1
     8    31    22    1
     9    20    19    1
    10    25    24    2
    11    18    17    1
    12    22    21    1
    13    22    23    1
    14    21    19    1
    15    21    16    1
    16    19    17    1
    17    24    23    1
    18    17    15    1
    19    16    15    1
    20    15    14    1
    21    13    14    1
    22    13     9    1
    23    10     9    2
    24     9    11    1
    25     9    12    1
    26    12     5    1
    27     7     5    2
    28     5     6    1
    29     5     8    1
    30     8     1    1
    31     4     1    2
    32     1     2    1
    33     1     3    1
