@<TRIPOS>MOLECULE
3dcc_D9Z_A_1.pdb
 16 17 0 0 0
SMALL
GASTEIGER

@<TRIPOS>ATOM
      1  O2        -7.4220    0.6900   16.6380 O.2   263  D9Z263     -0.1483
      2  S1        -6.0670    0.4700   16.9070 S.O2  263  D9Z263      0.1178
      3  O1        -5.6890    0.5920   18.2890 O.2   263  D9Z263     -0.1483
      4  N3        -5.4780   -0.9040   16.3560 N.3   263  D9Z263      0.0413
      5  C8        -5.2280    1.6920   16.1710 C.ar  263  D9Z263      0.2578
      6  S2        -5.8660    2.9570   15.2040 S.2   263  D9Z263     -0.0255
      7  N2        -3.8990    1.7000   16.3010 N.ar  263  D9Z263     -0.1202
      8  N1        -3.3540    2.7480   15.5640 N.ar  263  D9Z263     -0.1395
      9  C7        -4.2460    3.5270   14.9250 C.ar  263  D9Z263      0.1357
     10  C1        -3.8240    4.6320   14.1700 C.ar  263  D9Z263      0.0362
     11  C6        -2.4790    4.9340   14.0500 C.ar  263  D9Z263      0.0029
     12  C2        -4.7470    5.4240   13.5430 C.ar  263  D9Z263      0.0597
     13  C3        -4.4270    6.5050   12.7520 C.ar  263  D9Z263      0.0115
     14  C4        -3.0580    6.8110   12.6290 C.ar  263  D9Z263      0.0009
     15  C5        -2.1000    6.0540   13.2730 C.ar  263  D9Z263      0.0001
     16 CL1        -6.4460    5.3330   13.5050 Cl    263  D9Z263     -0.0822
@<TRIPOS>BOND
     1    14    13   ar
     2    14    15   ar
     3    13    12   ar
     4    15    11   ar
     5    16    12    1
     6    12    10   ar
     7    11    10   ar
     8    10     9    1
     9     9     6   ar
    10     9     8   ar
    11     6     5   ar
    12     8     7   ar
    13     5     7   ar
    14     5     2    1
    15     4     2    1
    16     1     2    2
    17     2     3    2
