@<TRIPOS>MOLECULE
3dcj_THH_A_1.pdb
 33 35 0 0 0
SMALL
GASTEIGER

@<TRIPOS>ATOM
      1  OE1       15.4790   12.0040   15.7690 O.co2 401  THH401     -0.2457
      2  CD        15.1960   13.1560   16.2210 C.2   401  THH401      0.3649
      3  OE2       15.7020   14.2530   15.8360 O.co2 401  THH401     -0.2457
      4  CG        14.2030   13.2150   17.4100 C.3   401  THH401      0.1164
      5  CB        12.8210   13.7440   17.0930 C.3   401  THH401      0.0451
      6  CA        11.7640   12.6250   16.8450 C.3   401  THH401      0.1986
      7  CT        10.7860   13.1970   15.8030 C.2   401  THH401      0.3842
      8  O1         9.9640   12.4240   15.2450 O.co2 401  THH401     -0.2437
      9  O2        10.9380   14.4000   15.5140 O.co2 401  THH401     -0.2437
     10  N         12.3670   11.4170   16.2430 N.am  401  THH401     -0.1918
     11  C         11.7030   10.2600   16.0170 C.2   401  THH401      0.2652
     12  O         10.4970   10.0920   16.2120 O.2   401  THH401     -0.2684
     13  C12       12.4890    9.1750   15.2780 C.ar  401  THH401      0.0551
     14  C13       13.8670    9.2940   15.0420 C.ar  401  THH401      0.0059
     15  C14       14.5190    8.2700   14.3260 C.ar  401  THH401      0.0162
     16  C15       13.8060    7.1730   13.8220 C.ar  401  THH401      0.0654
     17  C16       12.4240    7.0600   14.0610 C.ar  401  THH401      0.0162
     18  C17       11.7790    8.0560   14.7920 C.ar  401  THH401      0.0059
     19  N10       14.3970    6.1830   13.1340 N.pl3 401  THH401     -0.2361
     20  C9        15.6200    6.2510   12.3070 C.3   401  THH401      0.1302
     21  C6        15.5530    7.2240   11.0850 C.3   401  THH401      0.1062
     22  C7        14.5800    6.7510    9.9820 C.3   401  THH401      0.1547
     23  N8        15.0760    5.5040    9.3340 N.2   401  THH401     -0.2096
     24  C8A       16.4660    5.1850    9.4440 C.1   401  THH401      0.1050
     25  N1        16.9410    4.0060    8.9860 N.2   401  THH401     -0.2726
     26  C4A       17.3490    6.1410   10.0140 C.3   401  THH401      0.2763
     27  N5        16.9170    7.3600   10.5060 N.3   401  THH401     -0.2435
     28  C11       16.9510    8.4730    9.5370 C.3   401  THH401      0.0915
     29  C4        18.6940    5.7580   10.1050 C.1   401  THH401      0.2218
     30  O4        19.5890    6.6130   10.6280 O.2   401  THH401     -0.2109
     31  N3        19.1060    4.5550    9.6310 N.2   401  THH401     -0.2515
     32  C2        18.2470    3.6760    9.1120 C.1   401  THH401      0.2603
     33  NA2       18.7270    2.5030    8.6790 N.pl3 401  THH401     -0.0221
@<TRIPOS>BOND
     1    33    32    1
     2    25    32    2
     3    25    24    2
     4    32    31    2
     5    23    24    2
     6    23    22    1
     7    24    26    1
     8    28    27    1
     9    31    29    2
    10    22    21    1
    11    26    29    1
    12    26    27    1
    13    29    30    2
    14    27    21    1
    15    21    20    1
    16    20    19    1
    17    19    16    1
    18    16    17   ar
    19    16    15   ar
    20    17    18   ar
    21    15    14   ar
    22    18    13   ar
    23    14    13   ar
    24     8     7   ar
    25    13    11    1
    26     9     7   ar
    27     1     2   ar
    28     7     6    1
    29     3     2   ar
    30    11    12    2
    31    11    10   am
    32     2     4    1
    33    10     6    1
    34     6     5    1
    35     5     4    1
