@<TRIPOS>MOLECULE
3dcm_SAM_X_1.pdb
 27 29 0 0 0
SMALL
GASTEIGER

@<TRIPOS>ATOM
      1  N         13.6390   38.6740   15.7570 N.3   5452  SAM5452    -0.1159
      2  CA        14.4560   37.4960   16.0620 C.3   5452  SAM5452     0.2168
      3  C         15.9010   37.8950   16.3900 C.2   5452  SAM5452     0.3860
      4  O         16.0970   38.8640   17.1310 O.co2 5452  SAM5452    -0.2437
      5  OXT       16.8960   37.2880   15.9560 O.co2 5452  SAM5452    -0.2437
      6  CB        14.3500   36.4360   14.9570 C.2   5452  SAM5452     0.0097
      7  CG        14.5430   36.9270   13.5200 C.2   5452  SAM5452     0.0191
      8  SD        14.7980   35.6310   12.2670 S.3   5452  SAM5452    -0.1536
      9  CE        13.0850   35.1520   11.9120 C.3   5452  SAM5452     0.0636
     10  C5'       15.3640   34.2070   13.2270 C.3   5452  SAM5452     0.0847
     11  C4'       16.2730   33.3110   12.3940 C.3   5452  SAM5452     0.1625
     12  O4'       16.9080   32.3840   13.2460 O.3   5452  SAM5452    -0.3153
     13  C3'       15.5060   32.4790   11.3770 C.3   5452  SAM5452     0.2168
     14  O3'       15.4940   33.0710   10.1070 O.3   5452  SAM5452    -0.2175
     15  C2'       16.2160   31.1380   11.3680 C.3   5452  SAM5452     0.2569
     16  O2'       17.3480   31.1400   10.5240 O.3   5452  SAM5452    -0.2130
     17  C1'       16.7090   31.0550   12.7890 C.3   5452  SAM5452     0.3185
     18  N9        15.7470   30.3740   13.6840 N.pl3 5452  SAM5452    -0.1439
     19  C8        14.9900   30.9460   14.6730 C.3   5452  SAM5452     0.3377
     20  N7        14.2730   29.9750   15.2830 N.2   5452  SAM5452    -0.2095
     21  C5        14.5740   28.7940   14.6980 C.2   5452  SAM5452     0.2526
     22  C6        14.1380   27.4950   14.9240 C.2   5452  SAM5452     0.4393
     23  N6        13.2460   27.2290   15.8780 N.pl3 5452  SAM5452     0.2180
     24  N1        14.6530   26.4720   14.1530 N.2   5452  SAM5452     0.0021
     25  C2        15.5730   26.7250   13.1580 C.3   5452  SAM5452     0.5254
     26  N3        15.9980   28.0190   12.9340 N.2   5452  SAM5452    -0.0055
     27  C4        15.5030   29.0300   13.6980 C.2   5452  SAM5452     0.3518
@<TRIPOS>BOND
     1    14    13    1
     2    16    15    1
     3    15    13    1
     4    15    17    1
     5    13    11    1
     6     9     8    1
     7     8    10    1
     8     8     7    1
     9    11    10    1
    10    11    12    1
    11    17    12    1
    12    17    18    1
    13    26    25    1
    14    26    27    2
    15    25    24    1
    16     7     6    2
    17    18    27    1
    18    18    19    1
    19    27    21    1
    20    24    22    2
    21    19    20    1
    22    21    22    1
    23    21    20    2
    24    22    23    1
    25     6     2    1
    26     1     2    1
    27     5     3   ar
    28     2     3    1
    29     3     4   ar
