@<TRIPOS>MOLECULE
3dco_ADP_N_1.pdb
 27 29 0 0 0
SMALL
GASTEIGER

@<TRIPOS>ATOM
      1  PB       139.5740   25.1390   54.8960 P.3   401  ADP401      0.5373
      2  O1B      139.2640   23.8430   55.5280 O.3   401  ADP401     -0.1143
      3  O2B      140.0870   24.8790   53.4380 O.2   401  ADP401     -0.2221
      4  O3B      138.1440   26.0210   54.9120 O.3   401  ADP401     -0.1143
      5  PA       142.0400   26.3640   54.9990 P.3   401  ADP401      0.2231
      6  O1A      142.6770   25.1860   54.4430 O.3   401  ADP401     -0.4370
      7  O2A      141.6410   27.3910   53.8610 O.2   401  ADP401     -0.5169
      8  O3A      140.6920   25.8860   55.8170 O.3   401  ADP401     -0.2261
      9  O5'      143.0130   27.0270   56.0830 O.3   401  ADP401     -0.3111
     10  C5'      142.4100   28.2140   56.6150 C.3   401  ADP401      0.1813
     11  C4'      143.5230   29.1380   57.1170 C.3   401  ADP401      0.1821
     12  O4'      144.2820   28.5010   58.1750 O.3   401  ADP401     -0.3135
     13  C3'      144.5430   29.4630   55.9610 C.3   401  ADP401      0.2184
     14  O3'      145.3050   30.6270   56.2530 O.3   401  ADP401     -0.2174
     15  C2'      145.5880   28.3080   56.2530 C.3   401  ADP401      0.2570
     16  O2'      146.8900   28.6640   55.7610 O.3   401  ADP401     -0.2130
     17  C1'      145.6510   28.2800   57.8040 C.3   401  ADP401      0.3186
     18  N9       146.0690   26.9620   58.2790 N.pl3 401  ADP401     -0.1439
     19  C8       145.2770   25.8410   58.3690 C.3   401  ADP401      0.3377
     20  N7       145.9960   24.7930   58.7030 N.2   401  ADP401     -0.2095
     21  C5       147.2400   25.2200   59.0450 C.2   401  ADP401      0.2526
     22  C6       148.4390   24.5920   59.4670 C.2   401  ADP401      0.4393
     23  N6       148.4430   23.2530   59.8120 N.pl3 401  ADP401      0.2180
     24  N1       149.5700   25.3320   59.5580 N.2   401  ADP401      0.0021
     25  C2       149.5530   26.6540   59.3600 C.3   401  ADP401      0.5254
     26  N3       148.4630   27.2850   58.9360 N.2   401  ADP401     -0.0055
     27  C4       147.3200   26.6170   58.7210 C.2   401  ADP401      0.3518
@<TRIPOS>BOND
     1     3     1    2
     2     7     5    2
     3     6     5    1
     4     1     4    1
     5     1     2    1
     6     1     8    1
     7     5     8    1
     8     5     9    1
     9    16    15    1
    10    13    14    1
    11    13    15    1
    12    13    11    1
    13     9    10    1
    14    15    17    1
    15    10    11    1
    16    11    12    1
    17    17    12    1
    18    17    18    1
    19    18    19    1
    20    18    27    1
    21    19    20    1
    22    20    21    2
    23    27    26    2
    24    27    21    1
    25    26    25    1
    26    21    22    1
    27    25    24    1
    28    22    24    2
    29    22    23    1
