@<TRIPOS>MOLECULE
3dco_GTP_B_1.pdb
 32 34 0 0 0
SMALL
GASTEIGER

@<TRIPOS>ATOM
      1  PG       106.9940    4.4730   61.5040 P.3   500  GTP500      0.5373
      2  O1G      105.6790    4.2420   60.7890 O.2   500  GTP500     -0.2221
      3  O2G      107.6050    5.8430   61.1830 O.3   500  GTP500     -0.1143
      4  O3G      108.0710    3.4820   61.0730 O.3   500  GTP500     -0.1143
      5  O3B      106.6000    4.2810   63.1030 O.3   500  GTP500     -0.2258
      6  PB       105.9140    2.9460   63.7840 P.3   500  GTP500      0.2277
      7  O1B      104.5030    3.1770   64.0610 O.2   500  GTP500     -0.5168
      8  O2B      106.8290    2.5700   64.9390 O.3   500  GTP500     -0.4368
      9  O3A      106.1520    1.8290   62.7680 O.3   500  GTP500     -0.2700
     10  PA       105.6160    0.4170   62.5510 P.3   500  GTP500      0.2189
     11  O1A      106.2520   -0.1170   61.3130 O.2   500  GTP500     -0.5170
     12  O2A      104.1420    0.3770   62.5860 O.3   500  GTP500     -0.4371
     13  O5'      106.2590   -0.4270   63.8090 O.3   500  GTP500     -0.3112
     14  C5'      105.8810   -1.7930   63.8050 C.3   500  GTP500      0.1813
     15  C4'      106.4310   -2.6310   64.9140 C.3   500  GTP500      0.1799
     16  O4'      105.5590   -2.5810   66.0720 O.3   500  GTP500     -0.3326
     17  C3'      106.4370   -4.0740   64.4620 C.3   500  GTP500      0.2158
     18  O3'      107.4260   -4.7910   65.1650 O.3   500  GTP500     -0.2175
     19  C2'      105.0200   -4.5130   64.7960 C.3   500  GTP500      0.2310
     20  O2'      104.9980   -5.9270   65.0130 O.3   500  GTP500     -0.2158
     21  C1'      104.6870   -3.7220   66.0710 C.3   500  GTP500      0.2293
     22  N9       103.3000   -3.2360   66.1750 N.pl3 500  GTP500     -0.2354
     23  C8       102.6420   -2.4190   65.2890 C.3   500  GTP500      0.2246
     24  N7       101.4140   -2.1510   65.6410 N.2   500  GTP500     -0.2322
     25  C5       101.2380   -2.8390   66.8170 C.2   500  GTP500      0.2182
     26  C6       100.1230   -2.9400   67.6480 C.1   500  GTP500      0.2372
     27  O6        99.0360   -2.3930   67.4830 O.2   500  GTP500     -0.2069
     28  N1       100.3440   -3.7490   68.7850 N.2   500  GTP500     -0.2485
     29  C2       101.5260   -4.3970   69.0680 C.1   500  GTP500      0.2531
     30  N2       101.5540   -5.1140   70.1540 N.pl3 500  GTP500     -0.0226
     31  N3       102.5980   -4.3200   68.2800 N.2   500  GTP500     -0.3074
     32  C4       102.4020   -3.5260   67.1780 C.2   500  GTP500      0.2300
@<TRIPOS>BOND
     1     2     1    2
     2     4     1    1
     3     3     1    1
     4    11    10    2
     5     1     5    1
     6    10    12    1
     7    10     9    1
     8    10    13    1
     9     9     6    1
    10     5     6    1
    11     6     7    2
    12     6     8    1
    13    14    13    1
    14    14    15    1
    15    17    19    1
    16    17    15    1
    17    17    18    1
    18    19    20    1
    19    19    21    1
    20    15    16    1
    21    23    24    1
    22    23    22    1
    23    24    25    2
    24    21    16    1
    25    21    22    1
    26    22    32    1
    27    25    32    1
    28    25    26    1
    29    32    31    2
    30    27    26    2
    31    26    28    2
    32    31    29    2
    33    28    29    2
    34    29    30    1
