@<TRIPOS>MOLECULE
3dco_GDP_B_1.pdb
 28 30 0 0 0
SMALL
GASTEIGER

@<TRIPOS>ATOM
      1  PB       106.2760    3.5490   21.9510 P.3   600  GDP600      0.5373
      2  O1B      106.7560    4.3180   23.1140 O.3   600  GDP600     -0.1143
      3  O2B      104.8910    3.5150   21.7650 O.3   600  GDP600     -0.1143
      4  O3B      107.1110    4.0350   20.6320 O.2   600  GDP600     -0.2221
      5  O3A      106.6740    2.0500   22.2270 O.3   600  GDP600     -0.2261
      6  PA       105.7170    0.6810   22.3140 P.3   600  GDP600      0.2231
      7  O1A      104.8170    0.7920   23.4960 O.3   600  GDP600     -0.4370
      8  O2A      105.0190    0.5670   20.9690 O.2   600  GDP600     -0.5169
      9  O5'      106.7860   -0.4100   22.6060 O.3   600  GDP600     -0.3111
     10  C5'      106.5510   -1.8100   22.2660 C.3   600  GDP600      0.1813
     11  C4'      106.6350   -2.7330   23.3840 C.3   600  GDP600      0.1799
     12  O4'      105.5520   -2.4100   24.3440 O.3   600  GDP600     -0.3326
     13  C3'      106.3070   -4.2320   23.0440 C.3   600  GDP600      0.2158
     14  O3'      107.2310   -5.0410   23.8600 O.3   600  GDP600     -0.2175
     15  C2'      104.8600   -4.5510   23.4910 C.3   600  GDP600      0.2310
     16  O2'      104.5460   -5.8760   23.9520 O.3   600  GDP600     -0.2158
     17  C1'      104.6220   -3.5470   24.6160 C.3   600  GDP600      0.2293
     18  N9       103.2630   -3.0070   24.6730 N.pl3 600  GDP600     -0.2354
     19  C8       102.8070   -2.0570   23.6010 C.3   600  GDP600      0.2246
     20  N7       101.5320   -1.8930   24.1700 N.2   600  GDP600     -0.2322
     21  C5       101.1990   -2.5350   25.2850 C.2   600  GDP600      0.2182
     22  C6       100.1860   -2.7740   26.2380 C.1   600  GDP600      0.2372
     23  O6        99.0300   -2.1150   26.0490 O.2   600  GDP600     -0.2069
     24  N1       100.3170   -3.5790   27.3150 N.2   600  GDP600     -0.2485
     25  C2       101.6110   -4.2860   27.5110 C.1   600  GDP600      0.2531
     26  N2       101.5080   -5.0210   28.5970 N.pl3 600  GDP600     -0.0226
     27  N3       102.5560   -4.1310   26.6800 N.2   600  GDP600     -0.3074
     28  C4       102.3900   -3.2910   25.6420 C.2   600  GDP600      0.2300
@<TRIPOS>BOND
     1     4     1    2
     2     8     6    2
     3     3     1    1
     4     1     5    1
     5     1     2    1
     6     5     6    1
     7    10     9    1
     8    10    11    1
     9     6     9    1
    10     6     7    1
    11    13    11    1
    12    13    15    1
    13    13    14    1
    14    11    12    1
    15    15    16    1
    16    15    17    1
    17    19    20    1
    18    19    18    1
    19    20    21    2
    20    12    17    1
    21    17    18    1
    22    18    28    1
    23    21    28    1
    24    21    22    1
    25    28    27    2
    26    23    22    2
    27    22    24    2
    28    27    25    2
    29    24    25    2
    30    25    26    1
