@<TRIPOS>MOLECULE
3dcq_2G0_A_1.pdb
 35 36 0 0 0
SMALL
GASTEIGER

@<TRIPOS>ATOM
      1  C1        12.1660   45.1090    8.7210 C.3   201  2G0201      0.1572
      2  C2        13.0920   44.9160    7.5060 C.3   201  2G0201      0.2121
      3  O2        12.4110   44.2120    6.4830 O.3   201  2G0201     -0.2177
      4  C3        13.5170   46.3010    6.9930 C.3   201  2G0201      0.2171
      5  O3        14.4430   46.1830    5.9230 O.3   201  2G0201     -0.2175
      6  C4        14.1670   47.0880    8.0960 C.3   201  2G0201      0.2116
      7  O4        15.3930   46.4780    8.4470 O.3   201  2G0201     -0.2177
      8  C5        13.2630   47.1590    9.3190 C.3   201  2G0201      0.1482
      9  O5        12.8990   45.8220    9.7410 O.3   201  2G0201     -0.3528
     10  C6        13.9590   47.8450   10.4830 C.3   201  2G0201      0.0349
     11  C7        10.8310   45.7700    8.3240 C.3   201  2G0201      0.1190
     12  C8        10.2380   46.0930    9.6930 C.2   201  2G0201      0.2443
     13  O6         9.9270   45.1920   10.4700 O.2   201  2G0201     -0.2732
     14  N1        10.0630   47.3750    9.9860 N.am  201  2G0201     -0.1978
     15  C9         9.5800   47.7950   11.2940 C.3   201  2G0201      0.1712
     16  C10        8.4540   46.9920   11.9220 C.2   201  2G0201      0.2458
     17  O7         8.5590   46.5800   13.0850 O.2   201  2G0201     -0.2730
     18  C11        9.1960   49.2830   11.2720 C.3   201  2G0201      0.0310
     19  C12       10.4040   50.2090   11.3840 C.3   201  2G0201      0.0023
     20  N3         7.3570   46.7630   11.1720 N.am  201  2G0201     -0.2716
     21  C15        6.2200   45.9980   11.7060 C.3   201  2G0201      0.1536
     22  C16        6.5030   44.5480   12.0990 C.2   201  2G0201      0.2598
     23  O8         5.6520   43.8960   12.7090 O.2   201  2G0201     -0.2715
     24  C17        5.1690   46.1070   10.6020 C.3   201  2G0201      0.0310
     25  C18        5.9800   46.3640    9.3530 C.3   201  2G0201      0.0237
     26  C19        7.0720   47.2830    9.8230 C.3   201  2G0201      0.0939
     27  N4         7.6820   44.0460   11.7340 N.am  201  2G0201     -0.1963
     28  C20        8.0880   42.6830   12.0620 C.3   201  2G0201      0.1744
     29  C21        8.7000   42.6690   13.4660 C.2   201  2G0201      0.2806
     30  O9         9.0700   43.7670   13.9380 O.2   201  2G0201     -0.2698
     31  C22        9.1310   42.1970   11.0470 C.3   201  2G0201      0.0312
     32  C23        8.7330   41.3920    9.8020 C.3   201  2G0201      0.0022
     33  C24        7.2990   41.6060    9.4060 C.3   201  2G0201      0.0001
     34  C25        9.6810   41.7540    8.6820 C.3   201  2G0201      0.0001
     35  N5         8.8320   41.5750   14.0710 N.am  201  2G0201     -0.0863
@<TRIPOS>BOND
     1     5     4    1
     2     3     2    1
     3     4     2    1
     4     4     6    1
     5     2     1    1
     6     6     7    1
     7     6     8    1
     8    11     1    1
     9    11    12    1
    10    34    32    1
    11     1     9    1
    12     8     9    1
    13     8    10    1
    14    25    26    1
    15    25    24    1
    16    33    32    1
    17    12    14   am
    18    12    13    2
    19    32    31    1
    20    26    20    1
    21    14    15    1
    22    24    21    1
    23    31    28    1
    24    20    21    1
    25    20    16   am
    26    18    15    1
    27    18    19    1
    28    15    16    1
    29    21    22    1
    30    27    28    1
    31    27    22   am
    32    16    17    2
    33    28    29    1
    34    22    23    2
    35    29    30    2
    36    29    35   am
