@<TRIPOS>MOLECULE
3dcs_MZM_A_1.pdb
 14 14 0 0 0
SMALL
GASTEIGER

@<TRIPOS>ATOM
      1  N1        -5.5360   -0.6590   16.3410 N.3   263  MZM263      0.0413
      2  S1        -5.9500    0.5660   16.8850 S.O2  263  MZM263      0.1172
      3  O1        -7.2680    0.7150   16.6740 O.2   263  MZM263     -0.1483
      4  O2        -5.5680    0.5850   18.2600 O.2   263  MZM263     -0.1483
      5  C1        -5.1200    1.8240   16.0980 C.2   263  MZM263      0.2510
      6  S2        -6.1150    2.9700   15.2190 S.3   263  MZM263     -0.0307
      7  C2        -4.6820    3.7210   14.6590 C.3   263  MZM263      0.2423
      8  N2        -3.6080    3.1390   15.0580 N.pl3 263  MZM263     -0.2015
      9  C5        -2.1610    3.4230   14.8250 C.3   263  MZM263      0.1369
     10  N3        -3.8790    2.0620   15.8980 N.2   263  MZM263     -0.1529
     11  N4        -5.0590    4.7620   13.8650 N.am  263  MZM263     -0.1744
     12  C3        -5.8440    5.5350   13.2150 C.2   263  MZM263      0.2441
     13  O3        -5.6100    6.4700   12.4320 O.2   263  MZM263     -0.2733
     14  C4        -7.2690    5.2790   13.4120 C.3   263  MZM263      0.0965
@<TRIPOS>BOND
     1    13    12    2
     2    12    14    1
     3    12    11   am
     4    11     7    1
     5     7     8    1
     6     7     6    1
     7     9     8    1
     8     8    10    1
     9     6     5    1
    10    10     5    2
    11     5     2    1
    12     1     2    1
    13     3     2    2
    14     2     4    2
