@<TRIPOS>MOLECULE
3dct_064_A_1.pdb
 36 39 0 0 0
SMALL
GASTEIGER

@<TRIPOS>ATOM
      1  C1       133.8530   24.0310   81.1410 C.ar    1  0641        0.1237
      2  N4       133.1810   23.2660   82.0760 N.ar    1  0641       -0.0775
      3  C5       135.2800   22.8710   82.3680 C.ar    1  0641        0.1534
      4  C6       136.4630   24.3460   80.5860 C.3     1  0641        0.2364
      5  C7       133.0800   24.3840   78.8280 C.ar    1  0641        0.0600
      6  C8       132.8300   26.2210   80.5290 C.ar    1  0641        0.0600
      7  C10      136.5360   22.2080   82.9850 C.3     1  0641        0.0600
      8  C16      136.8400   22.7410   84.4170 C.3     1  0641        0.0080
      9  C17      136.3630   20.6920   83.0290 C.3     1  0641        0.0080
     10  C18      137.3120   26.4580   79.6020 C.ar    1  0641        0.1399
     11  C19      132.0890   26.5190   78.1800 C.ar    1  0641        0.0017
     12  C20      137.6010   27.8520   79.6350 C.ar    1  0641        0.0483
     13  C21      137.8010   25.6440   78.4990 C.ar    1  0641        0.0370
     14  C22      138.3860   28.4320   78.6360 C.ar    1  0641        0.0607
     15  C23      138.6080   26.2290   77.4660 C.ar    1  0641        0.0040
     16  C24      138.8830   27.6620   77.5440 C.ar    1  0641        0.0108
     17  C26      139.7290   28.4220   76.5550 C.2     1  0641        0.0008
     18  C27      140.8180   27.9740   76.0280 C.2     1  0641        0.0000
     19  C28      141.8180   28.6860   75.1910 C.ar    1  0641        0.0002
     20  C29      142.0820   29.9970   75.5650 C.ar    1  0641        0.0066
     21  C30      142.5450   28.0700   74.0940 C.ar    1  0641        0.0000
     22  C32      143.4990   28.8840   73.3890 C.ar    1  0641        0.0002
     23  C2       135.2230   23.7870   81.3270 C.ar    1  0641        0.0749
     24  C3       133.2780   24.8700   80.1890 C.ar    1  0641        0.0419
     25  O9       134.0020   22.5760   82.8100 O.2     1  0641       -0.3580
     26  O11      136.5630   25.8240   80.6050 O.3     1  0641       -0.4705
     27  C12      132.5030   25.2140   77.8420 C.ar    1  0641        0.0115
     28 CL13      133.5930   22.7630   78.2920 Cl      1  0641       -0.0822
     29  C14      132.2690   27.0290   79.5200 C.ar    1  0641        0.0115
     30 CL15      133.0010   26.9620   82.1240 Cl      1  0641       -0.0822
     31 CL25      138.6910   30.1380   78.7530 Cl      1  0641       -0.0821
     32  C31      143.0110   30.8040   74.8920 C.ar    1  0641        0.0798
     33  C33      143.7260   30.2440   73.7940 C.ar    1  0641        0.0066
     34  C34      143.2710   32.2290   75.3400 C.2     1  0641        0.3878
     35  O35      144.1910   32.9830   74.6680 O.co2   1  0641       -0.2406
     36  O36      142.6680   32.7210   76.3160 O.co2   1  0641       -0.2406
@<TRIPOS>BOND
     1    22    33   ar
     2    22    21   ar
     3    33    32   ar
     4    21    19   ar
     5    35    34   ar
     6    32    34    1
     7    32    20   ar
     8    19    20   ar
     9    19    18    1
    10    34    36   ar
    11    18    17    2
    12    17    16    1
    13    15    16   ar
    14    15    13   ar
    15    16    14   ar
    16    27    11   ar
    17    27     5   ar
    18    11    29   ar
    19    28     5    1
    20    13    10   ar
    21    14    31    1
    22    14    12   ar
    23     5    24   ar
    24    29     6   ar
    25    10    12   ar
    26    10    26    1
    27    24     6   ar
    28    24     1    1
    29     6    30    1
    30     4    26    1
    31     4    23    1
    32     1    23   ar
    33     1     2   ar
    34    23     3   ar
    35     2    25   ar
    36     3    25   ar
    37     3     7    1
    38     7     9    1
    39     7     8    1
