@<TRIPOS>MOLECULE
3dcu_O62_A_1.pdb
 37 41 0 0 0
SMALL
GASTEIGER

@<TRIPOS>ATOM
      1  C2        16.8860   15.6600   42.3730 C.ar    1  O621        0.1534
      2  C3        16.1390   15.6500   41.2200 C.ar    1  O621        0.0749
      3  C4        15.7510   14.2830   41.0170 C.ar    1  O621        0.1237
      4  C6        17.5550   16.8320   43.0670 C.3     1  O621        0.0600
      5  C10       13.5810   13.4170   40.1230 C.ar    1  O621        0.0600
      6  C11       12.8470   12.8740   39.0410 C.ar    1  O621        0.0115
      7  C12       13.4700   12.6390   37.7880 C.ar    1  O621        0.0017
      8  C13       14.8330   12.9410   37.6010 C.ar    1  O621        0.0115
      9  C14       15.5900   13.4870   38.6700 C.ar    1  O621        0.0600
     10  C22       11.1500   22.3820   35.4490 C.ar    1  O621        0.0002
     11  C24       11.3550   20.5610   37.0540 C.ar    1  O621        0.0000
     12  C25        9.9570   20.6020   37.2510 C.ar    1  O621        0.0000
     13  C26        9.1490   21.5460   36.5420 C.ar    1  O621        0.0002
     14  C27       12.1980   19.6100   37.7900 C.ar    1  O621        0.0002
     15  C34        7.5630   23.6110   34.9480 C.2     1  O621        0.3878
     16  C37       15.8350   16.8910   40.3950 C.3     1  O621        0.2364
     17  O1        16.9550   14.3930   42.8320 O.2     1  O621       -0.3580
     18  N5        16.2540   13.5750   41.9850 N.ar    1  O621       -0.0775
     19  C7        19.0840   16.8020   42.8970 C.3     1  O621        0.0080
     20  C8        17.1370   16.8350   44.5490 C.3     1  O621        0.0080
     21  C9        14.9590   13.7260   39.9380 C.ar    1  O621        0.0419
     22 CL15       12.6880   13.6360   41.5800 Cl      1  O621       -0.0822
     23 CL16       17.2680   13.8250   38.3410 Cl      1  O621       -0.0822
     24  C17        9.7090   24.2780   33.9730 C.ar    1  O621        0.0066
     25  C18       11.1020   24.1850   33.8240 C.ar    1  O621        0.0002
     26  C19       11.8140   23.2330   34.5560 C.ar    1  O621        0.0000
     27  C20        9.0050   23.4200   34.8770 C.ar    1  O621        0.0798
     28  C21        9.7120   22.4450   35.6190 C.ar    1  O621        0.0064
     29  C23       11.9280   21.4520   36.1450 C.ar    1  O621        0.0000
     30  C28       13.5150   19.2700   37.3560 C.ar    1  O621        0.0031
     31  C29       14.3180   18.3430   38.1150 C.ar    1  O621        0.0369
     32  C30       13.7830   17.7770   39.2930 C.ar    1  O621        0.1391
     33  C31       12.4830   18.1150   39.7150 C.ar    1  O621        0.0369
     34  C32       11.7010   19.0230   38.9730 C.ar    1  O621        0.0031
     35  O33       14.4830   16.9100   40.0350 O.3     1  O621       -0.4705
     36  O35        6.8010   22.7450   34.6360 O.co2   1  O621       -0.2406
     37  O36        7.0440   24.8040   35.3690 O.co2   1  O621       -0.2406
@<TRIPOS>BOND
     1    25    24   ar
     2    25    26   ar
     3    24    27   ar
     4    26    10   ar
     5    36    15   ar
     6    27    15    1
     7    27    28   ar
     8    15    37   ar
     9    10    28   ar
    10    10    29   ar
    11    28    13   ar
    12    29    11   ar
    13    13    12   ar
    14    11    12   ar
    15    11    14    1
    16    30    14   ar
    17    30    31   ar
    18     8     7   ar
    19     8     9   ar
    20     7     6   ar
    21    14    34   ar
    22    31    32   ar
    23    23     9    1
    24     9    21   ar
    25    34    33   ar
    26     6     5   ar
    27    32    33   ar
    28    32    35    1
    29    21     5   ar
    30    21     3    1
    31    35    16    1
    32     5    22    1
    33    16     2    1
    34     3     2   ar
    35     3    18   ar
    36     2     1   ar
    37    18    17   ar
    38     1    17   ar
    39     1     4    1
    40    19     4    1
    41     4    20    1
