@<TRIPOS>MOLECULE
3dcv_55E_A_1.pdb
 21 23 0 0 0
SMALL
GASTEIGER

@<TRIPOS>ATOM
      1  O3        15.6870   33.5600   -0.3660 O.2   500  55E500     -0.1752
      2  C2        16.3220   34.3240    0.3920 C.1   500  55E500      0.3547
      3  N4        17.2490   35.1470   -0.1400 N.2   500  55E500     -0.3125
      4  C5        17.9630   35.9790    0.6450 C.2   500  55E500      0.1313
      5  C6        18.9470   36.9030    0.0370 C.ar  500  55E500      0.0267
      6  C21       19.7620   37.7010    0.8270 C.ar  500  55E500      0.0012
      7  C19       20.6520   38.5900    0.2310 C.ar  500  55E500      0.0171
      8  C20       21.5540   39.4460    1.0830 C.3   500  55E500      0.0344
      9  C17       20.7100   38.6860   -1.1500 C.ar  500  55E500      0.1917
     10  O18       21.5760   39.5480   -1.7550 O.3   500  55E500     -0.2869
     11  C16       19.8770   37.9000   -1.9370 C.ar  500  55E500      0.0418
     12  C15       18.9910   37.0130   -1.3450 C.ar  500  55E500      0.0055
     13  C7        17.7250   36.0130    2.0040 C.3   500  55E500      0.1199
     14  C8        16.7730   35.1560    2.5420 C.2   500  55E500      0.1314
     15  N1        16.0820   34.3260    1.7250 N.2   500  55E500     -0.3125
     16  C9        16.5200   35.1890    4.0120 C.ar  500  55E500      0.0269
     17  C14       17.5440   34.9210    4.9160 C.ar  500  55E500      0.0022
     18  C13       17.2890   34.9680    6.2880 C.ar  500  55E500      0.0001
     19  C12       16.0190   35.2930    6.7630 C.ar  500  55E500      0.0000
     20  C11       14.9980   35.5670    5.8570 C.ar  500  55E500      0.0001
     21  C10       15.2510   35.5200    4.4860 C.ar  500  55E500      0.0022
@<TRIPOS>BOND
     1    11    12   ar
     2    11     9   ar
     3    10     9    1
     4    12     5   ar
     5     9     7   ar
     6     1     2    2
     7     3     2    2
     8     3     4    2
     9     5     4    1
    10     5     6   ar
    11     7     6   ar
    12     7     8    1
    13     2    15    2
    14     4    13    1
    15    15    14    2
    16    13    14    1
    17    14    16    1
    18    16    21   ar
    19    16    17   ar
    20    21    20   ar
    21    17    18   ar
    22    20    19   ar
    23    18    19   ar
