@<TRIPOS>MOLECULE
3dcw_EZL_A_1.pdb
 16 17 0 0 0
SMALL
GASTEIGER

@<TRIPOS>ATOM
      1  N1        -5.4350   -0.3930   16.2740 N.3   301  EZL301      0.0423
      2  C2        -3.6220    3.6100   15.2860 C.2   301  EZL301      0.1219
      3  C3        -4.7550    4.2550   14.8040 C.2   301  EZL301      0.0619
      4  C4        -4.6560    5.4720   14.0860 C.2   301  EZL301      0.0454
      5  C5        -3.3160    5.8910   13.8480 C.2   301  EZL301      0.1353
      6  C8        -1.8810    7.8730   13.1870 C.3   301  EZL301      0.2055
      7  O1        -5.4950    1.0490   18.3050 O.2   301  EZL301     -0.1473
      8  O2        -7.3680    1.1190   16.7460 O.2   301  EZL301     -0.1473
      9  S1        -5.9750    0.9350   16.9030 S.O2  301  EZL301      0.1273
     10  C1        -5.2300    2.2940   16.0620 C.2   301  EZL301      0.2852
     11  N2        -3.9160    2.4640   15.9490 N.2   301  EZL301     -0.3796
     12  S2        -6.1370    3.4830   15.3160 S.3   301  EZL301     -0.0329
     13  C6        -2.1750    5.2170   14.2850 C.2   301  EZL301      0.0182
     14  C7        -2.2870    4.0090   14.9960 C.3   301  EZL301      0.0887
     15  O3        -3.1140    7.0290   13.0770 O.2   301  EZL301     -0.4758
     16  C9        -1.6970    8.4610   14.6020 C.3   301  EZL301      0.0512
@<TRIPOS>BOND
     1    15     6    1
     2    15     5    1
     3     6    16    1
     4     5     4    1
     5     5    13    2
     6     4     3    2
     7    13    14    1
     8     3     2    1
     9     3    12    1
    10    14     2    1
    11     2    11    2
    12    12    10    1
    13    11    10    2
    14    10     9    1
    15     1     9    1
    16     8     9    2
    17     9     7    2
