@<TRIPOS>MOLECULE
3dd0_EZL_A_1.pdb
 16 17 0 0 0
SMALL
GASTEIGER

@<TRIPOS>ATOM
      1  N1        -5.4650   -0.6060   16.2520 N.3   301  EZL301      0.0423
      2  C2        -3.6850    3.3930   15.2430 C.2   301  EZL301      0.1219
      3  C3        -4.8450    4.0640   14.8540 C.2   301  EZL301      0.0619
      4  C4        -4.7370    5.2650   14.1050 C.2   301  EZL301      0.0454
      5  C5        -3.3640    5.6120   13.8750 C.2   301  EZL301      0.1353
      6  C8        -1.9210    7.5120   13.0240 C.3   301  EZL301      0.2055
      7  O1        -5.6250    0.8590   18.2690 O.2   301  EZL301     -0.1473
      8  O2        -7.4470    0.8910   16.6670 O.2   301  EZL301     -0.1473
      9  S1        -6.0450    0.7020   16.9090 S.O2  301  EZL301      0.1273
     10  C1        -5.2880    2.0820   16.0560 C.2   301  EZL301      0.2852
     11  N2        -3.9690    2.2590   15.9940 N.2   301  EZL301     -0.3796
     12  S2        -6.2190    3.2530   15.3190 S.3   301  EZL301     -0.0329
     13  C6        -2.1720    4.9870   14.2630 C.2   301  EZL301      0.0182
     14  C7        -2.3270    3.7790   15.0230 C.3   301  EZL301      0.0887
     15  O3        -3.2050    6.7660   13.0960 O.2   301  EZL301     -0.4758
     16  C9        -1.7510    8.4140   14.2560 C.3   301  EZL301      0.0512
@<TRIPOS>BOND
     1     6    15    1
     2     6    16    1
     3    15     5    1
     4     5     4    1
     5     5    13    2
     6     4     3    2
     7    13    14    1
     8     3     2    1
     9     3    12    1
    10    14     2    1
    11     2    11    2
    12    12    10    1
    13    11    10    2
    14    10     9    1
    15     1     9    1
    16     8     9    2
    17     9     7    2
