@<TRIPOS>MOLECULE
3dd1_CFF_A_1.pdb
 14 15 0 0 0
SMALL
GASTEIGER

@<TRIPOS>ATOM
      1  N1        93.1740  -54.6260  125.7390 N.am  903  CFF903     -0.1903
      2  C2        93.7660  -55.4170  126.7610 C.2   903  CFF903      0.4044
      3  C10       92.9200  -53.1980  125.9660 C.3   903  CFF903      0.1267
      4  C6        92.8340  -55.2290  124.4980 C.2   903  CFF903      0.2609
      5  N3        94.0040  -56.7230  126.5550 N.am  903  CFF903     -0.1218
      6  O11       94.0720  -54.9000  127.8560 O.2   903  CFF903     -0.2230
      7  C12       94.6120  -57.5670  127.5900 C.3   903  CFF903      0.2626
      8  C4        93.6590  -57.2830  125.3170 C.2   903  CFF903      0.3276
      9  C5        93.0910  -56.5800  124.3150 C.3   903  CFF903      0.2453
     10  N9        93.8510  -58.6090  124.9960 N.2   903  CFF903     -0.0479
     11  O13       92.3110  -54.5640  123.5750 O.2   903  CFF903     -0.2723
     12  N7        92.9000  -57.4300  123.3120 N.3   903  CFF903     -0.2098
     13  C8        93.3530  -58.6560  123.7130 C.3   903  CFF903      0.3428
     14  C14       92.2770  -56.9270  122.0600 C.3   903  CFF903      0.0945
@<TRIPOS>BOND
     1    14    12    1
     2    12    13    1
     3    12     9    1
     4    11     4    2
     5    13    10    1
     6     9     4    1
     7     9     8    1
     8     4     1   am
     9    10     8    2
    10     8     5    1
    11     1     3    1
    12     1     2   am
    13     5     2   am
    14     5     7    1
    15     2     6    2
