@<TRIPOS>MOLECULE
3dd1_25D_A_1.pdb
 37 40 0 0 0
SMALL
GASTEIGER

@<TRIPOS>ATOM
      1  C1        85.8140  -92.2910  123.2000 C.3   905  25D905      0.0310
      2  C2        85.7630  -93.6200  122.5320 C.ar  905  25D905     -0.0224
      3  C3        86.8320  -94.4810  122.6360 C.ar  905  25D905     -0.0072
      4  C4        86.7930  -95.7110  122.0210 C.ar  905  25D905     -0.0071
      5  C5        87.9600  -96.6210  122.1540 C.3   905  25D905      0.0324
      6  C6        85.6730  -96.0780  121.3010 C.ar  905  25D905      0.0670
      7  N7        85.5840  -97.3290  120.6650 N.am  905  25D905     -0.1613
      8  C8        85.1920  -98.4660  121.3450 C.2   905  25D905      0.3477
      9  O9        85.4240  -99.5930  120.9310 O.2   905  25D905     -0.2484
     10  N10       84.5440  -98.1680  122.5180 N.am  905  25D905     -0.1605
     11  C11       83.9110  -99.0930  123.3750 C.ar  905  25D905      0.0794
     12  C12       84.2890 -100.4180  123.4560 C.ar  905  25D905      0.0168
     13  C13       83.6550 -101.2730  124.3310 C.ar  905  25D905      0.0013
     14  C14       84.0350 -102.5940  124.3990 C.ar  905  25D905      0.0000
     15  C15       83.3960 -103.4470  125.2730 C.ar  905  25D905      0.0000
     16  C16       82.3800 -102.9840  126.0800 C.ar  905  25D905      0.0000
     17  C17       81.9970 -101.6630  126.0100 C.ar  905  25D905      0.0000
     18  C18       82.6380 -100.8120  125.1350 C.ar  905  25D905      0.0002
     19  C19       82.2560  -99.4940  125.0620 C.ar  905  25D905      0.0059
     20  C20       82.8930  -98.6370  124.1900 C.ar  905  25D905      0.0704
     21  C21       82.4780  -97.2220  124.1390 C.2   905  25D905      0.2664
     22  O22       83.0960  -96.3870  123.4940 O.2   905  25D905     -0.2683
     23  N23       81.4090  -96.9420  124.9350 N.am  905  25D905     -0.1941
     24  C24       80.3490  -96.0330  124.5760 C.3   905  25D905      0.1717
     25  C25       80.2440  -95.7720  123.0880 C.3   905  25D905      0.0333
     26  C26       79.1280  -96.7240  125.1700 C.3   905  25D905      0.0289
     27  C27       77.9330  -96.8060  124.2510 C.3   905  25D905      0.0022
     28  C28       76.9800  -97.8150  124.8590 C.3   905  25D905      0.0001
     29  C29       76.5440  -97.3460  126.2300 C.3   905  25D905      0.0000
     30  C30       77.7380  -97.1540  127.1350 C.3   905  25D905      0.0001
     31  C31       78.6850  -96.1610  126.5060 C.3   905  25D905      0.0022
     32  C32       80.7320  -94.7380  125.2570 C.2   905  25D905      0.3820
     33  O33       80.2060  -93.6700  124.8780 O.co2 905  25D905     -0.2438
     34  O34       81.5790  -94.7460  126.1870 O.co2 905  25D905     -0.2438
     35  C35       84.6050  -95.2200  121.1930 C.ar  905  25D905     -0.0071
     36  C36       83.4080  -95.6260  120.4130 C.3   905  25D905      0.0324
     37  C37       84.6510  -93.9880  121.8090 C.ar  905  25D905     -0.0072
@<TRIPOS>BOND
     1    36    35    1
     2     7     6    1
     3     7     8   am
     4     9     8    2
     5    35     6   ar
     6    35    37   ar
     7     6     4   ar
     8     8    10   am
     9    37     2   ar
    10     4     5    1
    11     4     3   ar
    12    10    11    1
    13     2     3   ar
    14     2     1    1
    15    25    24    1
    16    11    12   ar
    17    11    20   ar
    18    12    13   ar
    19    22    21    2
    20    21    20    1
    21    21    23   am
    22    20    19   ar
    23    27    28    1
    24    27    26    1
    25    13    14   ar
    26    13    18   ar
    27    14    15   ar
    28    24    23    1
    29    24    26    1
    30    24    32    1
    31    28    29    1
    32    33    32   ar
    33    19    18   ar
    34    18    17   ar
    35    26    31    1
    36    32    34   ar
    37    15    16   ar
    38    17    16   ar
    39    29    30    1
    40    31    30    1
