@<TRIPOS>MOLECULE
3dd1_NBG_A_1.pdb
 15 15 0 0 0
SMALL
GASTEIGER

@<TRIPOS>ATOM
      1  C1        94.7730  -67.4880  133.4910 C.3   901  NBG901      0.2446
      2  C2        95.5010  -66.6910  134.5770 C.3   901  NBG901      0.2326
      3  C3        96.7730  -67.4000  135.0450 C.3   901  NBG901      0.2190
      4  C4        96.4800  -68.8540  135.4080 C.3   901  NBG901      0.2144
      5  C5        95.7020  -69.5530  134.2840 C.3   901  NBG901      0.1828
      6  C6        95.3230  -70.9910  134.6520 C.3   901  NBG901      0.2142
      7  C7        92.9540  -66.8510  131.9370 C.2   901  NBG901      0.2440
      8  C8        91.6410  -66.1210  131.8290 C.3   901  NBG901      0.0965
      9  N1        93.5140  -66.8260  133.1510 N.am  901  NBG901     -0.1751
     10  O3        97.3140  -66.7430  136.1800 O.3   901  NBG901     -0.2174
     11  O2        95.7890  -65.3930  134.0740 O.3   901  NBG901     -0.2157
     12  O4        97.7010  -69.5460  135.6650 O.3   901  NBG901     -0.2176
     13  O5        94.5150  -68.8190  133.9570 O.3   901  NBG901     -0.3315
     14  O6        94.4340  -71.0170  135.7590 O.3   901  NBG901     -0.2176
     15  O7        93.4610  -67.4250  130.9820 O.2   901  NBG901     -0.2733
@<TRIPOS>BOND
     1    15     7    2
     2     8     7    1
     3     7     9   am
     4     9     1    1
     5     1    13    1
     6     1     2    1
     7    13     5    1
     8    11     2    1
     9     5     6    1
    10     5     4    1
    11     2     3    1
    12     6    14    1
    13     3     4    1
    14     3    10    1
    15     4    12    1
