@<TRIPOS>MOLECULE
3dd1_PLP_A_1.pdb
 15 15 0 0 0
SMALL
GASTEIGER

@<TRIPOS>ATOM
      1  N1       102.0190  -70.3240  127.0120 N.ar  902  PLP902     -0.2452
      2  C2       102.6230  -71.5620  126.8700 C.ar  902  PLP902      0.0978
      3  C2A      103.0450  -72.0340  125.5130 C.3   902  PLP902      0.0555
      4  C3       102.8390  -72.3570  127.9970 C.ar  902  PLP902      0.2049
      5  O3       103.4400  -73.5810  127.8640 O.3   902  PLP902     -0.2857
      6  C4       102.4510  -71.9080  129.2610 C.ar  902  PLP902      0.0182
      7  C4A      102.6990  -72.7870  130.4480 C.3   902  PLP902      0.0342
      8  C5       101.8320  -70.6610  129.3910 C.ar  902  PLP902      0.0261
      9  C6       101.6260  -69.8740  128.2570 C.ar  902  PLP902      0.0965
     10  C5A      101.4040  -70.1010  130.7330 C.3   902  PLP902      0.1815
     11  O4P      102.4530  -69.2450  131.1480 O.3   902  PLP902     -0.2653
     12  P        102.3070  -68.1430  132.3110 P.3   902  PLP902      0.5329
     13  O1P      103.6560  -67.5340  132.5900 O.3   902  PLP902     -0.1145
     14  O2P      101.8150  -68.8310  133.5620 O.3   902  PLP902     -0.1145
     15  O3P      101.3570  -67.0650  131.8620 O.2   902  PLP902     -0.2224
@<TRIPOS>BOND
     1     3     2    1
     2     2     1   ar
     3     2     4   ar
     4     1     9   ar
     5     5     4    1
     6     4     6   ar
     7     9     8   ar
     8     6     8   ar
     9     6     7    1
    10     8    10    1
    11    10    11    1
    12    11    12    1
    13    15    12    2
    14    12    13    1
    15    12    14    1
