@<TRIPOS>MOLECULE
3dd2_0G6_H_1.pdb
 30 31 0 0 0
SMALL
GASTEIGER

@<TRIPOS>ATOM
      1  N         28.6030  -36.5650  -47.5810 N.3     1  0G61       -0.1228
      2  CA        28.8170  -37.9810  -47.1560 C.3     1  0G61        0.1721
      3  C         28.7680  -37.9760  -45.6310 C.2     1  0G61        0.2437
      4  O         27.9010  -37.3310  -45.0410 O.2     1  0G61       -0.2733
      5  CB        27.6860  -38.8650  -47.7160 C.3     1  0G61        0.0547
      6  CG        27.7740  -40.3200  -47.3080 C.ar    1  0G61       -0.0202
      7  CD1       28.8350  -41.1170  -47.7320 C.ar    1  0G61       -0.0042
      8  CD2       26.8010  -40.8870  -46.4940 C.ar    1  0G61       -0.0042
      9  CE1       28.9270  -42.4700  -47.3430 C.ar    1  0G61       -0.0003
     10  CE2       26.8770  -42.2360  -46.1000 C.ar    1  0G61       -0.0003
     11  CZ        27.9430  -43.0300  -46.5250 C.ar    1  0G61       -0.0000
     12  N1        29.6860  -38.6940  -44.9700 N.am    1  0G61       -0.2718
     13  CA1       29.6570  -38.7070  -43.4990 C.3     1  0G61        0.1535
     14  C1        29.9210  -37.3410  -42.8970 C.2     1  0G61        0.2595
     15  O1        30.6850  -36.5590  -43.4430 O.2     1  0G61       -0.2716
     16  CB1       30.7670  -39.6940  -43.1270 C.3     1  0G61        0.0310
     17  CG1       30.9250  -40.5540  -44.3940 C.3     1  0G61        0.0237
     18  CD        30.7850  -39.5320  -45.4820 C.3     1  0G61        0.0939
     19  N2        29.2910  -37.0660  -41.7580 N.am    1  0G61       -0.2032
     20  CA2       29.4970  -35.8120  -41.0460 C.3     1  0G61        0.1257
     21  C2        30.1140  -36.1000  -39.6090 C.3     1  0G61        0.1718
     22  O2        30.7740  -34.9020  -39.1650 O.3     1  0G61       -0.2213
     23  CB2       28.1720  -35.0340  -40.9130 C.3     1  0G61        0.0280
     24  CG2       27.5840  -34.4910  -42.2430 C.3     1  0G61        0.0488
     25  CD3       26.2680  -33.7220  -42.0160 C.3     1  0G61        0.2205
     26  NE        25.7890  -33.0430  -43.2350 N.pl3   1  0G61       -0.0865
     27  CZ1       24.6200  -32.4220  -43.3570 C.cat   1  0G61        0.5346
     28  NH1       23.7630  -32.3770  -42.3420 N.pl3   1  0G61        0.1354
     29  NH2       24.3050  -31.8170  -44.4980 N.pl3   1  0G61        0.1354
     30  C3        31.1730  -37.1970  -39.6960 C.3     1  0G61        0.0373
@<TRIPOS>BOND
     1     7     9   ar
     2     7     6   ar
     3     5     6    1
     4     5     2    1
     5     1     2    1
     6     9    11   ar
     7     6     8   ar
     8     2     3    1
     9    11    10   ar
    10     8    10   ar
    11     3     4    2
    12     3    12   am
    13    18    12    1
    14    18    17    1
    15    12    13    1
    16    29    27    1
    17    17    16    1
    18    13    16    1
    19    13    14    1
    20    15    14    2
    21    27    26    2
    22    27    28    1
    23    26    25    1
    24    14    19   am
    25    24    25    1
    26    24    23    1
    27    19    20    1
    28    20    23    1
    29    20    21    1
    30    30    21    1
    31    21    22    1
