@<TRIPOS>MOLECULE
3dd3_GSH_A_1.pdb
 20 19 0 0 0
SMALL
GASTEIGER

@<TRIPOS>ATOM
      1  N1        13.9200   10.6740   23.9110 N.3   212  GSH212     -0.1208
      2  CA1       13.8490    9.2950   24.3380 C.3   212  GSH212      0.1948
      3  C1        15.2460    8.6800   24.3290 C.2   212  GSH212      0.3819
      4  O11       15.7740    8.3790   23.2520 O.co2 212  GSH212     -0.2441
      5  O12       15.8700    8.4070   25.3850 O.co2 212  GSH212     -0.2441
      6  CB1       13.3580    9.3760   25.7470 C.3   212  GSH212      0.0402
      7  CG1       12.9010    8.0270   26.2210 C.3   212  GSH212      0.0889
      8  CD1       11.3850    7.9550   26.1950 C.2   212  GSH212      0.2418
      9  OE1       10.7100    8.3540   25.0410 O.2   212  GSH212     -0.2733
     10  N2        10.8210    7.4570   27.2870 N.am  212  GSH212     -0.1968
     11  CA2        9.4460    6.9910   27.4480 C.3   212  GSH212      0.1843
     12  C2         8.9620    7.4470   28.7910 C.2   212  GSH212      0.2627
     13  O2         9.9000    7.7750   29.7770 O.2   212  GSH212     -0.2714
     14  CB2        9.3280    5.4560   27.3560 C.3   212  GSH212      0.0997
     15  SG2       10.4760    4.6670   26.1770 S.3   212  GSH212     -0.0797
     16  N3         7.6370    7.5110   29.0420 N.am  212  GSH212     -0.1917
     17  CA3        7.1770    8.1990   30.2200 C.3   212  GSH212      0.2285
     18  C3         6.6650    9.5750   29.8730 C.2   212  GSH212      0.3865
     19  O31        6.6220   10.0060   28.6910 O.co2 212  GSH212     -0.2437
     20  O32        6.2860   10.3280   30.7920 O.co2 212  GSH212     -0.2437
@<TRIPOS>BOND
     1     4     3   ar
     2     1     2    1
     3     3     2    1
     4     3     5   ar
     5     2     6    1
     6     9     8    2
     7     6     7    1
     8    15    14    1
     9     8     7    1
    10     8    10   am
    11    10    11    1
    12    14    11    1
    13    11    12    1
    14    19    18   ar
    15    12    16   am
    16    12    13    2
    17    16    17    1
    18    18    17    1
    19    18    20   ar
