@<TRIPOS>MOLECULE
3dd8_2C7_A_1.pdb
 24 26 0 0 0
SMALL
GASTEIGER

@<TRIPOS>ATOM
      1  CAE       -1.2860    9.8490   12.4120 C.3   300  2C7300      0.0004
      2  CAA        0.0250   10.6530   12.3690 C.3   300  2C7300      0.0000
      3  CAB        0.4180   11.2100   13.7510 C.3   300  2C7300      0.0000
      4  CAC        0.6120   10.0830   14.7850 C.3   300  2C7300      0.0000
      5  CAD       -0.7320    9.5540   15.3220 C.3   300  2C7300      0.0000
      6  CAG       -1.3660    8.4160   14.4930 C.3   300  2C7300      0.0004
      7  CAF       -1.0740    8.4340   12.9740 C.3   300  2C7300      0.0057
      8  CAH       -1.9950    7.5080   12.1680 C.3   300  2C7300      0.0454
      9  CAI       -2.7500    6.3640   12.8850 C.2   300  2C7300      0.0880
     10  CAJ       -4.0600    6.2410   13.1690 C.2   300  2C7300      0.0156
     11  SAP       -1.9980    4.9250   13.4130 S.O2  300  2C7300      0.0238
     12  OAO       -1.3820    4.2290   12.2230 O.2   300  2C7300     -0.1645
     13  OAW       -1.0200    5.1620   14.5250 O.2   300  2C7300     -0.1645
     14  CAQ       -3.4190    4.1590   13.9810 C.ar  300  2C7300      0.1130
     15  CAR       -3.6610    2.9100   14.5680 C.ar  300  2C7300      0.0585
     16  CAK       -4.4500    5.0870   13.7630 C.ar  300  2C7300      0.0187
     17  CAL       -5.7400    4.6980   14.1370 C.ar  300  2C7300      0.0045
     18  CAM       -5.9870    3.4520   14.7130 C.ar  300  2C7300      0.0399
     19  CAS       -4.9560    2.5520   14.9620 C.ar  300  2C7300      0.1742
     20  OAT       -5.1820    1.2980   15.4940 O.3   300  2C7300     -0.3468
     21  SAU       -5.8730    0.9500   16.7490 S.3   300  2C7300      0.1232
     22  OAA       -5.1280    1.4430   17.9490 O.3   300  2C7300     -0.0428
     23  OAN       -7.2650    1.4680   16.7630 O.3   300  2C7300     -0.0428
     24  NAV       -5.8480   -0.6380   16.7830 N.3   300  2C7300      0.0501
@<TRIPOS>BOND
     1     8     9    1
     2     8     7    1
     3    12    11    2
     4     2     1    1
     5     2     3    1
     6     1     7    1
     7     9    10    2
     8     9    11    1
     9     7     6    1
    10    10    16    1
    11    11    14    1
    12    11    13    2
    13     3     4    1
    14    16    14   ar
    15    16    17   ar
    16    14    15   ar
    17    17    18   ar
    18     6     5    1
    19    15    19   ar
    20    18    19   ar
    21     4     5    1
    22    19    20    1
    23    20    21    1
    24    21    23    1
    25    21    24    1
    26    21    22    1
