@<TRIPOS>MOLECULE
3dda_III_B_1.pdb
 50 49 0 0 0
SMALL
GASTEIGER

@<TRIPOS>ATOM
      1  N         26.2710   28.0530   52.9480 N.3   197  GLN197     -0.1231
      2  CA        26.3510   26.5610   52.8830 C.3   197  GLN197      0.1698
      3  C         25.1100   26.0210   53.5810 C.2   197  GLN197      0.2592
      4  O         24.8770   26.2850   54.7610 O.2   197  GLN197     -0.2718
      5  CB        27.6240   26.0760   53.5750 C.3   197  GLN197      0.0381
      6  CG        28.1040   24.7230   53.1170 C.3   197  GLN197      0.0905
      7  CD        29.6090   24.5770   53.2650 C.2   197  GLN197      0.2608
      8  OE1       30.1650   24.7890   54.3470 O.2   197  GLN197     -0.2717
      9  NE2       30.2750   24.2050   52.1780 N.am  197  GLN197     -0.0878
     10  N         24.3100   25.2710   52.8370 N.am  198  ARG198     -0.1966
     11  CA        23.0660   24.7230   53.3500 C.3   198  ARG198      0.1729
     12  C         23.1730   24.0660   54.7230 C.2   198  ARG198      0.2616
     13  O         22.3270   24.3310   55.6030 O.2   198  ARG198     -0.2715
     14  CB        22.5020   23.7250   52.3440 C.3   198  ARG198      0.0348
     15  CG        21.0920   23.2950   52.6370 C.3   198  ARG198      0.0492
     16  CD        20.7020   22.1430   51.7420 C.3   198  ARG198      0.2205
     17  NE        21.4480   20.9270   52.0520 N.pl3 198  ARG198     -0.0865
     18  CZ        21.2420   20.1860   53.1360 C.cat 198  ARG198      0.5346
     19  NH1       20.3100   20.5350   54.0120 N.pl3 198  ARG198      0.1354
     20  NH2       21.9700   19.1000   53.3510 N.pl3 198  ARG198      0.1354
     21  N         24.1940   23.2260   54.9220 N.am  199  ALA199     -0.1963
     22  CA        24.3500   22.5300   56.2110 C.3   199  ALA199      0.1728
     23  C         25.8140   22.2600   56.5750 C.2   199  ALA199      0.2617
     24  O         26.7230   22.3660   55.7500 O.2   199  ALA199     -0.2715
     25  CB        23.5960   21.2130   56.2060 C.3   199  ALA199      0.0334
     26  N         26.0330   21.9200   57.8390 N.am  200  THR200     -0.1937
     27  CA        27.3610   21.6350   58.3980 C.3   200  THR200      0.2028
     28  C         28.0940   20.4260   57.8050 C.2   200  THR200      0.2642
     29  O         29.3010   20.3260   57.9490 O.2   200  THR200     -0.2714
     30  CB        27.2510   21.3840   59.9160 C.3   200  THR200      0.1808
     31  OG1       26.7220   20.0640   60.1510 O.3   200  THR200     -0.2208
     32  CG2       26.3370   22.4160   60.5350 C.3   200  THR200      0.0379
     33  N         27.3480   19.5160   57.1710 N.am  201  LYS201     -0.1963
     34  CA        27.8460   18.2730   56.5450 C.3   201  LYS201      0.1728
     35  C         27.0270   17.0730   57.0180 C.2   201  LYS201      0.2616
     36  O         27.1050   15.9840   56.4580 O.2   201  LYS201     -0.2715
     37  CB        29.3160   18.0130   56.8870 C.3   201  LYS201      0.0311
     38  CG        30.3250   18.6420   55.9100 C.3   201  LYS201      0.0038
     39  CD        30.1350   18.0910   54.4900 C.3   201  LYS201      0.0206
     40  CE        31.1010   18.7580   53.5150 C.3   201  LYS201      0.1093
     41  NZ        30.9010   18.1850   52.1550 N.3   201  LYS201     -0.1314
     42  N         26.2900   17.2760   58.0980 N.am  202  MET202     -0.1963
     43  CA        25.4600   16.2280   58.6770 C.3   202  MET202      0.1753
     44  C         24.0440   16.7800   58.7760 C.2   202  MET202      0.2806
     45  O         23.4100   16.5890   59.8380 O.2   202  MET202     -0.2698
     46  CB        25.9580   15.8450   60.0870 C.3   202  MET202      0.0428
     47  CG        27.4190   16.2110   60.3600 C.3   202  MET202      0.0599
     48  SD        28.3960   14.8910   61.1390 S.3   202  MET202     -0.1393
     49  CE        27.1130   13.9710   62.0590 C.3   202  MET202      0.0692
     50  N         23.5380   17.4240   57.7590 N.am  203  NH2203     -0.0863
@<TRIPOS>BOND
     1    16    17    1
     2    16    15    1
     3    17    18    2
     4    41    40    1
     5     9     7   am
     6    14    15    1
     7    14    11    1
     8    10    11    1
     9    10     3   am
    10     2     1    1
    11     2     5    1
    12     2     3    1
    13     6     7    1
    14     6     5    1
    15    18    20    1
    16    18    19    1
    17     7     8    2
    18    11    12    1
    19    40    39    1
    20     3     4    2
    21    39    38    1
    22    12    21   am
    23    12    13    2
    24    21    22    1
    25    24    23    2
    26    38    37    1
    27    25    22    1
    28    22    23    1
    29    36    35    2
    30    34    37    1
    31    34    35    1
    32    34    33    1
    33    23    26   am
    34    35    42   am
    35    33    28   am
    36    50    44   am
    37    28    29    2
    38    28    27    1
    39    26    27    1
    40    42    43    1
    41    27    30    1
    42    43    44    1
    43    43    46    1
    44    44    45    2
    45    30    31    1
    46    30    32    1
    47    46    47    1
    48    47    48    1
    49    48    49    1
