@<TRIPOS>MOLECULE
3ddc_GNP_A_1.pdb
 32 34 0 0 0
SMALL
GASTEIGER

@<TRIPOS>ATOM
      1  PG        15.9400   38.0120   -2.7460 P.3   500  GNP500      0.4884
      2  O1G       14.6320   37.5770   -3.3550 O.2   500  GNP500     -0.2331
      3  O2G       16.0970   37.5790   -1.3210 O.3   500  GNP500     -0.1240
      4  O3G       16.1370   39.4640   -2.9020 O.3   500  GNP500     -0.1240
      5  N3B       17.1640   37.3370   -3.5970 N.3   500  GNP500     -0.0163
      6  PB        18.7390   37.4430   -3.2800 P.3   500  GNP500      0.4669
      7  O1B       19.3690   38.7300   -3.7100 O.2   500  GNP500     -0.2351
      8  O2B       19.0180   37.1050   -1.8480 O.3   500  GNP500     -0.1253
      9  O3A       19.4210   36.3290   -4.1590 O.3   500  GNP500     -0.2360
     10  PA        19.8500   34.8310   -3.7970 P.3   500  GNP500      0.2220
     11  O1A       21.0370   34.9120   -2.9370 O.3   500  GNP500     -0.4370
     12  O2A       18.6720   34.0740   -3.3640 O.2   500  GNP500     -0.5170
     13  O5'       20.3800   34.2590   -5.1860 O.3   500  GNP500     -0.3111
     14  C5'       19.5120   34.0670   -6.3040 C.3   500  GNP500      0.1813
     15  C4'       20.1190   33.0170   -7.2200 C.3   500  GNP500      0.1799
     16  O4'       21.3930   33.5160   -7.7210 O.3   500  GNP500     -0.3326
     17  C3'       20.3980   31.6710   -6.5430 C.3   500  GNP500      0.2158
     18  O3'       19.9000   30.6430   -7.4050 O.3   500  GNP500     -0.2175
     19  C2'       21.9040   31.7220   -6.2530 C.3   500  GNP500      0.2310
     20  O2'       22.5700   30.4750   -6.1760 O.3   500  GNP500     -0.2158
     21  C1'       22.4200   32.5680   -7.4150 C.3   500  GNP500      0.2293
     22  N9        23.6140   33.3070   -7.0710 N.pl3 500  GNP500     -0.2354
     23  C8        23.8260   34.1790   -6.0140 C.3   500  GNP500      0.2246
     24  N7        25.0300   34.6730   -5.9780 N.2   500  GNP500     -0.2322
     25  C5        25.6670   34.0870   -7.0570 C.2   500  GNP500      0.2182
     26  C6        26.9940   34.2580   -7.5590 C.1   500  GNP500      0.2372
     27  O6        27.9040   34.9380   -7.0880 O.2   500  GNP500     -0.2069
     28  N1        27.2240   33.4750   -8.6870 N.2   500  GNP500     -0.2485
     29  C2        26.2910   32.6510   -9.2740 C.1   500  GNP500      0.2531
     30  N2        26.6730   31.9600  -10.3820 N.pl3 500  GNP500     -0.0226
     31  N3        25.0340   32.5020   -8.8420 N.2   500  GNP500     -0.3074
     32  C4        24.8100   33.2430   -7.7290 C.2   500  GNP500      0.2300
@<TRIPOS>BOND
     1    30    29    1
     2    29    31    2
     3    29    28    2
     4    31    32    2
     5    28    26    2
     6    32    22    1
     7    32    25    1
     8    16    21    1
     9    16    15    1
    10    26    27    2
    11    26    25    1
    12    21    22    1
    13    21    19    1
    14    18    17    1
    15    15    17    1
    16    15    14    1
    17    22    23    1
    18    25    24    2
    19    17    19    1
    20    14    13    1
    21    19    20    1
    22    23    24    1
    23    13    10    1
    24     9    10    1
    25     9     6    1
    26    10    12    2
    27    10    11    1
    28     7     6    2
    29     5     6    1
    30     5     1    1
    31     2     1    2
    32     6     8    1
    33     4     1    1
    34     1     3    1
