@<TRIPOS>MOLECULE
3ddd_COA_A_1.pdb
 48 50 0 0 0
SMALL
GASTEIGER

@<TRIPOS>ATOM
      1  N1A       48.6440    6.9710    6.9520 N.2   300  COA300      0.0021
      2  C2A       48.0600    7.2390    8.1650 C.3   300  COA300      0.5254
      3  N3A       47.3890    8.4300    8.3490 N.2   300  COA300     -0.0055
      4  C4A       47.3290    9.3150    7.3110 C.2   300  COA300      0.3518
      5  C5A       47.8920    9.0570    6.0810 C.2   300  COA300      0.2526
      6  C6A       48.5630    7.8700    5.9130 C.2   300  COA300      0.4393
      7  N6A       49.3590    7.7960    4.8690 N.pl3 300  COA300      0.2180
      8  N7A       47.6780   10.0960    5.2410 N.2   300  COA300     -0.2095
      9  C8A       46.9520   11.0020    5.9280 C.3   300  COA300      0.3377
     10  N9A       46.7320   10.5210    7.2010 N.pl3 300  COA300     -0.1439
     11  C1B       45.8690   11.0840    8.2540 C.3   300  COA300      0.3185
     12  C2B       46.7120   11.5900    9.4180 C.3   300  COA300      0.2543
     13  O2B       46.0380   11.5300   10.6400 O.3   300  COA300     -0.2131
     14  C3B       46.8990   13.0340    9.0400 C.3   300  COA300      0.1928
     15  O3B       47.2420   13.7880   10.1520 O.3   300  COA300     -0.2673
     16  P3B       48.7730   13.9780   10.6040 P.3   300  COA300      0.5327
     17  O7A       48.8330   15.1020   11.6310 O.3   300  COA300     -0.1145
     18  O8A       49.5560   14.3870    9.3900 O.2   300  COA300     -0.2224
     19  O9A       49.1810   12.7520   11.3490 O.3   300  COA300     -0.1145
     20  C4B       45.5170   13.3330    8.5160 C.3   300  COA300      0.1795
     21  O4B       45.2220   12.2090    7.7190 O.3   300  COA300     -0.3136
     22  C5B       45.3870   14.6180    7.7270 C.3   300  COA300      0.1812
     23  O5B       46.4020   14.6780    6.7830 O.3   300  COA300     -0.3112
     24  P1A       46.1220   15.4530    5.4200 P.3   300  COA300      0.2189
     25  O1A       47.4340   15.9520    4.8750 O.2   300  COA300     -0.5170
     26  O2A       45.1390   16.5820    5.5740 O.3   300  COA300     -0.4371
     27  O3A       45.4790   14.2670    4.5530 O.3   300  COA300     -0.2703
     28  P2A       45.6930   14.1310    2.9680 P.3   300  COA300      0.2188
     29  O4A       45.7420   15.3920    2.1820 O.2   300  COA300     -0.5170
     30  O5A       46.9090   13.2590    2.7080 O.3   300  COA300     -0.4371
     31  O6A       44.4150   13.2250    2.5490 O.3   300  COA300     -0.3138
     32  CBP       43.3280   10.9670    2.5700 C.3   300  COA300      0.0645
     33  CCP       44.0950   12.0810    3.3200 C.3   300  COA300      0.1519
     34  CDP       42.2820   11.6390    1.6800 C.3   300  COA300      0.0056
     35  CEP       42.6180   10.1280    3.6440 C.3   300  COA300      0.0056
     36  CAP       44.1900    9.9030    1.8590 C.3   300  COA300      0.2312
     37  OAP       45.5540   10.1730    1.9040 O.3   300  COA300     -0.2131
     38  C9P       43.7950    9.4830    0.4600 C.2   300  COA300      0.2719
     39  O9P       43.4620   10.3280   -0.5610 O.2   300  COA300     -0.2706
     40  N8P       43.7680    8.2010    0.1720 N.am  300  COA300     -0.2028
     41  C7P       42.6290    7.7110   -0.5530 C.3   300  COA300      0.1248
     42  C6P       42.2300    6.3230   -0.1380 C.3   300  COA300      0.1102
     43  C5P       42.2090    6.1570    1.3420 C.2   300  COA300      0.2432
     44  O5P       42.9110    5.2110    1.7820 O.2   300  COA300     -0.2733
     45  N4P       41.4700    7.0270    2.0900 N.am  300  COA300     -0.2044
     46  C3P       40.1460    7.6250    1.7930 C.3   300  COA300      0.1276
     47  C2P       38.8760    6.8920    2.3200 C.3   300  COA300      0.0920
     48  S1P       38.4280    7.0240    4.0970 S.3   300  COA300     -0.0802
@<TRIPOS>BOND
     1    39    38    2
     2    41    42    1
     3    41    40    1
     4    42    43    1
     5    40    38   am
     6    38    36    1
     7    43    44    2
     8    43    45   am
     9    34    32    1
    10    46    45    1
    11    46    47    1
    12    36    37    1
    13    36    32    1
    14    29    28    2
    15    47    48    1
    16    31    28    1
    17    31    33    1
    18    32    33    1
    19    32    35    1
    20    30    28    1
    21    28    27    1
    22    27    24    1
    23     7     6    1
    24    25    24    2
    25     8     9    1
    26     8     5    2
    27    24    26    1
    28    24    23    1
    29     6     5    1
    30     6     1    2
    31     9    10    1
    32     5     4    1
    33    23    22    1
    34     1     2    1
    35    10     4    1
    36    10    11    1
    37     4     3    2
    38    21    11    1
    39    21    20    1
    40    22    20    1
    41     2     3    1
    42    11    12    1
    43    20    14    1
    44    14    12    1
    45    14    15    1
    46    18    16    2
    47    12    13    1
    48    15    16    1
    49    16    19    1
    50    16    17    1
