@<TRIPOS>MOLECULE
3ddf_GB6_A_1.pdb
 19 20 0 0 0
SMALL
GASTEIGER

@<TRIPOS>ATOM
      1  C15       27.2850   67.6370   11.5310 C.ar  4001  GB64001    -0.0028
      2  C14       27.0370   68.9770   11.7610 C.ar  4001  GB64001    -0.0003
      3  C13       27.9310   69.7900   12.4580 C.ar  4001  GB64001    -0.0000
      4  C12       29.1240   69.2700   12.9820 C.ar  4001  GB64001    -0.0003
      5  C11       29.4270   67.9340   12.8050 C.ar  4001  GB64001    -0.0028
      6  C10       28.5580   67.0940   12.0920 C.ar  4001  GB64001    -0.0039
      7  C8        28.8520   65.5910   11.8840 C.3   4001  GB64001     0.1279
      8  C9        29.1040   65.0270   13.3270 C.3   4001  GB64001     0.2038
      9  O9        29.1240   63.6170   13.1430 O.3   4001  GB64001    -0.2185
     10  N7        30.0900   65.3760   11.0280 N.3   4001  GB64001    -0.2102
     11  C6        29.9950   66.0980    9.7330 C.3   4001  GB64001     0.1169
     12  C5        31.0830   65.6930    8.7260 C.3   4001  GB64001     0.1658
     13  N1        30.7800   66.3990    7.4570 N.2   4001  GB64001    -0.2019
     14  C2        31.7870   67.0310    6.8950 C.1   4001  GB64001     0.1594
     15  O2        31.7860   67.6410    5.8060 O.2   4001  GB64001    -0.2244
     16  C3        33.0180   66.8840    7.7760 C.3   4001  GB64001     0.2880
     17  O3        33.9280   65.9840    7.0730 O.3   4001  GB64001    -0.2021
     18  C4        32.4900   66.2520    9.0390 C.3   4001  GB64001     0.2226
     19  O4        33.3470   65.2080    9.5370 O.3   4001  GB64001    -0.2170
@<TRIPOS>BOND
     1    15    14    2
     2    14    13    2
     3    14    16    1
     4    17    16    1
     5    13    12    1
     6    16    18    1
     7    12    18    1
     8    12    11    1
     9    18    19    1
    10    11    10    1
    11    10     7    1
    12     1     2   ar
    13     1     6   ar
    14     2     3   ar
    15     7     6    1
    16     7     8    1
    17     6     5   ar
    18     3     4   ar
    19     5     4   ar
    20     9     8    1
