@<TRIPOS>MOLECULE
3ddg_GB7_A_1.pdb
 20 21 0 0 0
SMALL
GASTEIGER

@<TRIPOS>ATOM
      1  C11       29.6920   67.7980   12.8080 C.ar  5001  GB75001    -0.0028
      2  C12       29.4710   69.1240   13.1240 C.ar  5001  GB75001    -0.0003
      3  C13       28.3520   69.8560   12.7390 C.ar  5001  GB75001    -0.0000
      4  C14       27.3650   69.1100   12.1150 C.ar  5001  GB75001    -0.0003
      5  C15       27.5310   67.7610   11.8030 C.ar  5001  GB75001    -0.0028
      6  C10       28.6780   67.0940   12.1730 C.ar  5001  GB75001    -0.0039
      7  C8        28.9400   65.6190   11.8880 C.3   5001  GB75001     0.1279
      8  C9        29.1110   65.0090   13.2830 C.3   5001  GB75001     0.2038
      9  O9        29.3020   63.6050   13.2270 O.3   5001  GB75001    -0.2185
     10  N7        30.1600   65.4270   11.0820 N.3   5001  GB75001    -0.2105
     11  C6        30.0820   66.1180    9.7690 C.3   5001  GB75001     0.1115
     12  C5        31.1780   65.7230    8.7590 C.3   5001  GB75001     0.1262
     13  N1        30.8750   66.3990    7.4810 N.am  5001  GB75001    -0.2733
     14  C1        29.5470   66.2590    6.8520 C.3   5001  GB75001     0.1150
     15  C2        31.9150   66.9950    6.9030 C.2   5001  GB75001     0.2589
     16  O2        31.9090   67.5850    5.8290 O.2   5001  GB75001    -0.2720
     17  C3        33.1550   66.7440    7.7530 C.3   5001  GB75001     0.2592
     18  O3        34.1150   66.0080    7.0120 O.3   5001  GB75001    -0.2104
     19  C4        32.6050   66.1790    9.0620 C.3   5001  GB75001     0.2105
     20  O4        33.4320   65.2170    9.6690 O.3   5001  GB75001    -0.2180
@<TRIPOS>BOND
     1    16    15    2
     2    14    13    1
     3    15    13   am
     4    15    17    1
     5    18    17    1
     6    13    12    1
     7    17    19    1
     8    12    19    1
     9    12    11    1
    10    19    20    1
    11    11    10    1
    12    10     7    1
    13     5     4   ar
    14     5     6   ar
    15     7     6    1
    16     7     8    1
    17     4     3   ar
    18     6     1   ar
    19     3     2   ar
    20     1     2   ar
    21     9     8    1
