@<TRIPOS>MOLECULE
3ddi_TYD_A_1.pdb
 25 26 0 0 0
SMALL
GASTEIGER

@<TRIPOS>ATOM
      1  PA        52.4740    9.7260   -9.0080 P.3   201  TYD201      0.2231
      2  O1A       52.1410    8.2550   -8.9470 O.3   201  TYD201     -0.4370
      3  O2A       52.5320   10.4520  -10.3380 O.2   201  TYD201     -0.5169
      4  O3A       51.5050   10.5910   -8.0430 O.3   201  TYD201     -0.2261
      5  PB        50.2140   10.0960   -7.2030 P.3   201  TYD201      0.5373
      6  O1B       50.7570    9.9040   -5.8060 O.3   201  TYD201     -0.1143
      7  O2B       49.7080    8.8260   -7.8640 O.2   201  TYD201     -0.2221
      8  O3B       49.2730   11.2820   -7.3170 O.3   201  TYD201     -0.1143
      9  O5'       53.8830    9.9860   -8.2700 O.3   201  TYD201     -0.3111
     10  C5'       54.2520    9.2330   -7.1200 C.3   201  TYD201      0.1812
     11  C4'       54.8960   10.1680   -6.1090 C.3   201  TYD201      0.1773
     12  O4'       56.0900   10.7380   -6.6500 O.3   201  TYD201     -0.3339
     13  C3'       54.0160   11.3600   -5.7570 C.3   201  TYD201      0.1857
     14  O3'       53.0990   11.0570   -4.6980 O.3   201  TYD201     -0.2203
     15  C2'       55.0170   12.4220   -5.3440 C.3   201  TYD201      0.0874
     16  C1'       56.2570   12.0670   -6.1470 C.3   201  TYD201      0.2090
     17  N1        56.3720   13.0000   -7.2660 N.am  201  TYD201     -0.1794
     18  C2        57.2480   14.0970   -7.1580 C.1   201  TYD201      0.2844
     19  O2        57.9150   14.2560   -6.1060 O.2   201  TYD201     -0.1918
     20  N3        57.3690   14.9720   -8.1630 N.2   201  TYD201     -0.2455
     21  C4        56.6750   14.8190   -9.2920 C.1   201  TYD201      0.2134
     22  O4        56.8130   15.6470  -10.2210 O.2   201  TYD201     -0.2088
     23  C5        55.7410   13.6720   -9.4280 C.2   201  TYD201      0.0891
     24  C5M       54.9340   13.4540  -10.6830 C.3   201  TYD201      0.0462
     25  C6        55.6430   12.7840   -8.3670 C.2   201  TYD201      0.0877
@<TRIPOS>BOND
     1    24    23    1
     2     3     1    2
     3    22    21    2
     4    23    21    1
     5    23    25    2
     6    21    20    2
     7     1     2    1
     8     1     9    1
     9     1     4    1
    10    25    17    1
    11     9    10    1
    12    20    18    2
    13     4     5    1
    14     7     5    2
    15     8     5    1
    16    17    18   am
    17    17    16    1
    18     5     6    1
    19    18    19    2
    20    10    11    1
    21    12    16    1
    22    12    11    1
    23    16    15    1
    24    11    13    1
    25    13    15    1
    26    13    14    1
