@<TRIPOS>MOLECULE
3ddj_AMP_A_1.pdb
 23 25 0 0 0
SMALL
GASTEIGER

@<TRIPOS>ATOM
      1  P          9.1220   26.6250  -21.2410 P.3   278  AMP278      0.5327
      2  O1P       10.0120   26.8910  -20.0320 O.3   278  AMP278     -0.1145
      3  O2P        9.7290   25.7620  -22.3210 O.2   278  AMP278     -0.2224
      4  O3P        7.7550   26.0820  -20.8430 O.3   278  AMP278     -0.1145
      5  O5'        8.8960   28.0190  -21.9870 O.3   278  AMP278     -0.2675
      6  C5'        7.9280   28.9360  -21.4390 C.3   278  AMP278      0.1860
      7  C4'        8.1580   30.3620  -21.9390 C.3   278  AMP278      0.1823
      8  O4'        9.1590   30.9980  -21.1330 O.3   278  AMP278     -0.3135
      9  C3'        8.6700   30.4470  -23.3700 C.3   278  AMP278      0.2184
     10  O3'        8.1940   31.6710  -23.9400 O.3   278  AMP278     -0.2174
     11  C2'       10.1850   30.5020  -23.2430 C.3   278  AMP278      0.2570
     12  O2'       10.9400   31.2160  -24.2470 O.3   278  AMP278     -0.2130
     13  C1'       10.3260   31.2400  -21.9230 C.3   278  AMP278      0.3186
     14  N9        11.4860   30.8030  -21.1300 N.pl3 278  AMP278     -0.1439
     15  C8        11.8690   29.5270  -20.8460 C.3   278  AMP278      0.3377
     16  N7        12.9520   29.5270  -20.0420 N.2   278  AMP278     -0.2095
     17  C5        13.2410   30.8200  -19.7670 C.2   278  AMP278      0.2526
     18  C6        14.2770   31.5350  -18.9800 C.2   278  AMP278      0.4393
     19  N6        15.2220   30.8700  -18.2880 N.pl3 278  AMP278      0.2180
     20  N1        14.2190   32.8810  -18.9710 N.2   278  AMP278      0.0021
     21  C2        13.2710   33.5830  -19.6570 C.3   278  AMP278      0.5254
     22  N3        12.2890   33.0010  -20.3910 N.2   278  AMP278     -0.0055
     23  C4        12.2560   31.6490  -20.4820 C.2   278  AMP278      0.3518
@<TRIPOS>BOND
     1    12    11    1
     2    10     9    1
     3     9    11    1
     4     9     7    1
     5    11    13    1
     6     3     1    2
     7     5     6    1
     8     5     1    1
     9     7     6    1
    10     7     8    1
    11    13     8    1
    12    13    14    1
    13     1     4    1
    14     1     2    1
    15    14    15    1
    16    14    23    1
    17    15    16    1
    18    23    22    2
    19    23    17    1
    20    22    21    1
    21    16    17    2
    22    17    18    1
    23    21    20    1
    24    18    20    2
    25    18    19    1
