@<TRIPOS>MOLECULE
3ddl_RET_A_1.pdb
 20 20 0 0 0
SMALL
GASTEIGER

@<TRIPOS>ATOM
      1  C1        50.8730   -0.9130   48.0350 C.3   1301  RET1301     0.0183
      2  C2        50.3090   -2.1000   47.2330 C.3   1301  RET1301     0.0044
      3  C3        48.8660   -2.4220   47.4810 C.3   1301  RET1301     0.0047
      4  C4        48.5630   -2.6240   48.9440 C.3   1301  RET1301     0.0217
      5  C5        49.1400   -1.5370   49.8730 C.2   1301  RET1301    -0.0479
      6  C6        50.1650   -0.7150   49.4370 C.2   1301  RET1301    -0.0307
      7  C7        50.4940    0.3620   50.4040 C.2   1301  RET1301    -0.0052
      8  C8        51.4070    1.3620   50.3500 C.2   1301  RET1301    -0.0046
      9  C9        51.6180    2.3990   51.3400 C.2   1301  RET1301    -0.0219
     10  C10       52.6250    3.2830   50.9900 C.2   1301  RET1301    -0.0043
     11  C11       52.9620    4.4300   51.8730 C.2   1301  RET1301    -0.0007
     12  C12       54.0040    5.2450   51.4130 C.2   1301  RET1301    -0.0046
     13  C13       54.4270    6.4350   52.1720 C.2   1301  RET1301    -0.0261
     14  C14       55.4700    7.0910   51.5670 C.2   1301  RET1301    -0.0300
     15  C15       56.1000    8.3030   52.0800 C.3   1301  RET1301     0.0304
     16  C16       52.4260   -1.1620   48.2240 C.3   1301  RET1301     0.0043
     17  C17       50.6510    0.3100   47.0240 C.3   1301  RET1301     0.0043
     18  C18       48.3680   -1.5100   51.1600 C.3   1301  RET1301     0.0260
     19  C19       50.7760    2.4780   52.6040 C.3   1301  RET1301     0.0310
     20  C20       53.7640    6.8480   53.4540 C.3   1301  RET1301     0.0307
@<TRIPOS>BOND
     1    17     1    1
     2     2     3    1
     3     2     1    1
     4     3     4    1
     5     1    16    1
     6     1     6    1
     7     4     5    1
     8     6     5    2
     9     6     7    1
    10     5    18    1
    11     8     7    2
    12     8     9    1
    13    10     9    2
    14    10    11    1
    15     9    19    1
    16    12    11    2
    17    12    13    1
    18    14    15    1
    19    14    13    2
    20    13    20    1
