@<TRIPOS>MOLECULE
3ddn_HPV_B_1.pdb
 11 10 0 0 0
SMALL
GASTEIGER

@<TRIPOS>ATOM
      1  C2        17.7110   47.4870  -20.0960 C.2   600  HPV600      0.2822
      2  O4P       14.8530   45.8100  -16.6820 O.3   600  HPV600     -0.1145
      3  P         14.5260   46.4570  -18.0450 P.3   600  HPV600      0.5330
      4  O2P       13.5190   45.6530  -18.8910 O.2   600  HPV600     -0.2224
      5  O3P       14.2700   47.9690  -17.9810 O.3   600  HPV600     -0.1145
      6  O1P       15.8950   46.3890  -18.9030 O.3   600  HPV600     -0.2615
      7  C3        16.2890   47.5590  -19.6030 C.3   600  HPV600      0.2293
      8  O3        17.9700   47.0470  -21.1990 O.2   600  HPV600     -0.2816
      9  C1        18.7660   48.0100  -19.2450 C.2   600  HPV600      0.4244
     10  O1        18.5770   49.1880  -18.8720 O.co2 600  HPV600     -0.2372
     11  O2        19.7780   47.3080  -18.9290 O.co2 600  HPV600     -0.2372
@<TRIPOS>BOND
     1     8     1    2
     2     1     7    1
     3     1     9    1
     4     7     6    1
     5     9    11   ar
     6     9    10   ar
     7     6     3    1
     8     4     3    2
     9     3     5    1
    10     3     2    1
