@<TRIPOS>MOLECULE
3ddp_RC8_A_1.pdb
 32 35 0 0 0
SMALL
GASTEIGER

@<TRIPOS>ATOM
      1  C2         5.5830   25.1570   23.6600 C.1   299  RC8299      0.2227
      2  C4         7.8230   24.5430   23.9970 C.2   299  RC8299      0.2197
      3  C5         8.0440   25.7360   24.8050 C.2   299  RC8299      0.1690
      4  C6         6.8750   26.6280   24.9790 C.2   299  RC8299      0.2344
      5  C8         9.8920   24.5550   24.6550 C.3   299  RC8299      0.2220
      6  C9         9.0770   22.6330   23.1800 C.3   299  RC8299      0.0770
      7  C10       10.0490   22.7050   21.9400 C.3   299  RC8299      0.0216
      8  C12        4.3230   23.7910   22.1400 C.3   299  RC8299      0.1385
      9  C14        5.6480   24.0470   20.0060 C.3   299  RC8299      0.0019
     10  O1         2.2260   23.7030   23.3500 O.3   299  RC8299     -0.2185
     11  C15        3.0470   22.9920   22.4050 C.3   299  RC8299      0.2044
     12  C13        4.3480   24.3580   20.7130 C.3   299  RC8299      0.0252
     13  N2         4.3990   24.8730   23.1030 N.pl3 299  RC8299     -0.1508
     14  N1         5.7100   26.2850   24.3920 N.2   299  RC8299     -0.3084
     15  N9         8.9720   23.8880   23.9510 N.pl3 299  RC8299     -0.2624
     16  C11        9.2590   21.3050   24.0230 C.3   299  RC8299      0.0216
     17  N7         9.3330   25.6840   25.1800 N.2   299  RC8299     -0.2402
     18  N3         6.6060   24.3030   23.4640 N.2   299  RC8299     -0.3099
     19  N6         6.9380   27.7620   25.6940 N.pl3 299  RC8299     -0.2027
     20  CA'        5.9160   28.7670   25.4750 C.3   299  RC8299      0.1413
     21  C1'        4.9540   28.7170   26.6320 C.ar  299  RC8299     -0.0006
     22  C6'        3.5830   28.7670   26.4010 C.ar  299  RC8299     -0.0025
     23  C5'        2.7150   28.7220   27.4870 C.ar  299  RC8299      0.0012
     24  C4'        3.2170   28.6180   28.7890 C.ar  299  RC8299      0.0176
     25  C3'        4.5910   28.5670   29.0060 C.ar  299  RC8299      0.0012
     26  C2'        5.4580   28.6170   27.9290 C.ar  299  RC8299     -0.0025
     27  C1B        2.2950   28.5610   29.9640 C.ar  299  RC8299      0.0813
     28  N1B        2.7930   28.7520   31.2070 N.ar  299  RC8299     -0.2438
     29  C5B        2.0040   28.7160   32.2910 C.ar  299  RC8299      0.0988
     30  C4B        0.6390   28.4700   32.1540 C.ar  299  RC8299      0.0207
     31  C3B        0.0940   28.2670   30.8860 C.ar  299  RC8299      0.0031
     32  C2B        0.9290   28.3090   29.7740 C.ar  299  RC8299      0.0191
@<TRIPOS>BOND
     1     9    12    1
     2    12     8    1
     3     7     6    1
     4     8    11    1
     5     8    13    1
     6    11    10    1
     7    13     1    1
     8     6    15    1
     9     6    16    1
    10    18     1    2
    11    18     2    2
    12     1    14    2
    13    15     2    1
    14    15     5    1
    15     2     3    1
    16    14     4    2
    17     5    17    1
    18     3     4    1
    19     3    17    2
    20     4    19    1
    21    20    19    1
    22    20    21    1
    23    22    21   ar
    24    22    23   ar
    25    21    26   ar
    26    23    24   ar
    27    26    25   ar
    28    24    25   ar
    29    24    27    1
    30    32    27   ar
    31    32    31   ar
    32    27    28   ar
    33    31    30   ar
    34    28    29   ar
    35    30    29   ar
