@<TRIPOS>MOLECULE
3ddq_RRC_A_1.pdb
 26 28 0 0 0
SMALL
GASTEIGER

@<TRIPOS>ATOM
      1  OAP       -2.2210  -20.8000   21.7380 O.3   299  RRC299     -0.2185
      2  CAQ       -3.3260  -19.9390   21.4160 C.3   299  RRC299      0.2044
      3  CAR       -4.5430  -20.7570   20.9630 C.3   299  RRC299      0.1385
      4  CAK       -4.2860  -21.3910   19.5830 C.3   299  RRC299      0.0252
      5  CAI       -5.5300  -21.9430   18.8990 C.3   299  RRC299      0.0019
      6  NAS       -4.6710  -21.8880   21.8670 N.pl3 299  RRC299     -0.1508
      7  CAT       -5.8350  -22.1780   22.4950 C.1   299  RRC299      0.2227
      8  NAU       -6.9130  -21.3900   22.3110 N.2   299  RRC299     -0.3099
      9  CAV       -8.0670  -21.6980   22.9540 C.2   299  RRC299      0.2197
     10  NAW       -9.2130  -21.0680   22.9290 N.pl3 299  RRC299     -0.2624
     11  CAZ       -9.2320  -19.9300   22.0060 C.3   299  RRC299      0.0770
     12  CAY      -10.0710  -20.1590   20.7370 C.3   299  RRC299      0.0216
     13  CBA       -9.0270  -18.4930   22.5280 C.3   299  RRC299      0.0216
     14  CAX      -10.1040  -21.7330   23.6950 C.3   299  RRC299      0.2220
     15  CAN       -8.1820  -22.7840   23.7920 C.2   299  RRC299      0.1690
     16  NAO       -9.4520  -22.7900   24.2570 N.2   299  RRC299     -0.2402
     17  NAL       -5.9120  -23.2570   23.3100 N.2   299  RRC299     -0.3084
     18  CAM       -7.0550  -23.5800   23.9640 C.2   299  RRC299      0.2344
     19  NAJ       -7.1030  -24.6550   24.7800 N.pl3 299  RRC299     -0.2027
     20  CAD       -5.9250  -25.5080   24.9450 C.3   299  RRC299      0.1413
     21  CAE       -5.2330  -25.3320   26.2630 C.ar  299  RRC299     -0.0006
     22  CAG       -5.9660  -25.3170   27.4430 C.ar  299  RRC299     -0.0026
     23  CAH       -5.3080  -25.1620   28.6600 C.ar  299  RRC299     -0.0003
     24  CAF       -3.9230  -25.0290   28.6850 C.ar  299  RRC299     -0.0000
     25  CAC       -3.1900  -25.0480   27.5000 C.ar  299  RRC299     -0.0003
     26  CAB       -3.8420  -25.2030   26.2810 C.ar  299  RRC299     -0.0026
@<TRIPOS>BOND
     1     5     4    1
     2     4     3    1
     3    12    11    1
     4     3     2    1
     5     3     6    1
     6     2     1    1
     7     6     7    1
     8    11    13    1
     9    11    10    1
    10     8     7    2
    11     8     9    2
    12     7    17    2
    13    10     9    1
    14    10    14    1
    15     9    15    1
    16    17    18    2
    17    14    16    1
    18    15    18    1
    19    15    16    2
    20    18    19    1
    21    19    20    1
    22    20    21    1
    23    21    26   ar
    24    21    22   ar
    25    26    25   ar
    26    22    23   ar
    27    25    24   ar
    28    23    24   ar
