@<TRIPOS>MOLECULE
3dds_PLP_A_1.pdb
 15 15 0 0 0
SMALL
GASTEIGER

@<TRIPOS>ATOM
      1  N1       102.3090  -70.3280  127.4510 N.ar  903  PLP903     -0.2452
      2  C2       102.9540  -71.5370  127.2880 C.ar  903  PLP903      0.0978
      3  C2A      103.3220  -72.0090  125.9050 C.3   903  PLP903      0.0555
      4  C3       103.2510  -72.3260  128.3980 C.ar  903  PLP903      0.2049
      5  O3       103.8900  -73.5260  128.2270 O.3   903  PLP903     -0.2857
      6  C4       102.9080  -71.8820  129.6860 C.ar  903  PLP903      0.0182
      7  C4A      103.2040  -72.7500  130.8670 C.3   903  PLP903      0.0342
      8  C5       102.2520  -70.6570  129.8430 C.ar  903  PLP903      0.0261
      9  C6       101.9580  -69.8890  128.7180 C.ar  903  PLP903      0.0965
     10  C5A      101.8620  -70.1090  131.2100 C.3   903  PLP903      0.1815
     11  O4P      102.9390  -69.2910  131.6270 O.3   903  PLP903     -0.2653
     12  P        102.8130  -68.1550  132.7850 P.3   903  PLP903      0.5329
     13  O1P      104.2090  -67.6010  132.9450 O.3   903  PLP903     -0.1145
     14  O2P      102.3850  -68.8040  134.0790 O.3   903  PLP903     -0.1145
     15  O3P      101.8700  -67.0850  132.3220 O.2   903  PLP903     -0.2224
@<TRIPOS>BOND
     1     3     2    1
     2     2     1   ar
     3     2     4   ar
     4     1     9   ar
     5     5     4    1
     6     4     6   ar
     7     9     8   ar
     8     6     8   ar
     9     6     7    1
    10     8    10    1
    11    10    11    1
    12    11    12    1
    13    15    12    2
    14    12    13    1
    15    12    14    1
