@<TRIPOS>MOLECULE
3dds_CFF_A_1.pdb
 14 15 0 0 0
SMALL
GASTEIGER

@<TRIPOS>ATOM
      1  N1        93.6140  -54.6830  126.0190 N.am  904  CFF904     -0.1903
      2  C2        94.1600  -55.5220  127.0160 C.2   904  CFF904      0.4044
      3  C10       93.4320  -53.2520  126.3110 C.3   904  CFF904      0.1267
      4  C6        93.2470  -55.2270  124.7580 C.2   904  CFF904      0.2609
      5  N3        94.3350  -56.8330  126.7720 N.am  904  CFF904     -0.1218
      6  O11       94.4830  -55.0420  128.1270 O.2   904  CFF904     -0.2230
      7  C12       94.9040  -57.7280  127.7880 C.3   904  CFF904      0.2626
      8  C4        93.9680  -57.3440  125.5120 C.2   904  CFF904      0.3276
      9  C5        93.4350  -56.5840  124.5270 C.3   904  CFF904      0.2453
     10  N9        94.1010  -58.6690  125.1630 N.2   904  CFF904     -0.0479
     11  O13       92.7620  -54.5060  123.8580 O.2   904  CFF904     -0.2723
     12  N7        93.2020  -57.4010  123.5080 N.3   904  CFF904     -0.2098
     13  C8        93.6010  -58.6560  123.8790 C.3   904  CFF904      0.3428
     14  C14       92.6220  -56.8540  122.2660 C.3   904  CFF904      0.0945
@<TRIPOS>BOND
     1    14    12    1
     2    12    13    1
     3    12     9    1
     4    11     4    2
     5    13    10    1
     6     9     4    1
     7     9     8    1
     8     4     1   am
     9    10     8    2
    10     8     5    1
    11     1     3    1
    12     1     2   am
    13     5     2   am
    14     5     7    1
    15     2     6    2
