@<TRIPOS>MOLECULE
3dds_NBG_A_1.pdb
 15 15 0 0 0
SMALL
GASTEIGER

@<TRIPOS>ATOM
      1  C1        95.1310  -67.4950  133.9160 C.3   901  NBG901      0.2446
      2  C2        95.9670  -66.6950  134.9200 C.3   901  NBG901      0.2326
      3  C3        97.1880  -67.4740  135.4130 C.3   901  NBG901      0.2190
      4  C4        96.8160  -68.8980  135.8160 C.3   901  NBG901      0.2144
      5  C5        96.0630  -69.5780  134.6740 C.3   901  NBG901      0.1828
      6  C6        95.7090  -71.0230  135.0260 C.3   901  NBG901      0.2142
      7  C7        93.2260  -66.7450  132.5290 C.2   901  NBG901      0.2440
      8  C8        91.8660  -66.1040  132.5870 C.3   901  NBG901      0.0965
      9  N1        93.8520  -66.8330  133.7080 N.am  901  NBG901     -0.1751
     10  O3        97.7560  -66.8140  136.5350 O.3   901  NBG901     -0.2174
     11  O2        96.3750  -65.4710  134.3090 O.3   901  NBG901     -0.2157
     12  O4        97.9690  -69.6630  136.1670 O.3   901  NBG901     -0.2176
     13  O5        94.8800  -68.8330  134.3790 O.3   901  NBG901     -0.3315
     14  O6        94.9450  -71.0750  136.2230 O.3   901  NBG901     -0.2176
     15  O7        93.7000  -67.1640  131.4820 O.2   901  NBG901     -0.2733
@<TRIPOS>BOND
     1    15     7    2
     2     7     8    1
     3     7     9   am
     4     9     1    1
     5     1    13    1
     6     1     2    1
     7    11     2    1
     8    13     5    1
     9     5     6    1
    10     5     4    1
    11     2     3    1
    12     6    14    1
    13     3     4    1
    14     3    10    1
    15     4    12    1
