@<TRIPOS>MOLECULE
3dds_26B_A_1.pdb
 37 39 0 0 0
SMALL
GASTEIGER

@<TRIPOS>ATOM
      1  N         81.1050  -96.1390  124.2570 N.am  905  26B905     -0.1892
      2  CA        80.8160  -94.8680  123.6120 C.3   905  26B905      0.2248
      3  C         80.9270  -93.7800  124.6470 C.2   905  26B905      0.3867
      4  O         81.0110  -94.0600  125.8630 O.co2 905  26B905     -0.2437
      5  OXT       80.9350  -92.5950  124.2210 O.co2 905  26B905     -0.2437
      6  C1        79.3610  -95.8620  121.8970 C.3   905  26B905      0.0345
      7  C2        79.4390  -94.8150  122.9790 C.3   905  26B905      0.1460
      8  O3        78.4300  -95.1250  123.9420 O.3   905  26B905     -0.3587
      9  C4        77.3910  -94.1470  124.0390 C.3   905  26B905      0.0930
     10  C5        76.7880  -93.8070  122.6920 C.3   905  26B905      0.0296
     11  C6        76.3130  -94.7420  124.9060 C.3   905  26B905      0.0296
     12  C7        77.8970  -92.9030  124.7310 C.3   905  26B905      0.0296
     13  C8        82.4210  -96.5650  124.2750 C.2   905  26B905      0.2666
     14  O9        83.3620  -95.7990  124.1330 O.2   905  26B905     -0.2683
     15  C10       82.6670  -98.0180  124.4600 C.ar  905  26B905      0.0704
     16  C11       81.8680  -98.7610  125.3180 C.ar  905  26B905      0.0059
     17  C12       82.1050 -100.1140  125.4830 C.ar  905  26B905      0.0002
     18  C13       81.3210 -100.8650  126.3360 C.ar  905  26B905      0.0000
     19  C14       81.5550 -102.2140  126.4920 C.ar  905  26B905      0.0000
     20  C15       82.5800 -102.8220  125.8010 C.ar  905  26B905      0.0000
     21  C16       83.3720 -102.0750  124.9500 C.ar  905  26B905      0.0000
     22  C17       83.1300 -100.7250  124.7930 C.ar  905  26B905      0.0013
     23  C18       83.9210  -99.9830  123.9390 C.ar  905  26B905      0.0168
     24  C19       83.6960  -98.6290  123.7610 C.ar  905  26B905      0.0794
     25  N20       84.5080  -97.8440  122.8990 N.am  905  26B905     -0.1605
     26  C21       85.1500  -98.2700  121.7440 C.2   905  26B905      0.3477
     27  O22       85.2180  -99.4350  121.3700 O.2   905  26B905     -0.2484
     28  N23       85.7350  -97.2330  121.0230 N.am  905  26B905     -0.1613
     29  C24       85.7750  -95.9330  121.5570 C.ar  905  26B905      0.0670
     30  C25       84.6870  -95.1120  121.3550 C.ar  905  26B905     -0.0071
     31  C26       83.5110  -95.5930  120.5760 C.3   905  26B905      0.0324
     32  C27       84.6870  -93.8370  121.8730 C.ar  905  26B905     -0.0072
     33  C28       85.7690  -93.3890  122.5940 C.ar  905  26B905     -0.0224
     34  C29       85.7450  -92.0030  123.1530 C.3   905  26B905      0.0310
     35  C30       86.8600  -94.2070  122.7920 C.ar  905  26B905     -0.0072
     36  C31       86.8680  -95.4860  122.2750 C.ar  905  26B905     -0.0071
     37  C32       88.0520  -96.3570  122.5050 C.3   905  26B905      0.0324
@<TRIPOS>BOND
     1    31    30    1
     2    28    29    1
     3    28    26   am
     4    30    29   ar
     5    30    32   ar
     6    27    26    2
     7    29    36   ar
     8    26    25   am
     9    32    33   ar
    10     6     7    1
    11    36    37    1
    12    36    35   ar
    13    33    35   ar
    14    33    34    1
    15    10     9    1
    16    25    24    1
    17     7     2    1
    18     7     8    1
    19     2     1    1
    20     2     3    1
    21    24    23   ar
    22    24    15   ar
    23    23    22   ar
    24     8     9    1
    25     9    12    1
    26     9    11    1
    27    14    13    2
    28     5     3   ar
    29     1    13   am
    30    13    15    1
    31    15    16   ar
    32     3     4   ar
    33    22    21   ar
    34    22    17   ar
    35    21    20   ar
    36    16    17   ar
    37    17    18   ar
    38    20    19   ar
    39    18    19   ar
