@<TRIPOS>MOLECULE
3ddu_552_A_1.pdb
 27 30 0 0 0
SMALL
GASTEIGER

@<TRIPOS>ATOM
      1 CL11       -4.8100   11.3780   34.5030 Cl    901  552901     -0.0467
      2  C10       -5.4620   11.7490   32.9340 C.2   901  552901      0.2056
      3  N09       -6.8010   11.5350   32.8030 N.2   901  552901     -0.3511
      4  C12       -4.6870   12.1820   31.9420 C.2   901  552901      0.0914
      5  N23       -5.2310   12.4510   30.7400 N.am  901  552901     -0.2403
      6  C15       -4.2930   12.9190   29.7590 C.3   901  552901      0.1609
      7  C16       -4.1970   11.8140   28.7490 C.2   901  552901      0.2444
      8  N18       -3.7610   12.2160   27.5240 N.am  901  552901     -0.2782
      9  C22       -3.6570   11.2790   26.4540 C.3   901  552901      0.0935
     10  C21       -3.1790   12.1020   25.2780 C.3   901  552901      0.0233
     11  C20       -2.4810   13.2930   25.9120 C.3   901  552901      0.0233
     12  C19       -3.1980   13.5000   27.2200 C.3   901  552901      0.0935
     13  O17       -4.4580   10.6690   29.0040 O.2   901  552901     -0.2731
     14  C14       -2.9980   13.0930   30.5550 C.3   901  552901      0.0570
     15  C13       -3.2290   12.4590   31.9230 C.2   901  552901     -0.0055
     16  C24       -6.5480   12.2600   30.4680 C.2   901  552901      0.3197
     17  O25       -7.1140   12.4610   29.4170 O.2   901  552901     -0.2632
     18  C08       -7.3280   11.7590   31.6470 C.2   901  552901      0.3347
     19  O07       -8.6380   11.6270   31.2820 O.2   901  552901     -0.4436
     20  C06       -9.5340   11.5230   32.3770 C.3   901  552901      0.2349
     21  C05       -9.9390   12.8310   32.9290 C.ar  901  552901      0.0214
     22  C04       -9.9960   13.9520   32.1430 C.ar  901  552901      0.0016
     23  C03      -10.3840   15.1530   32.6860 C.ar  901  552901      0.0294
     24  C26      -10.2750   12.8990   34.2550 C.ar  901  552901      0.0016
     25  C27      -10.6720   14.0950   34.7990 C.ar  901  552901      0.0294
     26  C02      -10.7170   15.2160   34.0170 C.ar  901  552901      0.1401
     27  F01      -11.1020   16.4030   34.5160 F     901  552901     -0.2042
@<TRIPOS>BOND
     1    10    11    1
     2    10     9    1
     3    11    12    1
     4     9     8    1
     5    12     8    1
     6     8     7   am
     7     7    13    2
     8     7     6    1
     9    17    16    2
    10     6    14    1
    11     6     5    1
    12    16     5   am
    13    16    18    1
    14    14    15    1
    15     5     4    1
    16    19    18    1
    17    19    20    1
    18    18     3    2
    19    15     4    2
    20     4     2    1
    21    22    23   ar
    22    22    21   ar
    23    20    21    1
    24    23    26   ar
    25     3     2    2
    26    21    24   ar
    27     2     1    1
    28    26    27    1
    29    26    25   ar
    30    24    25   ar
