@<TRIPOS>MOLECULE
3ddw_CFF_A_1.pdb
 14 15 0 0 0
SMALL
GASTEIGER

@<TRIPOS>ATOM
      1  N1        93.3210  -54.7880  126.0060 N.am  903  CFF903     -0.1903
      2  C2        93.8590  -55.6350  127.0060 C.2   903  CFF903      0.4044
      3  C10       93.1050  -53.3590  126.3040 C.3   903  CFF903      0.1267
      4  C6        92.9920  -55.3210  124.7260 C.2   903  CFF903      0.2609
      5  N3        94.0720  -56.9390  126.7450 N.am  903  CFF903     -0.1218
      6  O11       94.1430  -55.1710  128.1290 O.2   903  CFF903     -0.2230
      7  C12       94.6120  -57.8650  127.7480 C.3   903  CFF903      0.2626
      8  C4        93.7410  -57.4260  125.4730 C.2   903  CFF903      0.3276
      9  C5        93.2180  -56.6560  124.4850 C.3   903  CFF903      0.2453
     10  N9        93.9060  -58.7350  125.1160 N.2   903  CFF903     -0.0479
     11  O13       92.5210  -54.6190  123.8010 O.2   903  CFF903     -0.2723
     12  N7        93.0050  -57.4520  123.4600 N.3   903  CFF903     -0.2098
     13  C8        93.4210  -58.7030  123.8250 C.3   903  CFF903      0.3428
     14  C14       92.4490  -56.8890  122.2220 C.3   903  CFF903      0.0945
@<TRIPOS>BOND
     1    14    12    1
     2    12    13    1
     3    12     9    1
     4    11     4    2
     5    13    10    1
     6     9     4    1
     7     9     8    1
     8     4     1   am
     9    10     8    2
    10     8     5    1
    11     1     3    1
    12     1     2   am
    13     5     2   am
    14     5     7    1
    15     2     6    2
