@<TRIPOS>MOLECULE
3ddw_PLP_A_1.pdb
 15 15 0 0 0
SMALL
GASTEIGER

@<TRIPOS>ATOM
      1  N1       102.1290  -70.3860  127.3510 N.ar  902  PLP902     -0.2452
      2  C2       102.7800  -71.5880  127.1860 C.ar  902  PLP902      0.0978
      3  C2A      103.1800  -72.0330  125.8000 C.3   902  PLP902      0.0555
      4  C3       103.0680  -72.3730  128.2910 C.ar  902  PLP902      0.2049
      5  O3       103.7140  -73.5720  128.1260 O.3   902  PLP902     -0.2857
      6  C4       102.7070  -71.9360  129.5880 C.ar  902  PLP902      0.0182
      7  C4A      103.0340  -72.8190  130.7480 C.3   902  PLP902      0.0342
      8  C5       102.0380  -70.7130  129.7440 C.ar  902  PLP902      0.0261
      9  C6       101.7540  -69.9510  128.6140 C.ar  902  PLP902      0.0965
     10  C5A      101.6200  -70.1400  131.0960 C.3   902  PLP902      0.1815
     11  O4P      102.7110  -69.3320  131.5160 O.3   902  PLP902     -0.2653
     12  P        102.5780  -68.2050  132.6910 P.3   902  PLP902      0.5329
     13  O1P      103.9660  -67.6440  132.8620 O.3   902  PLP902     -0.1145
     14  O2P      102.1800  -68.9060  133.9520 O.3   902  PLP902     -0.1145
     15  O3P      101.6000  -67.1910  132.2120 O.2   902  PLP902     -0.2224
@<TRIPOS>BOND
     1     3     2    1
     2     2     1   ar
     3     2     4   ar
     4     1     9   ar
     5     5     4    1
     6     4     6   ar
     7     9     8   ar
     8     6     8   ar
     9     6     7    1
    10     8    10    1
    11    10    11    1
    12    11    12    1
    13    15    12    2
    14    12    13    1
    15    12    14    1
