@<TRIPOS>MOLECULE
3ddw_NBG_A_1.pdb
 15 15 0 0 0
SMALL
GASTEIGER

@<TRIPOS>ATOM
      1  C1        94.8970  -67.5540  133.7440 C.3   901  NBG901      0.2446
      2  C2        95.6930  -66.7800  134.8050 C.3   901  NBG901      0.2326
      3  C3        96.9190  -67.5530  135.3210 C.3   901  NBG901      0.2190
      4  C4        96.5660  -68.9880  135.6980 C.3   901  NBG901      0.2144
      5  C5        95.8020  -69.6690  134.5560 C.3   901  NBG901      0.1828
      6  C6        95.3690  -71.0860  134.9370 C.3   901  NBG901      0.2142
      7  C7        92.9680  -66.8120  132.3620 C.2   901  NBG901      0.2440
      8  C8        91.6190  -66.1400  132.4230 C.3   901  NBG901      0.0965
      9  N1        93.6100  -66.8940  133.5350 N.am  901  NBG901     -0.1751
     10  O3        97.4840  -66.9160  136.4580 O.3   901  NBG901     -0.2174
     11  O2        96.0910  -65.5390  134.2270 O.3   901  NBG901     -0.2157
     12  O4        97.7440  -69.7410  135.9890 O.3   901  NBG901     -0.2176
     13  O5        94.6540  -68.9040  134.1650 O.3   901  NBG901     -0.3315
     14  O6        94.7730  -71.1390  136.2250 O.3   901  NBG901     -0.2176
     15  O7        93.4280  -67.2480  131.3130 O.2   901  NBG901     -0.2733
@<TRIPOS>BOND
     1    15     7    2
     2     7     8    1
     3     7     9   am
     4     9     1    1
     5     1    13    1
     6     1     2    1
     7    13     5    1
     8    11     2    1
     9     5     6    1
    10     5     4    1
    11     2     3    1
    12     6    14    1
    13     3     4    1
    14     3    10    1
    15     4    12    1
