@<TRIPOS>MOLECULE
3ddw_055_A_1.pdb
 35 38 0 0 0
SMALL
GASTEIGER

@<TRIPOS>ATOM
      1 CL1        83.2230  -95.6760  120.6890 Cl    905  055905     -0.0809
      2  C30       84.7820  -95.2710  121.4370 C.ar  905  055905      0.0727
      3  C29       84.8480  -94.0120  122.0370 C.ar  905  055905      0.0127
      4  C28       86.0110  -93.6110  122.6500 C.ar  905  055905      0.0006
      5  C27       87.1050  -94.4700  122.6580 C.ar  905  055905     -0.0029
      6  C26       87.0350  -95.7280  122.0580 C.ar  905  055905     -0.0056
      7  C31       88.2550  -96.6150  122.1070 C.3   905  055905      0.0324
      8  C25       85.8730  -96.1480  121.3990 C.ar  905  055905      0.0815
      9  N24       85.7730  -97.4560  120.9930 N.am  905  055905     -0.1601
     10  C23       85.0870  -98.3930  121.6880 C.2   905  055905      0.3478
     11  O33       85.3220  -99.5680  121.3800 O.2   905  055905     -0.2484
     12  N22       84.2740  -98.1120  122.7100 N.am  905  055905     -0.1605
     13  C5        83.7300  -99.0190  123.6070 C.ar  905  055905      0.0794
     14  C6        84.0650 -100.3760  123.6950 C.ar  905  055905      0.0168
     15  C1        83.4090 -101.2300  124.5960 C.ar  905  055905      0.0013
     16  C7        83.7610 -102.5740  124.6630 C.ar  905  055905      0.0000
     17  C8        83.1070 -103.4150  125.5570 C.ar  905  055905      0.0000
     18  C9        82.0920 -102.9080  126.3810 C.ar  905  055905      0.0000
     19  C2        82.4040 -100.7360  125.4160 C.ar  905  055905      0.0002
     20  C10       81.7350 -101.5690  126.3170 C.ar  905  055905      0.0000
     21  C3        82.0620  -99.3960  125.3430 C.ar  905  055905      0.0059
     22  C4        82.7250  -98.5430  124.4480 C.ar  905  055905      0.0704
     23  C11       82.3240  -97.1050  124.3620 C.2   905  055905      0.2668
     24  O14       83.1360  -96.2340  124.0990 O.2   905  055905     -0.2683
     25  N12       81.0440  -96.7860  124.5130 N.am  905  055905     -0.1872
     26  C13       80.5720  -95.4090  124.4020 C.3   905  055905      0.2203
     27  C16       81.1190  -94.5620  125.5240 C.2   905  055905      0.3884
     28  O21       81.4950  -93.4030  125.2710 O.co2 905  055905     -0.2434
     29  O20       81.1720  -95.0480  126.6770 O.co2 905  055905     -0.2434
     30  C46       79.0450  -95.4800  124.4740 C.ar  905  055905      0.0083
     31  C47       78.3530  -94.1840  124.9160 C.ar  905  055905     -0.0021
     32  C48       76.9750  -93.8130  124.3870 C.ar  905  055905     -0.0003
     33  C49       76.3440  -94.6390  123.2830 C.ar  905  055905     -0.0000
     34  C50       77.0590  -95.8750  122.7670 C.ar  905  055905     -0.0003
     35  C51       78.4320  -96.2550  123.2990 C.ar  905  055905     -0.0021
@<TRIPOS>BOND
     1     1     2    1
     2     9     8    1
     3     9    10   am
     4    11    10    2
     5     8     2   ar
     6     8     6   ar
     7     2     3   ar
     8    10    12   am
     9     3     4   ar
    10     6     7    1
    11     6     5   ar
    12     4     5   ar
    13    12    13    1
    14    34    33   ar
    15    34    35   ar
    16    33    32   ar
    17    35    30   ar
    18    13    14   ar
    19    13    22   ar
    20    14    15   ar
    21    24    23    2
    22    23    22    1
    23    23    25   am
    24    32    31   ar
    25    26    30    1
    26    26    25    1
    27    26    27    1
    28    22    21   ar
    29    30    31   ar
    30    15    16   ar
    31    15    19   ar
    32    16    17   ar
    33    28    27   ar
    34    21    19   ar
    35    19    20   ar
    36    27    29   ar
    37    17    18   ar
    38    20    18   ar
