@<TRIPOS>MOLECULE
3ddy_RBF_A_1.pdb
 27 29 0 0 0
SMALL
GASTEIGER

@<TRIPOS>ATOM
      1  N1        32.9660  -26.9560  -12.8730 N.2   187  RBF187     -0.2890
      2  C2        31.9360  -26.0930  -13.1670 C.1   187  RBF187      0.3669
      3  O2        30.8030  -26.5910  -13.3110 O.2   187  RBF187     -0.1744
      4  N3        32.1300  -24.7560  -13.2840 N.2   187  RBF187     -0.2300
      5  C4        33.3230  -24.1610  -13.1570 C.1   187  RBF187      0.2513
      6  O4        33.4670  -22.9350  -13.2680 O.2   187  RBF187     -0.2057
      7  C4A       34.5050  -25.0200  -12.8400 C.2   187  RBF187      0.2700
      8  N5        35.7450  -24.4920  -12.6990 N.2   187  RBF187     -0.3878
      9  C5A       36.8310  -25.2940  -12.4130 C.2   187  RBF187      0.1320
     10  C6        38.0900  -24.7000  -12.2750 C.2   187  RBF187      0.0250
     11  C7        39.2390  -25.4940  -11.9760 C.2   187  RBF187     -0.0238
     12  C7M       40.5890  -24.8040  -11.8380 C.3   187  RBF187      0.0308
     13  C8        39.0780  -26.9870  -11.8250 C.2   187  RBF187     -0.0280
     14  C8M       40.2900  -27.8580  -11.5150 C.3   187  RBF187      0.0304
     15  C9        37.8060  -27.6020  -11.9570 C.2   187  RBF187     -0.0041
     16  C9A       36.6620  -26.7910  -12.2480 C.3   187  RBF187      0.1497
     17  N10       35.3380  -27.3810  -12.4080 N.pl3 187  RBF187     -0.2691
     18  C10       34.2370  -26.4890  -12.7080 C.2   187  RBF187      0.2416
     19  C1'       35.0760  -28.8440  -12.2150 C.3   187  RBF187      0.1294
     20  C2'       34.4350  -29.0850  -10.8100 C.3   187  RBF187      0.2044
     21  O2'       35.0400  -28.1160   -9.9890 O.3   187  RBF187     -0.2185
     22  C3'       34.6860  -30.4650  -10.1460 C.3   187  RBF187      0.2166
     23  O3'       36.0840  -30.6660   -9.8970 O.3   187  RBF187     -0.2175
     24  C4'       34.0390  -31.6340  -10.9580 C.3   187  RBF187      0.2175
     25  O4'       33.2200  -31.1380  -12.0260 O.3   187  RBF187     -0.2175
     26  C5'       33.1780  -32.5390  -10.0830 C.3   187  RBF187      0.2175
     27  O5'       32.6080  -33.5960  -10.8510 O.3   187  RBF187     -0.2175
@<TRIPOS>BOND
     1     3     2    2
     2     4     2    2
     3     4     5    2
     4     6     5    2
     5     2     1    2
     6     5     7    1
     7     1    18    2
     8     7    18    1
     9     7     8    2
    10    18    17    1
    11     8     9    2
    12     9    10    1
    13     9    16    1
    14    17    16    1
    15    17    19    1
    16    10    11    2
    17    16    15    1
    18    19    20    1
    19    25    24    1
    20    11    12    1
    21    11    13    1
    22    15    13    2
    23    13    14    1
    24    24    22    1
    25    24    26    1
    26    27    26    1
    27    20    22    1
    28    20    21    1
    29    22    23    1
