@<TRIPOS>MOLECULE
3de8_HEM_A_1.pdb
 43 50 0 0 0
SMALL
GASTEIGER

@<TRIPOS>ATOM
      1 FE         -0.9280    5.0620    1.9650 Fe    150  HEM150      0.0000
      2  CHA       -3.0120    7.5530    3.0240 C.2   150  HEM150      0.0000
      3  CHB        1.7850    7.1200    2.4220 C.2   150  HEM150      0.0000
      4  CHC        1.2000    2.5790    0.9040 C.2   150  HEM150      0.0000
      5  CHD       -3.6070    2.9830    1.3020 C.2   150  HEM150      0.0000
      6  NA        -0.6700    6.9880    2.5460 N.2   150  HEM150      0.0000
      7  C1A       -1.6600    7.8240    3.0290 C.2   150  HEM150      0.0000
      8  C2A       -1.0280    9.0300    3.5650 C.2   150  HEM150      0.0000
      9  C3A        0.2930    8.8930    3.3910 C.2   150  HEM150      0.0000
     10  C4A        0.5450    7.6120    2.7560 C.2   150  HEM150      0.0000
     11  CMA        1.3980    9.9010    3.7920 C.3   150  HEM150      0.0000
     12  CAA       -1.7630   10.2370    4.2300 C.3   150  HEM150      0.0000
     13  CBA       -1.6200   11.5310    3.4220 C.3   150  HEM150      0.0000
     14  CGA       -2.6690   11.5080    2.3430 C.2   150  HEM150      0.0000
     15  O1A       -2.3700   11.9220    1.1940 O.co2 150  HEM150      0.0000
     16  O2A       -3.8000   11.0350    2.6300 O.co2 150  HEM150      0.0000
     17  NB         1.0790    4.8800    1.7230 N.ar  150  HEM150      0.0000
     18  C1B        2.0320    5.8450    1.9770 C.ar  150  HEM150      0.0000
     19  C2B        3.3290    5.2930    1.6630 C.ar  150  HEM150      0.0000
     20  C3B        3.1650    4.0530    1.2490 C.ar  150  HEM150      0.0000
     21  C4B        1.7510    3.7670    1.2800 C.ar  150  HEM150      0.0000
     22  CMB        4.6720    6.0500    1.7970 C.3   150  HEM150      0.0000
     23  CAB        4.2610    3.0540    0.8020 C.2   150  HEM150      0.0000
     24  CBB        5.4380    2.9560    1.4550 C.2   150  HEM150      0.0000
     25  NC        -1.1540    3.1670    1.2700 N.2   150  HEM150      0.0000
     26  C1C       -0.1430    2.3310    0.8450 C.2   150  HEM150      0.0000
     27  C2C       -0.7060    1.0840    0.3990 C.2   150  HEM150      0.0000
     28  C3C       -2.0440    1.1740    0.5260 C.2   150  HEM150      0.0000
     29  C4C       -2.3520    2.4960    1.0400 C.2   150  HEM150      0.0000
     30  CMC        0.1370   -0.1060   -0.1260 C.3   150  HEM150      0.0000
     31  CAC       -3.0940    0.0930    0.1680 C.2   150  HEM150      0.0000
     32  CBC       -2.7480   -1.2090    0.0860 C.2   150  HEM150      0.0000
     33  ND        -2.9760    5.2310    2.1320 N.ar  150  HEM150      0.0000
     34  C1D       -3.8860    4.2320    1.8080 C.ar  150  HEM150      0.0000
     35  C2D       -5.2190    4.7140    2.1220 C.ar  150  HEM150      0.0000
     36  C3D       -5.0250    6.1210    2.6520 C.ar  150  HEM150      0.0000
     37  C4D       -3.6070    6.3790    2.6120 C.ar  150  HEM150      0.0000
     38  CMD       -6.5450    3.9650    1.9480 C.3   150  HEM150      0.0000
     39  CAD       -6.1540    7.0520    3.1350 C.3   150  HEM150      0.0000
     40  CBD       -6.2480    6.8580    4.6430 C.3   150  HEM150      0.0000
     41  CGD       -7.2920    7.7360    5.2740 C.2   150  HEM150      0.0000
     42  O1D       -7.5140    7.5450    6.5010 O.co2 150  HEM150      0.0000
     43  O2D       -7.8660    8.6090    4.5550 O.co2 150  HEM150      0.0000
@<TRIPOS>BOND
     1    30    27    1
     2    32    31    2
     3    31    28    1
     4    27    28    2
     5    27    26    1
     6    28    29    1
     7    23    20    1
     8    23    24    2
     9    26     4    2
    10    26    25    1
    11     4    21    1
    12    29    25    2
    13    29     5    1
    14    15    14   ar
    15    20    21   ar
    16    20    19   ar
    17    25     1    1
    18    21    17   ar
    19     5    34    2
    20    19    22    1
    21    19    18   ar
    22    17     1    1
    23    17    18   ar
    24    34    35   ar
    25    34    33   ar
    26    38    35    1
    27     1    33    1
    28     1     6    1
    29    18     3    1
    30    35    36   ar
    31    33    37   ar
    32    14    16   ar
    33    14    13    1
    34     3    10    2
    35     6    10    1
    36     6     7    2
    37    37    36   ar
    38    37     2    2
    39    36    39    1
    40    10     9    1
    41     2     7    1
    42     7     8    1
    43    39    40    1
    44     9     8    2
    45     9    11    1
    46    13    12    1
    47     8    12    1
    48    43    41   ar
    49    40    41    1
    50    41    42   ar
