@<TRIPOS>MOLECULE
3de9_HEM_A_1.pdb
 43 50 0 0 0
SMALL
GASTEIGER

@<TRIPOS>ATOM
      1 FE          0.6500  -10.8270   -5.0170 Fe    150  HEM150      0.0000
      2  CHA       -0.3390   -8.1920   -6.7990 C.2   150  HEM150      0.0000
      3  CHB        1.4450   -8.8340   -2.3400 C.2   150  HEM150      0.0000
      4  CHC        1.7290  -13.6000   -3.3750 C.2   150  HEM150      0.0000
      5  CHD        0.0250  -12.9490   -7.8650 C.2   150  HEM150      0.0000
      6  NA         0.6140   -8.8300   -4.6340 N.2   150  HEM150      0.0000
      7  C1A        0.1120   -7.9320   -5.5190 C.2   150  HEM150      0.0000
      8  C2A        0.1320   -6.6520   -4.8750 C.2   150  HEM150      0.0000
      9  C3A        0.6180   -6.8150   -3.6330 C.2   150  HEM150      0.0000
     10  C4A        0.9430   -8.2090   -3.4610 C.2   150  HEM150      0.0000
     11  CMA        0.8240   -5.7350   -2.5470 C.3   150  HEM150      0.0000
     12  CAA       -0.3710   -5.3240   -5.5170 C.3   150  HEM150      0.0000
     13  CBA       -1.7790   -5.0860   -4.9390 C.3   150  HEM150      0.0000
     14  CGA       -2.3480   -3.7450   -5.3410 C.2   150  HEM150      0.0000
     15  O1A       -3.0850   -3.7160   -6.3760 O.co2 150  HEM150      0.0000
     16  O2A       -2.0640   -2.7200   -4.6290 O.co2 150  HEM150      0.0000
     17  NB         1.4400  -11.1610   -3.1880 N.ar  150  HEM150      0.0000
     18  C1B        1.7230  -10.1910   -2.2520 C.ar  150  HEM150      0.0000
     19  C2B        2.3890  -10.8220   -1.1640 C.ar  150  HEM150      0.0000
     20  C3B        2.4750  -12.1240   -1.4460 C.ar  150  HEM150      0.0000
     21  C4B        1.8540  -12.3670   -2.7460 C.ar  150  HEM150      0.0000
     22  CMB        2.9440  -10.1090    0.1100 C.3   150  HEM150      0.0000
     23  CAB        3.1720  -13.1660   -0.5350 C.2   150  HEM150      0.0000
     24  CBB        2.7410  -13.2630    0.7350 C.2   150  HEM150      0.0000
     25  NC         0.8190  -12.9330   -5.5310 N.2   150  HEM150      0.0000
     26  C1C        1.3280  -13.8740   -4.6380 C.2   150  HEM150      0.0000
     27  C2C        1.3450  -15.1330   -5.3330 C.2   150  HEM150      0.0000
     28  C3C        0.8470  -14.9390   -6.5790 C.2   150  HEM150      0.0000
     29  C4C        0.5320  -13.5520   -6.7270 C.2   150  HEM150      0.0000
     30  CMC        1.8450  -16.4610   -4.7590 C.3   150  HEM150      0.0000
     31  CAC        0.7180  -15.9390   -7.7570 C.2   150  HEM150      0.0000
     32  CBC        0.4380  -17.2190   -7.4940 C.2   150  HEM150      0.0000
     33  ND        -0.0340  -10.6470   -7.0310 N.ar  150  HEM150      0.0000
     34  C1D       -0.2570  -11.6130   -7.9990 C.ar  150  HEM150      0.0000
     35  C2D       -0.8590  -10.9790   -9.1550 C.ar  150  HEM150      0.0000
     36  C3D       -0.9860   -9.5100   -8.8030 C.ar  150  HEM150      0.0000
     37  C4D       -0.4150   -9.3840   -7.4780 C.ar  150  HEM150      0.0000
     38  CMD       -1.2980  -11.5930  -10.4900 C.3   150  HEM150      0.0000
     39  CAD       -1.5380   -8.3920   -9.7240 C.3   150  HEM150      0.0000
     40  CBD       -3.0430   -8.5280   -9.9270 C.3   150  HEM150      0.0000
     41  CGD       -3.5650   -7.4350  -10.7950 C.2   150  HEM150      0.0000
     42  O1D       -4.6860   -6.9770  -10.4830 O.co2 150  HEM150      0.0000
     43  O2D       -2.8770   -7.0120  -11.7730 O.co2 150  HEM150      0.0000
@<TRIPOS>BOND
     1    43    41   ar
     2    41    42   ar
     3    41    40    1
     4    38    35    1
     5    40    39    1
     6    39    36    1
     7    35    36   ar
     8    35    34   ar
     9    36    37   ar
    10    34     5    2
    11    34    33   ar
    12     5    29    1
    13    31    32    2
    14    31    28    1
    15    37    33   ar
    16    37     2    2
    17    33     1    1
    18     2     7    1
    19    29    28    1
    20    29    25    2
    21    28    27    2
    22    15    14   ar
    23    25     1    1
    24    25    26    1
    25     7     8    1
    26     7     6    2
    27    12    13    1
    28    12     8    1
    29    14    13    1
    30    14    16   ar
    31    27    30    1
    32    27    26    1
    33     1     6    1
    34     1    17    1
    35     8     9    2
    36    26     4    2
    37     6    10    1
    38     9    10    1
    39     9    11    1
    40    10     3    2
    41     4    21    1
    42    17    21   ar
    43    17    18   ar
    44    21    20   ar
    45     3    18    1
    46    18    19   ar
    47    20    19   ar
    48    20    23    1
    49    19    22    1
    50    23    24    2
