@<TRIPOS>MOLECULE
3dea_HZH_A_1.pdb
 16 16 0 0 0
SMALL
GASTEIGER

@<TRIPOS>ATOM
      1  F2        10.5120   24.1290   31.8820 F     401  HZH401     -0.1673
      2  C11       10.0640   25.1580   31.1950 C.3   401  HZH401      0.4261
      3  F1        10.8230   25.1410   30.1120 F     401  HZH401     -0.1673
      4  F3        10.1740   26.2960   31.8930 F     401  HZH401     -0.1673
      5  C10        8.5920   24.9560   30.7810 C.3   401  HZH401      0.2567
      6  O1         8.2650   25.8570   29.7110 O.3   401  HZH401     -0.2130
      7  C9         7.5520   25.0890   31.9000 C.3   401  HZH401      0.0993
      8  S          7.5260   23.7190   33.0210 S.3   401  HZH401     -0.1369
      9  C8         8.3070   24.5760   34.3710 C.3   401  HZH401      0.0623
     10  C7         7.5280   24.6960   35.6870 C.3   401  HZH401      0.0380
     11  C6         8.2020   23.8780   36.7930 C.ar  401  HZH401     -0.0213
     12  C4         9.3700   23.1280   36.5610 C.ar  401  HZH401     -0.0042
     13  C2         9.9580   22.3680   37.5910 C.ar  401  HZH401     -0.0003
     14  C1         9.3930   22.3380   38.8760 C.ar  401  HZH401     -0.0000
     15  C3         8.2260   23.0770   39.1240 C.ar  401  HZH401     -0.0003
     16  C5         7.6400   23.8370   38.0860 C.ar  401  HZH401     -0.0042
@<TRIPOS>BOND
     1     6     5    1
     2     3     2    1
     3     5     2    1
     4     5     7    1
     5     2     1    1
     6     2     4    1
     7     7     8    1
     8     8     9    1
     9     9    10    1
    10    10    11    1
    11    12    11   ar
    12    12    13   ar
    13    11    16   ar
    14    13    14   ar
    15    16    15   ar
    16    14    15   ar
