@<TRIPOS>MOLECULE
3def_GDP_A_1.pdb
 28 30 0 0 0
SMALL
GASTEIGER

@<TRIPOS>ATOM
      1  PB       -32.8360   18.0310   -2.6150 P.3   281  GDP281      0.5373
      2  O1B      -31.4550   18.2170   -3.1460 O.3   281  GDP281     -0.1143
      3  O2B      -33.8660   19.0030   -3.2470 O.2   281  GDP281     -0.2221
      4  O3B      -32.8460   18.2140   -1.1580 O.3   281  GDP281     -0.1143
      5  O3A      -33.1930   16.4950   -3.0610 O.3   281  GDP281     -0.2261
      6  PA       -34.1100   15.4260   -2.2750 P.3   281  GDP281      0.2231
      7  O1A      -35.3980   16.0670   -1.7690 O.2   281  GDP281     -0.5169
      8  O2A      -33.3160   14.6800   -1.2370 O.3   281  GDP281     -0.4370
      9  O5'      -34.3370   14.3490   -3.4070 O.3   281  GDP281     -0.3111
     10  C5'      -34.9620   14.7590   -4.6190 C.3   281  GDP281      0.1813
     11  C4'      -35.4960   13.5180   -5.3140 C.3   281  GDP281      0.1799
     12  O4'      -34.4250   12.6750   -5.7670 O.3   281  GDP281     -0.3326
     13  C3'      -36.3240   12.6930   -4.3540 C.3   281  GDP281      0.2158
     14  O3'      -37.4530   12.2090   -5.0590 O.3   281  GDP281     -0.2175
     15  C2'      -35.4110   11.5970   -3.8910 C.3   281  GDP281      0.2310
     16  O2'      -36.0560   10.3520   -3.5270 O.3   281  GDP281     -0.2158
     17  C1'      -34.5420   11.4130   -5.1240 C.3   281  GDP281      0.2293
     18  N9       -33.1900   11.0190   -4.7760 N.pl3 281  GDP281     -0.2354
     19  C8       -32.3680   11.7100   -3.9490 C.3   281  GDP281      0.2246
     20  N7       -31.1280   11.1300   -3.9030 N.2   281  GDP281     -0.2322
     21  C5       -31.1640   10.0410   -4.7160 C.2   281  GDP281      0.2182
     22  C6       -30.2400    8.9800   -5.0870 C.1   281  GDP281      0.2372
     23  O6       -29.0650    8.8780   -4.6000 O.2   281  GDP281     -0.2069
     24  N1       -30.7280    8.0440   -5.9490 N.2   281  GDP281     -0.2485
     25  C2       -31.9830    8.0630   -6.4450 C.1   281  GDP281      0.2531
     26  N2       -32.3410    7.1120   -7.3190 N.pl3 281  GDP281     -0.0226
     27  N3       -32.8710    9.0180   -6.1560 N.2   281  GDP281     -0.3074
     28  C4       -32.5380    9.9720   -5.2610 C.2   281  GDP281      0.2300
@<TRIPOS>BOND
     1    26    25    1
     2    25    27    2
     3    25    24    2
     4    27    28    2
     5    24    22    2
     6    12    11    1
     7    12    17    1
     8    11    10    1
     9    11    13    1
    10    28    18    1
    11    28    21    1
    12    17    18    1
    13    17    15    1
    14    22    21    1
    15    22    23    2
    16    14    13    1
    17    18    19    1
    18    21    20    2
    19    10     9    1
    20    13    15    1
    21    19    20    1
    22    15    16    1
    23     9     6    1
    24     3     1    2
    25     2     1    1
    26     5     1    1
    27     5     6    1
    28     1     4    1
    29     6     7    2
    30     6     8    1
