@<TRIPOS>MOLECULE
3deh_RXA_C_1.pdb
 13 14 0 0 0
SMALL
GASTEIGER

@<TRIPOS>ATOM
      1  OAA      -51.0150   13.8180  -21.5490 O.2   300  RXA300     -0.2053
      2  CAI      -49.7810   14.0000  -21.3480 C.1   300  RXA300      0.2549
      3  NAH      -49.1320   13.5330  -20.2410 N.2   300  RXA300     -0.2548
      4  CAK      -49.0880   14.7050  -22.3190 C.2   300  RXA300      0.2901
      5  OAC      -49.7450   15.0930  -23.3120 O.2   300  RXA300     -0.2728
      6  CAM      -47.7100   14.9390  -22.1690 C.ar  300  RXA300      0.0634
      7  CAL      -47.0500   14.4550  -21.0250 C.ar  300  RXA300      0.0993
      8  CAF      -45.6690   14.6930  -20.8630 C.ar  300  RXA300      0.0128
      9  CAJ      -47.7900   13.7460  -20.0420 C.1   300  RXA300      0.2152
     10  OAB      -47.2120   13.3050  -18.9860 O.2   300  RXA300     -0.2086
     11  CAG      -46.9860   15.6340  -23.1470 C.ar  300  RXA300      0.0047
     12  CAE      -45.6070   15.8740  -22.9950 C.ar  300  RXA300      0.0002
     13  CAD      -44.9440   15.4090  -21.8430 C.ar  300  RXA300      0.0008
@<TRIPOS>BOND
     1     5     4    2
     2    11    12   ar
     3    11     6   ar
     4    12    13   ar
     5     4     6    1
     6     4     2    1
     7     6     7   ar
     8    13     8   ar
     9     1     2    2
    10     2     3    2
    11     7     8   ar
    12     7     9    1
    13     3     9    2
    14     9    10    2
