@<TRIPOS>MOLECULE
3dei_RXB_C_1.pdb
 27 29 0 0 0
SMALL
GASTEIGER

@<TRIPOS>ATOM
      1  OAE      -51.4730   12.6460  -19.3440 O.2   300  RXB300     -0.2086
      2  CAW      -50.3280   13.1540  -19.6610 C.1   300  RXB300      0.2153
      3  NAP      -49.2350   13.0180  -18.8390 N.2   300  RXB300     -0.2548
      4  CAV      -47.9970   13.5380  -19.1210 C.1   300  RXB300      0.2550
      5  OAD      -47.0160   13.3870  -18.3430 O.2   300  RXB300     -0.2053
      6  CAY      -50.1450   13.8720  -20.8510 C.ar  300  RXB300      0.1005
      7  CAZ      -48.8680   14.4250  -21.1760 C.ar  300  RXB300      0.0787
      8  CAX      -47.7780   14.2460  -20.2810 C.2   300  RXB300      0.2913
      9  OAF      -46.5900   14.6840  -20.4330 O.2   300  RXB300     -0.2727
     10  CAN      -51.2680   14.0090  -21.6710 C.ar  300  RXB300      0.0129
     11  CAJ      -51.1030   14.7230  -22.8340 C.ar  300  RXB300      0.0021
     12  CAM      -49.8550   15.2700  -23.1840 C.ar  300  RXB300      0.0168
     13  CAU      -48.7140   15.1430  -22.3820 C.ar  300  RXB300      0.0780
     14  NAO      -47.5130   15.7020  -22.8000 N.am  300  RXB300     -0.1757
     15  CAS      -46.4380   14.9050  -23.0100 C.2   300  RXB300      0.2903
     16  OAC      -46.3770   13.7820  -22.4970 O.2   300  RXB300     -0.2687
     17  CBA      -45.1880   15.2740  -23.7960 C.3   300  RXB300      0.2682
     18  OAQ      -45.4510   16.1750  -24.9040 O.3   300  RXB300     -0.4380
     19  CAR      -44.6810   17.4230  -25.2420 C.2   300  RXB300      0.3182
     20  OAB      -44.7680   17.8270  -26.4210 O.2   300  RXB300     -0.2501
     21  CAA      -43.8460   18.2470  -24.2690 C.3   300  RXB300      0.1212
     22  CAT      -44.1300   15.5230  -22.7350 C.ar  300  RXB300      0.0263
     23  CAL      -42.7440   15.5290  -23.0350 C.ar  300  RXB300     -0.0003
     24  CAI      -41.7660   15.7090  -22.0300 C.ar  300  RXB300     -0.0002
     25  CAG      -42.1890   15.8490  -20.6990 C.ar  300  RXB300     -0.0000
     26  CAH      -43.5640   15.8190  -20.3880 C.ar  300  RXB300     -0.0002
     27  CAK      -44.5220   15.6610  -21.3900 C.ar  300  RXB300     -0.0003
@<TRIPOS>BOND
     1    20    19    2
     2    19    18    1
     3    19    21    1
     4    18    17    1
     5    17    15    1
     6    17    22    1
     7    12    11   ar
     8    12    13   ar
     9    23    22   ar
    10    23    24   ar
    11    15    14   am
    12    15    16    2
    13    11    10   ar
    14    14    13    1
    15    22    27   ar
    16    13     7   ar
    17    24    25   ar
    18    10     6   ar
    19    27    26   ar
    20     7     6   ar
    21     7     8    1
    22     6     2    1
    23    25    26   ar
    24     9     8    2
    25     8     4    1
    26     2     1    2
    27     2     3    2
    28     4     3    2
    29     4     5    2
