@<TRIPOS>MOLECULE
3dej_RXC_C_1.pdb
 28 30 0 0 0
SMALL
GASTEIGER

@<TRIPOS>ATOM
      1  OAE      -50.9490   13.0910  -19.2630 O.2   300  RXC300     -0.2086
      2  CAX      -49.7540   13.4250  -19.5780 C.1   300  RXC300      0.2146
      3  NAP      -48.6980   13.2930  -18.7070 N.2   300  RXC300     -0.2590
      4  CAW      -47.4140   13.6310  -19.0110 C.1   300  RXC300      0.2258
      5  OAD      -46.4800   13.4980  -18.1760 O.2   300  RXC300     -0.2105
      6  CAZ      -49.5140   13.9360  -20.8490 C.ar  300  RXC300      0.0962
      7  CBA      -48.1810   14.2910  -21.1750 C.ar  300  RXC300      0.0520
      8  CAY      -47.1130   14.1430  -20.2670 C.3   300  RXC300      0.2930
      9  OAF      -45.8950   14.4680  -20.5530 O.3   300  RXC300     -0.1987
     10  CAM      -50.5960   14.0840  -21.7600 C.ar  300  RXC300      0.0126
     11  CAI      -50.2960   14.6060  -23.0230 C.ar  300  RXC300      0.0021
     12  CAL      -48.9590   14.9740  -23.3370 C.ar  300  RXC300      0.0164
     13  CAV      -47.8990   14.8160  -22.4190 C.ar  300  RXC300      0.0737
     14  NAO      -46.5770   15.1350  -22.6490 N.am  300  RXC300     -0.1761
     15  CAS      -46.0880   15.5820  -23.8120 C.2   300  RXC300      0.2903
     16  OAC      -46.7480   15.7330  -24.8520 O.2   300  RXC300     -0.2687
     17  CBB      -44.5990   15.7600  -23.9040 C.3   300  RXC300      0.2683
     18  OAQ      -44.2910   16.9300  -24.6890 O.3   300  RXC300     -0.4380
     19  CAR      -44.2170   16.5800  -26.1040 C.2   300  RXC300      0.3182
     20  OAB      -44.2740   17.5180  -26.9100 O.2   300  RXC300     -0.2501
     21  CAA      -44.0810   15.1180  -26.5070 C.3   300  RXC300      0.1212
     22  CAU      -43.8330   15.8400  -22.6260 C.ar  300  RXC300      0.0272
     23  CAK      -43.7960   17.0170  -21.8740 C.ar  300  RXC300     -0.0003
     24  CAH      -43.0000   17.0270  -20.7100 C.ar  300  RXC300      0.0007
     25  CAJ      -42.2450   15.9020  -20.3180 C.ar  300  RXC300      0.0114
     26  CAT      -42.2740   14.7480  -21.0920 C.ar  300  RXC300      0.0575
     27 CLAG      -41.3220   13.2660  -20.6360 Cl    300  RXC300     -0.0823
     28  CAN      -43.0630   14.7280  -22.2430 C.ar  300  RXC300      0.0111
@<TRIPOS>BOND
     1    20    19    2
     2    21    19    1
     3    19    18    1
     4    16    15    2
     5    18    17    1
     6    17    15    1
     7    17    22    1
     8    15    14   am
     9    12    11   ar
    10    12    13   ar
    11    11    10   ar
    12    14    13    1
    13    22    28   ar
    14    22    23   ar
    15    13     7   ar
    16    28    26   ar
    17    23    24   ar
    18    10     6   ar
    19     7     6   ar
    20     7     8    1
    21    26    27    1
    22    26    25   ar
    23     6     2    1
    24    24    25   ar
    25     9     8    1
    26     8     4    1
    27     2     1    2
    28     2     3    2
    29     4     3    2
    30     4     5    2
