@<TRIPOS>MOLECULE
3dek_RXD_A_1.pdb
 31 33 0 0 0
SMALL
GASTEIGER

@<TRIPOS>ATOM
      1  FAN      -39.9970    3.1170  -23.4600 F     300  RXD300     -0.2302
      2  CAN      -39.3470    4.3050  -23.7120 C.3   300  RXD300      0.2403
      3  CAO      -40.3840    5.3480  -24.1280 C.3   300  RXD300      0.2434
      4  OAU      -40.7140    6.1770  -22.9990 O.3   300  RXD300     -0.4724
      5  CAZ      -40.9110    7.5450  -23.1120 C.ar  300  RXD300      0.1400
      6  CAI      -41.1830    8.0900  -24.3730 C.ar  300  RXD300      0.0370
      7  CAG      -41.3730    9.4640  -24.5350 C.ar  300  RXD300      0.0044
      8  CAH      -41.2960   10.2890  -23.4120 C.ar  300  RXD300      0.0168
      9  CAL      -40.8450    8.3730  -21.9890 C.ar  300  RXD300      0.0535
     10  CAX      -41.0310    9.7610  -22.1350 C.ar  300  RXD300      0.0764
     11  NAR      -40.9510   10.6090  -21.0610 N.am  300  RXD300     -0.1791
     12  CAV      -41.2500   11.9260  -21.2030 C.2   300  RXD300      0.2461
     13  OAA      -41.3490   12.5330  -22.2740 O.2   300  RXD300     -0.2730
     14  CAP      -41.4680   12.6910  -19.9270 C.3   300  RXD300      0.0968
     15  CAQ      -42.4480   13.8390  -20.1000 C.3   300  RXD300      0.0968
     16  CAW      -42.0800   14.8330  -21.1850 C.2   300  RXD300      0.2461
     17  OAB      -40.9750   15.3680  -21.2260 O.2   300  RXD300     -0.2730
     18  NAS      -43.0300   15.1040  -22.0820 N.am  300  RXD300     -0.1792
     19  CAY      -44.2960   14.4790  -22.0680 C.ar  300  RXD300      0.0735
     20  CAJ      -44.7510   13.9510  -23.2870 C.ar  300  RXD300      0.0174
     21  CAK      -45.9840   13.3120  -23.3530 C.ar  300  RXD300      0.0141
     22  CBD      -46.7580   13.2060  -22.1930 C.ar  300  RXD300      0.0994
     23  CBE      -46.3220   13.7180  -20.9640 C.ar  300  RXD300      0.0647
     24  CBC      -47.1490   13.5770  -19.8420 C.2   300  RXD300      0.2901
     25  OAE      -46.8140   14.0200  -18.7150 O.2   300  RXD300     -0.2728
     26  CAM      -45.0820   14.3590  -20.8940 C.ar  300  RXD300      0.0213
     27  CBB      -47.9800   12.5650  -22.2740 C.1   300  RXD300      0.2152
     28  OAD      -48.3280   12.1180  -23.3880 O.2   300  RXD300     -0.2086
     29  NAT      -48.7760   12.4370  -21.1920 N.2   300  RXD300     -0.2548
     30  CBA      -48.3830   12.9340  -19.9880 C.1   300  RXD300      0.2549
     31  OAC      -49.1250   12.8000  -18.9780 O.2   300  RXD300     -0.2053
@<TRIPOS>BOND
     1     7     6   ar
     2     7     8   ar
     3     6     5   ar
     4     3     2    1
     5     3     4    1
     6     2     1    1
     7     8    10   ar
     8    28    27    2
     9    21    20   ar
    10    21    22   ar
    11    20    19   ar
    12     5     4    1
    13     5     9   ar
    14    27    22    1
    15    27    29    2
    16    13    12    2
    17    22    23   ar
    18    10     9   ar
    19    10    11    1
    20    18    19    1
    21    18    16   am
    22    19    26   ar
    23    17    16    2
    24    12    11   am
    25    12    14    1
    26    29    30    2
    27    16    15    1
    28    23    26   ar
    29    23    24    1
    30    15    14    1
    31    30    24    1
    32    30    31    2
    33    24    25    2
