@<TRIPOS>MOLECULE
3der_LYS_A_1.pdb
 10 9 0 0 0
SMALL
GASTEIGER

@<TRIPOS>ATOM
      1  N         85.8470  -30.5340    5.4810 N.3   412  LYS412     -0.1208
      2  CA        86.3790  -30.2210    6.8020 C.3   412  LYS412      0.1943
      3  C         86.9230  -31.4490    7.5370 C.2   412  LYS412      0.3819
      4  O         87.3850  -32.3890    6.8480 O.co2 412  LYS412     -0.2441
      5  CB        85.3110  -29.5020    7.6400 C.3   412  LYS412      0.0307
      6  CG        84.8700  -28.1830    6.9910 C.3   412  LYS412      0.0036
      7  CD        84.0060  -27.3210    7.8980 C.3   412  LYS412      0.0206
      8  CE        83.6770  -25.9910    7.2140 C.3   412  LYS412      0.1093
      9  NZ        82.9260  -25.0640    8.1010 N.3   412  LYS412     -0.1314
     10  OXT       86.9130  -31.4450    8.7860 O.co2 412  LYS412     -0.2441
@<TRIPOS>BOND
     1     1     2    1
     2     2     3    1
     3     2     5    1
     4     4     3   ar
     5     6     5    1
     6     6     7    1
     7     8     7    1
     8     8     9    1
     9     3    10   ar
