@<TRIPOS>MOLECULE
3des_PHE_A_1.pdb
 12 12 0 0 0
SMALL
GASTEIGER

@<TRIPOS>ATOM
      1  N         86.6780  -30.6090    5.4750 N.3   412  PHE412     -0.1205
      2  CA        87.2550  -30.3450    6.7920 C.3   412  PHE412      0.1986
      3  C         87.7600  -31.5920    7.5170 C.2   412  PHE412      0.3822
      4  O         88.0610  -32.5890    6.8270 O.co2 412  PHE412     -0.2440
      5  CB        86.2550  -29.5790    7.6690 C.3   412  PHE412      0.0569
      6  CG        86.0380  -28.1560    7.2250 C.ar  412  PHE412     -0.0202
      7  CD1       84.9020  -27.7990    6.4970 C.ar  412  PHE412     -0.0042
      8  CD2       86.9980  -27.1800    7.4890 C.ar  412  PHE412     -0.0042
      9  CE1       84.7250  -26.4840    6.0330 C.ar  412  PHE412     -0.0003
     10  CE2       86.8340  -25.8640    7.0310 C.ar  412  PHE412     -0.0003
     11  CZ        85.6930  -25.5180    6.3000 C.ar  412  PHE412     -0.0000
     12  OXT       87.8830  -31.5390    8.7640 O.co2 412  PHE412     -0.2440
@<TRIPOS>BOND
     1     1     2    1
     2     9    11   ar
     3     9     7   ar
     4    11    10   ar
     5     7     6   ar
     6     2     3    1
     7     2     5    1
     8     4     3   ar
     9    10     8   ar
    10     6     8   ar
    11     6     5    1
    12     3    12   ar
