@<TRIPOS>MOLECULE
3df9_DF9_A_1.pdb
 26 29 0 0 0
SMALL
GASTEIGER

@<TRIPOS>ATOM
      1  N6        52.2540   74.6870   17.7600 N.pl3 233  DF9233      0.2177
      2  C6        53.1380   74.9660   18.7570 C.2   233  DF9233      0.4315
      3  N1        52.7080   75.5430   19.9180 N.2   233  DF9233     -0.0278
      4  C2        53.5500   75.8430   20.9200 C.3   233  DF9233      0.3922
      5  N3        54.8640   75.5750   20.8100 N.2   233  DF9233     -0.2171
      6  C5        54.4950   74.6740   18.6100 C.2   233  DF9233      0.1884
      7  C4        55.3350   74.9960   19.6700 C.2   233  DF9233      0.1045
      8  N7        55.2670   74.1270   17.6400 N.2   233  DF9233     -0.2350
      9  C8        56.5540   74.0770   18.0610 C.2   233  DF9233      0.0978
     10  C9        56.6390   74.6290   19.3400 C.2   233  DF9233      0.0321
     11  C10       57.9170   74.7940   20.1410 C.3   233  DF9233      0.1023
     12  N1'       57.9860   73.8240   21.2000 N.3   233  DF9233     -0.2666
     13  C2'       57.5860   74.1650   22.5570 C.3   233  DF9233      0.1057
     14  C3'       58.0990   72.9500   23.3150 C.3   233  DF9233      0.1700
     15  O3'       59.3330   73.2960   23.9290 O.3   233  DF9233     -0.2216
     16  C1'       58.4340   72.4800   20.9150 C.3   233  DF9233      0.0759
     17  C4'       58.4490   71.8760   22.2990 C.3   233  DF9233      0.0586
     18  C5'       57.5180   70.6780   22.3230 C.3   233  DF9233      0.0618
     19  S6'       55.8120   71.0870   22.4910 S.3   233  DF9233     -0.1353
     20  C7'       55.2450   69.9990   23.7420 C.3   233  DF9233      0.0837
     21  C21       55.6610   68.5670   23.4680 C.ar  233  DF9233     -0.0113
     22  C26       56.0080   68.1390   22.1890 C.ar  233  DF9233     -0.0034
     23  C25       56.3950   66.8270   21.9720 C.ar  233  DF9233     -0.0003
     24  C24       56.4220   65.9150   23.0210 C.ar  233  DF9233     -0.0000
     25  C23       56.0810   66.3320   24.3000 C.ar  233  DF9233     -0.0003
     26  C22       55.6940   67.6560   24.5200 C.ar  233  DF9233     -0.0034
@<TRIPOS>BOND
     1     8     9    1
     2     8     6    2
     3     1     2    1
     4     9    10    2
     5     6     2    1
     6     6     7    1
     7     2     3    2
     8    10     7    1
     9    10    11    1
    10     7     5    2
    11     3     4    1
    12    11    12    1
    13     5     4    1
    14    16    12    1
    15    16    17    1
    16    12    13    1
    17    23    22   ar
    18    23    24   ar
    19    22    21   ar
    20    17    18    1
    21    17    14    1
    22    18    19    1
    23    19    20    1
    24    13    14    1
    25    24    25   ar
    26    14    15    1
    27    21    20    1
    28    21    26   ar
    29    25    26   ar
