@<TRIPOS>MOLECULE
3dfc_ANP_B_1.pdb
 31 33 0 0 0
SMALL
GASTEIGER

@<TRIPOS>ATOM
      1  PG        16.2770   -1.5670   12.8790 P.3   296  ANP296      0.4884
      2  O1G       15.9960   -3.0420   13.1760 O.3   296  ANP296     -0.1240
      3  O2G       17.5880   -1.0800   13.4560 O.3   296  ANP296     -0.1240
      4  O3G       15.0840   -0.6560   13.0760 O.2   296  ANP296     -0.2331
      5  PB        17.8490   -1.9840   10.3510 P.3   296  ANP296      0.4669
      6  O1B       17.5070   -1.8730    8.8880 O.2   296  ANP296     -0.2351
      7  O2B       18.1150   -3.3780   10.8210 O.3   296  ANP296     -0.1253
      8  N3B       16.5340   -1.3030   11.1930 N.3   296  ANP296     -0.0163
      9  PA        19.5600    0.4160   10.8410 P.3   296  ANP296      0.2220
     10  O1A       19.5680    1.2720    9.6230 O.2   296  ANP296     -0.5170
     11  O2A       18.8420    0.8720   12.0690 O.3   296  ANP296     -0.4370
     12  O3A       19.2470   -1.1400   10.5150 O.3   296  ANP296     -0.2360
     13  O5'       21.0760    0.3230   11.2850 O.3   296  ANP296     -0.3111
     14  C5'       21.4620   -0.5020   12.3920 C.3   296  ANP296      0.1813
     15  C4'       22.4470    0.2360   13.3090 C.3   296  ANP296      0.1821
     16  O4'       23.6310    0.5560   12.5630 O.3   296  ANP296     -0.3135
     17  C3'       21.9590    1.5730   13.8400 C.3   296  ANP296      0.2184
     18  O3'       21.1500    1.5150   15.0380 O.3   296  ANP296     -0.2174
     19  C2'       23.2470    2.3660   14.0520 C.3   296  ANP296      0.2570
     20  O2'       23.8790    1.9680   15.2890 O.3   296  ANP296     -0.2130
     21  C1'       24.1350    1.8660   12.9320 C.3   296  ANP296      0.3186
     22  N9        24.0380    2.7640   11.7520 N.pl3 296  ANP296     -0.1439
     23  C8        23.0490    2.7660   10.8010 C.3   296  ANP296      0.3377
     24  N7        23.2890    3.7060    9.8440 N.2   296  ANP296     -0.2095
     25  C5        24.4180    4.2940   10.1890 C.2   296  ANP296      0.2526
     26  C6        25.1850    5.3760    9.5830 C.2   296  ANP296      0.4393
     27  N6        24.7130    5.9610    8.4190 N.pl3 296  ANP296      0.2180
     28  N1        26.3110    5.7480   10.2290 N.2   296  ANP296      0.0021
     29  C2        26.7250    5.1770   11.3770 C.3   296  ANP296      0.5254
     30  N3        26.0660    4.1610   11.9760 N.2   296  ANP296     -0.0055
     31  C4        24.8980    3.7190   11.4410 C.2   296  ANP296      0.3518
@<TRIPOS>BOND
     1    27    26    1
     2     6     5    2
     3    26    25    1
     4    26    28    2
     5    10     9    2
     6    24    25    2
     7    24    23    1
     8    25    31    1
     9    28    29    1
    10     5    12    1
    11     5     7    1
    12     5     8    1
    13    12     9    1
    14    23    22    1
    15     9    13    1
    16     9    11    1
    17     8     1    1
    18    13    14    1
    19    29    30    1
    20    31    22    1
    21    31    30    2
    22    22    21    1
    23    14    15    1
    24    16    21    1
    25    16    15    1
    26     1     4    2
    27     1     2    1
    28     1     3    1
    29    21    19    1
    30    15    17    1
    31    17    19    1
    32    17    18    1
    33    19    20    1
