@<TRIPOS>MOLECULE
3dfk_DKA_A_1.pdb
 12 11 0 0 0
SMALL
GASTEIGER

@<TRIPOS>ATOM
      1  C1        33.8810   19.1760    6.1690 C.2   400  DKA400      0.3649
      2  O1        34.3910   18.1720    5.6430 O.co2 400  DKA400     -0.2457
      3  C2        33.8200   20.4880    5.4150 C.3   400  DKA400      0.1141
      4  C3        33.9370   21.6420    6.4080 C.3   400  DKA400      0.0118
      5  C4        34.8660   22.7300    5.8960 C.3   400  DKA400      0.0006
      6  C5        36.2100   22.7300    6.6100 C.3   400  DKA400      0.0000
      7  C6        37.3190   23.0790    5.6210 C.3   400  DKA400      0.0000
      8  C7        38.6870   23.1720    6.2900 C.3   400  DKA400      0.0000
      9  C8        39.7330   23.4790    5.2160 C.3   400  DKA400      0.0000
     10  C9        40.7750   22.3820    5.0330 C.3   400  DKA400      0.0000
     11  C10       42.1340   22.8730    5.4790 C.3   400  DKA400      0.0000
     12  O2        33.4230   19.1270    7.3160 O.co2 400  DKA400     -0.2457
@<TRIPOS>BOND
     1    10     9    1
     2    10    11    1
     3     9     8    1
     4     3     1    1
     5     3     4    1
     6     7     8    1
     7     7     6    1
     8     2     1   ar
     9     5     4    1
    10     5     6    1
    11     1    12   ar
