@<TRIPOS>MOLECULE
3dfl_GBS_A_1.pdb
 12 12 0 0 0
SMALL
GASTEIGER

@<TRIPOS>ATOM
      1  CD       -14.3120    7.1730    4.2810 C.2   308  GBS308      0.2342
      2  OD       -14.7130    7.5980    5.3630 O.2   308  GBS308     -0.2831
      3  C1       -14.7600    7.8300    3.0040 C.ar  308  GBS308      0.0424
      4  C21      -15.3900    9.0770    3.0580 C.ar  308  GBS308      0.0063
      5  C22      -14.5620    7.2080    1.7680 C.ar  308  GBS308      0.0063
      6  C31      -15.8130    9.7100    1.8870 C.ar  308  GBS308      0.0372
      7  C32      -14.9910    7.8420    0.5990 C.ar  308  GBS308      0.0372
      8  C4       -15.6230    9.0950    0.6540 C.ar  308  GBS308      0.1592
      9  NE       -16.0500    9.7440   -0.4620 N.pl3 308  GBS308     -0.0605
     10  CZ       -16.5940    9.1500   -1.5330 C.cat 308  GBS308      0.5393
     11  NH1      -16.7580    9.8470   -2.6630 N.pl3 308  GBS308      0.1358
     12  NH2      -16.9660    7.9400   -1.5030 N.pl3 308  GBS308      0.1358
@<TRIPOS>BOND
     1    11    10    1
     2    10    12    1
     3    10     9    2
     4     9     8    1
     5     7     8   ar
     6     7     5   ar
     7     8     6   ar
     8     5     3   ar
     9     6     4   ar
    10     3     4   ar
    11     3     1    1
    12     1     2    2
