@<TRIPOS>MOLECULE
3dfr_NDP_A_1.pdb
 48 52 0 0 0
SMALL
GASTEIGER

@<TRIPOS>ATOM
      1  PA         9.2480   28.1420   19.8250 P.3   163  NDP163      0.2189
      2  O1A        8.9570   26.7410   20.2170 O.2   163  NDP163     -0.5170
      3  O2A        8.2930   29.1750   20.2450 O.3   163  NDP163     -0.4371
      4  O5B       10.7540   28.6950   20.2070 O.3   163  NDP163     -0.3112
      5  C5B       12.0080   27.9050   19.9370 C.3   163  NDP163      0.1813
      6  C4B       13.1650   28.5520   20.8330 C.3   163  NDP163      0.1820
      7  O4B       12.9350   27.9050   21.9540 O.3   163  NDP163     -0.3136
      8  C3B       14.4980   27.8740   20.2910 C.3   163  NDP163      0.2157
      9  O3B       14.8250   28.7760   19.1620 O.3   163  NDP163     -0.2175
     10  C2B       15.1950   28.0860   21.7110 C.3   163  NDP163      0.2314
     11  O2B       15.4500   29.4860   21.8320 O.3   163  NDP163     -0.2630
     12  C1B       14.1780   27.6060   22.7010 C.3   163  NDP163      0.3158
     13  N9A       14.2250   26.2060   22.9150 N.pl3 163  NDP163     -0.1439
     14  C8A       13.6790   25.1610   22.2520 C.3   163  NDP163      0.3377
     15  N7A       13.6640   24.0030   22.7570 N.2   163  NDP163     -0.2095
     16  C5A       14.5700   24.2020   23.8490 C.2   163  NDP163      0.2526
     17  C6A       14.9940   23.2190   25.0070 C.2   163  NDP163      0.4393
     18  N6A       14.6380   21.9310   25.0170 N.pl3 163  NDP163      0.2180
     19  N1A       15.5900   23.8790   25.9040 N.2   163  NDP163      0.0021
     20  C2A       15.7520   25.2660   25.8660 C.3   163  NDP163      0.5254
     21  N3A       15.5330   26.2190   24.9230 N.2   163  NDP163     -0.0055
     22  C4A       14.7170   25.5530   23.9800 C.2   163  NDP163      0.3518
     23  O3         9.3490   28.3160   18.2370 O.3   163  NDP163     -0.2703
     24  PN         8.8750   27.4570   16.9580 P.3   163  NDP163      0.2189
     25  O1N        8.8390   26.0380   17.1630 O.3   163  NDP163     -0.4371
     26  O2N        9.3780   28.2660   15.7630 O.2   163  NDP163     -0.5170
     27  O5D        7.3370   28.0300   16.9760 O.3   163  NDP163     -0.3112
     28  C5D        6.8950   29.4670   16.9020 C.3   163  NDP163      0.1813
     29  C4D        5.8420   29.4480   15.7720 C.3   163  NDP163      0.1799
     30  O4D        4.6280   28.8390   16.3880 O.3   163  NDP163     -0.3327
     31  C3D        5.4360   30.8980   15.4360 C.3   163  NDP163      0.2158
     32  O3D        4.9010   31.0420   14.1190 O.3   163  NDP163     -0.2175
     33  C2D        4.3010   31.1100   16.4350 C.3   163  NDP163      0.2309
     34  O2D        3.4310   32.1800   15.9680 O.3   163  NDP163     -0.2158
     35  C1D        3.5710   29.7720   16.4630 C.3   163  NDP163      0.2263
     36  N1N        2.5830   29.5290   17.6110 N.pl3 163  NDP163     -0.2787
     37  C2N        1.2720   29.3360   17.5830 C.3   163  NDP163      0.1244
     38  C3N        0.5640   28.7580   18.4890 C.2   163  NDP163      0.0544
     39  C7N       -0.8010   28.7200   18.0500 C.2   163  NDP163      0.2818
     40  O7N       -1.4230   28.2040   19.0870 O.2   163  NDP163     -0.2670
     41  N7N       -1.3040   28.7080   16.7900 N.am  163  NDP163     -0.0839
     42  C4N        1.1500   28.7890   19.8620 C.2   163  NDP163      0.0033
     43  C5N        2.5260   29.1810   19.9830 C.2   163  NDP163      0.0157
     44  C6N        3.2910   29.5480   18.8810 C.2   163  NDP163      0.0633
     45  P2B       16.8980   30.2890   21.6170 P.3   163  NDP163      0.5328
     46  O1X       16.5350   31.6640   22.1870 O.3   163  NDP163     -0.1145
     47  O2X       17.8790   29.2120   22.0660 O.3   163  NDP163     -0.1145
     48  O3X       16.8690   30.3510   20.0390 O.2   163  NDP163     -0.2224
@<TRIPOS>BOND
     1    32    31    1
     2    31    29    1
     3    31    33    1
     4    26    24    2
     5    29    30    1
     6    29    28    1
     7    34    33    1
     8    30    35    1
     9    33    35    1
    10    35    36    1
    11    41    39   am
    12    28    27    1
    13    24    27    1
    14    24    25    1
    15    24    23    1
    16    37    36    1
    17    37    38    1
    18    36    44    1
    19    39    38    1
    20    39    40    2
    21    23     1    1
    22    38    42    2
    23    44    43    2
    24     9     8    1
    25     1     4    1
    26     1     2    2
    27     1     3    1
    28    42    43    1
    29     5     4    1
    30     5     6    1
    31    48    45    2
    32     8     6    1
    33     8    10    1
    34     6     7    1
    35    45    11    1
    36    45    47    1
    37    45    46    1
    38    10    11    1
    39    10    12    1
    40     7    12    1
    41    14    15    1
    42    14    13    1
    43    12    13    1
    44    15    16    2
    45    13    22    1
    46    16    22    1
    47    16    17    1
    48    22    21    2
    49    21    20    1
    50    17    18    1
    51    17    19    2
    52    20    19    1
