@<TRIPOS>MOLECULE
3dfr_MTX_A_1.pdb
 33 35 0 0 0
SMALL
GASTEIGER

@<TRIPOS>ATOM
      1  N1        -4.3220   30.5500   21.0110 N.2   164  MTX164     -0.2684
      2  C2        -4.3940   29.3550   21.7390 C.1   164  MTX164      0.2519
      3  NA2       -5.6450   28.8070   21.8600 N.pl3 164  MTX164     -0.0226
      4  N3        -3.2880   28.7830   22.2520 N.2   164  MTX164     -0.3033
      5  C4        -2.0190   29.2740   22.2340 C.2   164  MTX164      0.2728
      6  NA4       -0.9740   28.7080   22.7850 N.pl3 164  MTX164     -0.0887
      7  C4A       -1.9330   30.5690   21.5330 C.2   164  MTX164      0.2518
      8  N5        -0.7580   31.2350   21.4960 N.2   164  MTX164     -0.3917
      9  C6        -0.7650   32.4050   20.8420 C.2   164  MTX164      0.1330
     10  C7        -1.9440   32.8030   20.2170 C.3   164  MTX164      0.1930
     11  N8        -3.0540   32.3240   20.2350 N.2   164  MTX164     -0.1998
     12  C8A       -3.0830   31.1160   20.8980 C.1   164  MTX164      0.1314
     13  C9         0.6400   33.0210   20.6840 C.3   164  MTX164      0.1481
     14  N10        0.5780   34.3840   20.4880 N.pl3 164  MTX164     -0.2999
     15  CM         1.3080   34.8130   19.2270 C.3   164  MTX164      0.1125
     16  C11       -1.2790   37.2030   22.9340 C.ar  164  MTX164      0.0551
     17  C12       -0.8620   37.5510   21.6550 C.ar  164  MTX164      0.0058
     18  C13       -0.1940   36.8540   20.7120 C.ar  164  MTX164      0.0147
     19  C14        0.0320   35.4040   21.2070 C.ar  164  MTX164      0.0482
     20  C15       -0.5530   35.0490   22.5330 C.ar  164  MTX164      0.0147
     21  C16       -1.2290   35.8340   23.2890 C.ar  164  MTX164      0.0058
     22  C         -1.9650   38.1300   23.5410 C.2   164  MTX164      0.2652
     23  O         -2.1380   39.3370   23.4290 O.2   164  MTX164     -0.2684
     24  N         -2.9250   37.9740   24.4190 N.am  164  MTX164     -0.1918
     25  CA        -3.5710   38.5720   25.4550 C.3   164  MTX164      0.1986
     26  CT        -3.4100   37.7690   26.7440 C.2   164  MTX164      0.3842
     27  O1        -3.3490   36.5800   27.0050 O.co2 164  MTX164     -0.2437
     28  O2        -3.6070   38.6340   27.7990 O.co2 164  MTX164     -0.2437
     29  CB        -5.1200   38.8520   25.5390 C.3   164  MTX164      0.0451
     30  CG        -5.7450   39.8480   24.6430 C.3   164  MTX164      0.1164
     31  CD        -7.1320   39.9100   23.7190 C.2   164  MTX164      0.3649
     32  OE1       -7.2900   40.7060   22.6170 O.co2 164  MTX164     -0.2457
     33  OE2       -7.7070   39.3250   24.7550 O.co2 164  MTX164     -0.2457
@<TRIPOS>BOND
     1    15    14    1
     2    10    11    1
     3    10     9    1
     4    11    12    2
     5    14    13    1
     6    14    19    1
     7    13     9    1
     8    18    19   ar
     9    18    17   ar
    10     9     8    2
    11    12     1    2
    12    12     7    1
    13     1     2    2
    14    19    20   ar
    15     8     7    2
    16     7     5    1
    17    17    16   ar
    18     2     3    1
    19     2     4    2
    20     5     4    2
    21     5     6    1
    22    20    21   ar
    23    32    31   ar
    24    16    21   ar
    25    16    22    1
    26    23    22    2
    27    22    24   am
    28    31    30    1
    29    31    33   ar
    30    24    25    1
    31    30    29    1
    32    25    29    1
    33    25    26    1
    34    26    27   ar
    35    26    28   ar
