@<TRIPOS>MOLECULE
3dg6_MUC_A_1.pdb
 10 10 0 0 0
SMALL
GASTEIGER

@<TRIPOS>ATOM
      1  C1        28.4440    5.3680   16.1530 C.2   1001  MUC1001     0.3685
      2  O1        27.7000    6.3780   16.1760 O.co2 1001  MUC1001    -0.2455
      3  O2        28.1200    4.2480   15.7070 O.co2 1001  MUC1001    -0.2455
      4  C4        30.9370    3.2480   16.0240 C.3   1001  MUC1001     0.0559
      5  C5        31.4490    2.8900   14.8400 C.3   1001  MUC1001     0.1133
      6  C6        31.7100    3.9920   14.1360 C.2   1001  MUC1001     0.3170
      7  O6        32.4180    4.0140   13.1270 O.2   1001  MUC1001    -0.2501
      8  O3        31.0970    5.1040   14.6510 O.3   1001  MUC1001    -0.4517
      9  C3        31.0320    4.7820   16.0380 C.3   1001  MUC1001     0.1807
     10  C2        29.8700    5.5400   16.7630 C.3   1001  MUC1001     0.1575
@<TRIPOS>BOND
     1     7     6    2
     2     6     8    1
     3     6     5    1
     4     8     9    1
     5     5     4    1
     6     3     1   ar
     7     4     9    1
     8     9    10    1
     9     1     2   ar
    10     1    10    1
