@<TRIPOS>MOLECULE
3dg7_MUC_A_1.pdb
 10 10 0 0 0
SMALL
GASTEIGER

@<TRIPOS>ATOM
      1  C1        -7.2250   -6.4590   15.4730 C.2   1001  MUC1001     0.3685
      2  O1        -6.5780   -5.6500   16.1900 O.co2 1001  MUC1001    -0.2455
      3  O2        -7.6610   -6.2170   14.3220 O.co2 1001  MUC1001    -0.2455
      4  C4        -8.7240   -9.0410   14.0800 C.3   1001  MUC1001     0.0559
      5  C5        -8.2060   -9.6460   12.9980 C.3   1001  MUC1001     0.1133
      6  C6        -6.8920   -9.8070   13.1850 C.2   1001  MUC1001     0.3170
      7  O6        -6.1650  -10.4780   12.4460 O.2   1001  MUC1001    -0.2501
      8  O3        -6.4260   -9.1360   14.2840 O.3   1001  MUC1001    -0.4517
      9  C3        -7.5840   -9.0650   15.1060 C.3   1001  MUC1001     0.1807
     10  C2        -7.5140   -7.8570   16.1020 C.3   1001  MUC1001     0.1575
@<TRIPOS>BOND
     1     7     6    2
     2     5     6    1
     3     5     4    1
     4     6     8    1
     5     4     9    1
     6     8     9    1
     7     3     1   ar
     8     9    10    1
     9     1    10    1
    10     1     2   ar
