@<TRIPOS>MOLECULE
3dg8_RJ6_A_1.pdb
 17 17 0 0 0
SMALL
GASTEIGER

@<TRIPOS>ATOM
      1  C1        26.9540    4.8220   62.1900 C.ar  609  RJ6609      0.1447
      2  C2        27.3970    5.9110   62.8580 C.ar  609  RJ6609      0.0739
      3  C3        28.2110    6.8610   62.3570 C.ar  609  RJ6609      0.1447
      4  C4        28.6290    6.6970   61.0330 C.ar  609  RJ6609      0.0742
      5  C5        28.2230    5.6040   60.2910 C.ar  609  RJ6609      0.1651
      6  C6        27.3800    4.6690   60.8740 C.ar  609  RJ6609      0.0742
      7  O7        26.1240    4.0090   62.8980 O.3   609  RJ6609     -0.4712
      8  C8        25.4230    2.8270   62.6650 C.3   609  RJ6609      0.2525
      9  O9        28.4990    7.8820   63.2150 O.3   609  RJ6609     -0.4712
     10  C10       28.9060    9.1440   62.7740 C.3   609  RJ6609      0.2525
     11  N11       28.6240    5.4280   58.9960 N.pl3 609  RJ6609     -0.0627
     12  C12       29.5170    4.5600   58.4390 C.cat 609  RJ6609      0.5099
     13  N13       29.7750    4.6620   57.1170 N.pl3 609  RJ6609      0.0142
     14  C14       29.2000    5.3780   56.1380 C.cat 609  RJ6609      0.5445
     15  N15       28.3770    6.4150   56.3920 N.pl3 609  RJ6609      0.1360
     16  N16       30.0890    3.6760   59.1790 N.pl3 609  RJ6609      0.1328
     17  N17       29.4460    5.0520   54.9160 N.pl3 609  RJ6609      0.1360
@<TRIPOS>BOND
     1    17    14    1
     2    14    15    1
     3    14    13    2
     4    13    12    1
     5    12    11    1
     6    12    16    2
     7    11     5    1
     8     5     6   ar
     9     5     4   ar
    10     6     1   ar
    11     4     3   ar
    12     1     2   ar
    13     1     7    1
    14     3     2   ar
    15     3     9    1
    16     8     7    1
    17    10     9    1
