@<TRIPOS>MOLECULE
3dg8_UMP_C_1.pdb
 20 21 0 0 0
SMALL
GASTEIGER

@<TRIPOS>ATOM
      1  N1        44.3080   20.4990   19.7490 N.am  611  UMP611     -0.1790
      2  C2        43.5050   19.8690   20.7730 C.1   611  UMP611      0.2844
      3  N3        42.7670   20.7790   21.5660 N.2   611  UMP611     -0.2452
      4  C4        42.7560   22.2010   21.4380 C.1   611  UMP611      0.2182
      5  C5        43.6040   22.7450   20.3650 C.2   611  UMP611      0.1242
      6  C6        44.3470   21.8510   19.5640 C.2   611  UMP611      0.0928
      7  O2        43.4280   18.6580   20.9880 O.2   611  UMP611     -0.1918
      8  O4        42.0850   22.9290   22.1710 O.2   611  UMP611     -0.2085
      9  C1'       45.1850   19.7250   18.7830 C.3   611  UMP611      0.2090
     10  C2'       44.5910   18.7500   17.7530 C.3   611  UMP611      0.0874
     11  C3'       45.7610   18.4910   16.7900 C.3   611  UMP611      0.1857
     12  C4'       46.4940   19.8380   16.5940 C.3   611  UMP611      0.1774
     13  O3'       46.6620   17.5520   17.4450 O.3   611  UMP611     -0.2203
     14  O4'       46.1040   20.5220   17.8730 O.3   611  UMP611     -0.3339
     15  C5'       45.9300   20.6410   15.4060 C.3   611  UMP611      0.1858
     16  O5'       46.1910   19.9240   14.1380 O.3   611  UMP611     -0.2675
     17  P         45.2040   19.9450   12.9090 P.3   611  UMP611      0.5327
     18  OP1       45.8950   19.6710   11.6560 O.2   611  UMP611     -0.2224
     19  OP2       44.2230   18.8940   13.1960 O.3   611  UMP611     -0.1145
     20  OP3       44.5810   21.2520   12.7760 O.3   611  UMP611     -0.1145
@<TRIPOS>BOND
     1    18    17    2
     2    20    17    1
     3    17    19    1
     4    17    16    1
     5    16    15    1
     6    15    12    1
     7    12    11    1
     8    12    14    1
     9    11    13    1
    10    11    10    1
    11    10     9    1
    12    14     9    1
    13     9     1    1
    14     6     1    1
    15     6     5    2
    16     1     2   am
    17     5     4    1
    18     2     7    2
    19     2     3    2
    20     4     3    2
    21     4     8    2
