@<TRIPOS>MOLECULE
3dg8_NDP_A_1.pdb
 48 52 0 0 0
SMALL
GASTEIGER

@<TRIPOS>ATOM
      1  PA        34.4100    4.2850   68.8920 P.3   610  NDP610      0.2189
      2  O1A       35.4630    3.4790   68.3190 O.3   610  NDP610     -0.4371
      3  O2A       33.0600    4.4070   68.2660 O.2   610  NDP610     -0.5170
      4  O5B       34.1550    3.7330   70.4090 O.3   610  NDP610     -0.3112
      5  C5B       35.2830    3.4430   71.2270 C.3   610  NDP610      0.1813
      6  C4B       34.6680    2.7650   72.4270 C.3   610  NDP610      0.1820
      7  O4B       34.1650    1.4820   71.9490 O.3   610  NDP610     -0.3136
      8  C3B       35.5590    2.4330   73.5520 C.3   610  NDP610      0.2157
      9  O3B       36.0340    3.5130   74.3990 O.3   610  NDP610     -0.2175
     10  C2B       34.9690    1.2470   74.1960 C.3   610  NDP610      0.2314
     11  O2B       33.8450    1.4460   75.0420 O.3   610  NDP610     -0.2630
     12  C1B       34.6210    0.5270   72.9160 C.3   610  NDP610      0.3158
     13  N9A       35.6340   -0.4170   72.4070 N.pl3 610  NDP610     -0.1439
     14  C8A       36.4770   -0.2900   71.2730 C.3   610  NDP610      0.3377
     15  N7A       37.2490   -1.3410   71.1420 N.2   610  NDP610     -0.2095
     16  C5A       36.9410   -2.1820   72.1690 C.2   610  NDP610      0.2526
     17  C6A       37.4070   -3.4520   72.5840 C.2   610  NDP610      0.4393
     18  N6A       38.3640   -4.0760   71.8950 N.pl3 610  NDP610      0.2180
     19  N1A       36.8670   -4.0330   73.6910 N.2   610  NDP610      0.0021
     20  C2A       35.8940   -3.3920   74.3870 C.3   610  NDP610      0.5254
     21  N3A       35.3860   -2.1910   74.0820 N.2   610  NDP610     -0.0055
     22  C4A       35.9570   -1.6330   72.9530 C.2   610  NDP610      0.3518
     23  O3        34.8470    5.7420   69.2350 O.3   610  NDP610     -0.2703
     24  PN        35.6880    6.9390   68.6330 P.3   610  NDP610      0.2189
     25  O1N       35.5830    8.0200   69.6240 O.3   610  NDP610     -0.4371
     26  O2N       37.0010    6.3780   68.1860 O.2   610  NDP610     -0.5170
     27  O5D       34.8410    7.1480   67.2870 O.3   610  NDP610     -0.3112
     28  C5D       33.4640    7.6760   67.3060 C.3   610  NDP610      0.1813
     29  C4D       33.4840    8.9870   66.4590 C.3   610  NDP610      0.1799
     30  O4D       33.6660    8.5850   65.1200 O.3   610  NDP610     -0.3327
     31  C3D       32.1240    9.6780   66.4820 C.3   610  NDP610      0.2158
     32  O3D       32.2760   11.1050   66.4510 O.3   610  NDP610     -0.2175
     33  C2D       31.3530    9.1250   65.3300 C.3   610  NDP610      0.2309
     34  O2D       30.4460   10.1050   64.8820 O.3   610  NDP610     -0.2158
     35  C1D       32.5620    8.9350   64.3040 C.3   610  NDP610      0.2263
     36  N1N       32.3700    7.8320   63.3060 N.pl3 610  NDP610     -0.2787
     37  C2N       32.3490    8.2260   61.9420 C.3   610  NDP610      0.1244
     38  C3N       32.1910    7.1580   60.9470 C.2   610  NDP610      0.0544
     39  C7N       32.1590    7.4910   59.5000 C.2   610  NDP610      0.2818
     40  O7N       32.0340    6.6410   58.5860 O.2   610  NDP610     -0.2670
     41  N7N       32.2700    8.7790   59.1070 N.am  610  NDP610     -0.0839
     42  C4N       32.0760    5.8330   61.4080 C.2   610  NDP610      0.0033
     43  C5N       32.0970    5.4870   62.7370 C.2   610  NDP610      0.0157
     44  C6N       32.2460    6.4800   63.6880 C.2   610  NDP610      0.0633
     45  P2B       33.9020    1.7680   76.5420 P.3   610  NDP610      0.5328
     46  O1X       34.5000    3.1150   76.5790 O.2   610  NDP610     -0.2224
     47  O2X       32.5280    1.7140   77.0730 O.3   610  NDP610     -0.1145
     48  O3X       34.7810    0.7310   77.2520 O.3   610  NDP610     -0.1145
@<TRIPOS>BOND
     1    40    39    2
     2    41    39   am
     3    39    38    1
     4    38    42    2
     5    38    37    1
     6    42    43    1
     7    37    36    1
     8    43    44    2
     9    36    44    1
    10    36    35    1
    11    35    30    1
    12    35    33    1
    13    34    33    1
    14    30    29    1
    15    33    31    1
    16    32    31    1
    17    29    31    1
    18    29    28    1
    19    27    28    1
    20    27    24    1
    21    26    24    2
    22     3     1    2
    23     2     1    1
    24    24    23    1
    25    24    25    1
    26     1    23    1
    27     1     4    1
    28     4     5    1
    29    15    14    1
    30    15    16    2
    31     5     6    1
    32    14    13    1
    33    18    17    1
    34     7     6    1
    35     7    12    1
    36    16    17    1
    37    16    22    1
    38    13    12    1
    39    13    22    1
    40     6     8    1
    41    17    19    2
    42    12    10    1
    43    22    21    2
    44     8    10    1
    45     8     9    1
    46    19    20    1
    47    21    20    1
    48    10    11    1
    49    11    45    1
    50    45    46    2
    51    45    47    1
    52    45    48    1
