@<TRIPOS>MOLECULE
3dga_NDP_A_1.pdb
 48 52 0 0 0
SMALL
GASTEIGER

@<TRIPOS>ATOM
      1  PA        34.6310    4.0520   68.5530 P.3   610  NDP610      0.2189
      2  O1A       33.3310    3.9500   67.9800 O.3   610  NDP610     -0.4371
      3  O2A       35.8280    3.3730   67.9400 O.2   610  NDP610     -0.5170
      4  O5B       34.4510    3.5260   70.1060 O.3   610  NDP610     -0.3112
      5  C5B       35.6110    3.2630   70.9030 C.3   610  NDP610      0.1813
      6  C4B       35.0270    2.5740   72.1220 C.3   610  NDP610      0.1820
      7  O4B       34.4530    1.3060   71.6560 O.3   610  NDP610     -0.3136
      8  C3B       35.9230    2.1960   73.2360 C.3   610  NDP610      0.2157
      9  O3B       36.4600    3.2560   74.0680 O.3   610  NDP610     -0.2175
     10  C2B       35.2150    1.0860   73.8970 C.3   610  NDP610      0.2314
     11  O2B       34.0540    1.4110   74.6770 O.3   610  NDP610     -0.2630
     12  C1B       34.8790    0.3530   72.6260 C.3   610  NDP610      0.3158
     13  N9A       35.8990   -0.6030   72.1360 N.pl3 610  NDP610     -0.1439
     14  C8A       36.7610   -0.4870   71.0160 C.3   610  NDP610      0.3377
     15  N7A       37.5320   -1.5420   70.8970 N.2   610  NDP610     -0.2095
     16  C5A       37.2030   -2.3850   71.9170 C.2   610  NDP610      0.2526
     17  C6A       37.6670   -3.6720   72.3450 C.2   610  NDP610      0.4393
     18  N6A       38.6200   -4.3070   71.6750 N.pl3 610  NDP610      0.2180
     19  N1A       37.1060   -4.2500   73.4420 N.2   610  NDP610      0.0021
     20  C2A       36.1210   -3.5920   74.1310 C.3   610  NDP610      0.5254
     21  N3A       35.6200   -2.3800   73.8160 N.2   610  NDP610     -0.0055
     22  C4A       36.2120   -1.8200   72.6930 C.2   610  NDP610      0.3518
     23  O3        35.0600    5.5230   68.8440 O.3   610  NDP610     -0.2703
     24  PN        35.8620    6.7100   68.1790 P.3   610  NDP610      0.2189
     25  O1N       35.8570    7.8060   69.1680 O.3   610  NDP610     -0.4371
     26  O2N       37.1230    6.0970   67.6570 O.2   610  NDP610     -0.5170
     27  O5D       34.9280    6.9760   66.8970 O.3   610  NDP610     -0.3112
     28  C5D       33.6570    7.6870   67.0260 C.3   610  NDP610      0.1813
     29  C4D       33.7330    8.9220   66.0910 C.3   610  NDP610      0.1799
     30  O4D       33.7600    8.4050   64.8110 O.3   610  NDP610     -0.3327
     31  C3D       32.4360    9.7420   66.1340 C.3   610  NDP610      0.2158
     32  O3D       32.7260   11.1410   65.9910 O.3   610  NDP610     -0.2175
     33  C2D       31.5380    9.1870   65.0700 C.3   610  NDP610      0.2309
     34  O2D       30.6730   10.1760   64.5730 O.3   610  NDP610     -0.2158
     35  C1D       32.6790    8.8950   64.0320 C.3   610  NDP610      0.2263
     36  N1N       32.3610    7.8260   63.0940 N.pl3 610  NDP610     -0.2787
     37  C2N       32.5830    8.1790   61.7500 C.3   610  NDP610      0.1244
     38  C3N       32.3320    7.1550   60.7680 C.2   610  NDP610      0.0544
     39  C7N       32.5550    7.4490   59.3420 C.2   610  NDP610      0.2818
     40  O7N       32.3790    6.6150   58.4290 O.2   610  NDP610     -0.2670
     41  N7N       32.9800    8.6800   58.9540 N.am  610  NDP610     -0.0839
     42  C4N       31.8870    5.8910   61.2240 C.2   610  NDP610      0.0033
     43  C5N       31.6700    5.5770   62.5630 C.2   610  NDP610      0.0157
     44  C6N       31.9080    6.5390   63.5030 C.2   610  NDP610      0.0633
     45  P2B       34.0590    1.7300   76.1800 P.3   610  NDP610      0.5328
     46  O1X       34.4420    3.1570   76.2280 O.2   610  NDP610     -0.2224
     47  O2X       32.7090    1.4550   76.7110 O.3   610  NDP610     -0.1145
     48  O3X       35.1010    0.8220   76.8720 O.3   610  NDP610     -0.1145
@<TRIPOS>BOND
     1    40    39    2
     2    41    39   am
     3    39    38    1
     4    38    42    2
     5    38    37    1
     6    42    43    1
     7    37    36    1
     8    43    44    2
     9    36    44    1
    10    36    35    1
    11    35    30    1
    12    35    33    1
    13    34    33    1
    14    30    29    1
    15    33    31    1
    16    32    31    1
    17    29    31    1
    18    29    28    1
    19    27    28    1
    20    27    24    1
    21    26    24    2
    22     3     1    2
    23     2     1    1
    24    24    23    1
    25    24    25    1
    26     1    23    1
    27     1     4    1
    28     4     5    1
    29    15    14    1
    30    15    16    2
    31     5     6    1
    32    14    13    1
    33     7     6    1
    34     7    12    1
    35    18    17    1
    36    16    17    1
    37    16    22    1
    38     6     8    1
    39    13    12    1
    40    13    22    1
    41    17    19    2
    42    12    10    1
    43    22    21    2
    44     8    10    1
    45     8     9    1
    46    19    20    1
    47    21    20    1
    48    10    11    1
    49    11    45    1
    50    45    46    2
    51    45    47    1
    52    45    48    1
