@<TRIPOS>MOLECULE
3dga_UMP_C_1.pdb
 20 21 0 0 0
SMALL
GASTEIGER

@<TRIPOS>ATOM
      1  N1        44.2360   20.3320   19.3790 N.am  611  UMP611     -0.1790
      2  C2        43.4470   19.7350   20.4030 C.1   611  UMP611      0.2844
      3  N3        42.5490   20.6250   21.0200 N.2   611  UMP611     -0.2452
      4  C4        42.3820   22.0070   20.7070 C.1   611  UMP611      0.2182
      5  C5        43.2380   22.5220   19.6410 C.2   611  UMP611      0.1242
      6  C6        44.1350   21.6400   19.0240 C.2   611  UMP611      0.0928
      7  O2        43.5090   18.5640   20.7480 O.2   611  UMP611     -0.1918
      8  O4        41.5780   22.7260   21.2890 O.2   611  UMP611     -0.2085
      9  C1'       45.2620   19.5650   18.5860 C.3   611  UMP611      0.2090
     10  C2'       44.8170   18.4670   17.5950 C.3   611  UMP611      0.0874
     11  C3'       46.0120   18.2980   16.6530 C.3   611  UMP611      0.1857
     12  C4'       46.6420   19.6990   16.4550 C.3   611  UMP611      0.1774
     13  O3'       46.9650   17.4440   17.3390 O.3   611  UMP611     -0.2203
     14  O4'       46.1750   20.3820   17.6960 O.3   611  UMP611     -0.3339
     15  C5'       46.0380   20.4320   15.2600 C.3   611  UMP611      0.1858
     16  O5'       46.4510   19.7540   14.0400 O.3   611  UMP611     -0.2675
     17  P         45.5490   19.6620   12.7720 P.3   611  UMP611      0.5327
     18  OP1       44.3670   18.8350   13.0050 O.3   611  UMP611     -0.1145
     19  OP2       45.1700   21.0470   12.4610 O.3   611  UMP611     -0.1145
     20  OP3       46.3080   19.0670   11.6800 O.2   611  UMP611     -0.2224
@<TRIPOS>BOND
     1    20    17    2
     2    19    17    1
     3    17    18    1
     4    17    16    1
     5    16    15    1
     6    15    12    1
     7    12    11    1
     8    12    14    1
     9    11    13    1
    10    11    10    1
    11    10     9    1
    12    14     9    1
    13     9     1    1
    14     6     1    1
    15     6     5    2
    16     1     2   am
    17     5     4    1
    18     2     7    2
    19     2     3    2
    20     4     3    2
    21     4     8    2
