@<TRIPOS>MOLECULE
3dga_RJ1_A_1.pdb
 18 18 0 0 0
SMALL
GASTEIGER

@<TRIPOS>ATOM
      1  C1        25.6380    5.4370   60.6740 C.ar  609  RJ1609      0.0744
      2  C2        25.8740    4.6760   61.7840 C.ar  609  RJ1609      0.0049
      3  C3        27.0450    4.0240   61.9620 C.ar  609  RJ1609      0.0143
      4  C4        28.0440    4.1090   61.0290 C.ar  609  RJ1609      0.0918
      5  C5        27.8620    4.8730   59.8610 C.ar  609  RJ1609      0.1694
      6  C6        26.6480    5.5320   59.7080 C.ar  609  RJ1609      0.0418
      7 CL7        29.4650    3.2390   61.3980 Cl    609  RJ1609     -0.0792
      8  C8        24.3060    6.1480   60.5390 C.3   609  RJ1609      0.4187
      9  F9        24.2830    7.0750   59.5210 F     609  RJ1609     -0.1659
     10  F10       23.2530    5.2400   60.3250 F     609  RJ1609     -0.1659
     11  F11       24.0210    6.8620   61.7000 F     609  RJ1609     -0.1659
     12  N12       28.8500    4.9850   58.8950 N.pl3 609  RJ1609     -0.0620
     13  C13       29.8560    4.3890   58.1720 C.cat 609  RJ1609      0.5099
     14  N14       30.2380    4.7140   56.9210 N.pl3 609  RJ1609      0.0142
     15  C15       29.6890    5.2210   55.8100 C.cat 609  RJ1609      0.5445
     16  N16       29.9690    4.7480   54.5800 N.pl3 609  RJ1609      0.1360
     17  N17       30.5120    3.4340   58.7320 N.pl3 609  RJ1609      0.1328
     18  N18       28.8690    6.2020   55.9300 N.pl3 609  RJ1609      0.1360
@<TRIPOS>BOND
     1    16    15    1
     2    15    18    1
     3    15    14    2
     4    14    13    1
     5    13    17    2
     6    13    12    1
     7    12     5    1
     8     9     8    1
     9     6     5   ar
    10     6     1   ar
    11     5     4   ar
    12    10     8    1
    13     8     1    1
    14     8    11    1
    15     1     2   ar
    16     4     7    1
    17     4     3   ar
    18     2     3   ar
