@<TRIPOS>MOLECULE
3dgb_MUC_A_1.pdb
 10 10 0 0 0
SMALL
GASTEIGER

@<TRIPOS>ATOM
      1  C1        50.2680   43.2260   16.2450 C.2   1001  MUC1001     0.3685
      2  O1        50.0870   44.0910   15.3580 O.co2 1001  MUC1001    -0.2455
      3  O2        50.8430   43.4240   17.3300 O.co2 1001  MUC1001    -0.2455
      4  C4        51.3070   40.5160   17.6010 C.3   1001  MUC1001     0.0559
      5  C5        51.1610   40.2230   18.8880 C.3   1001  MUC1001     0.1133
      6  C6        50.0020   40.7240   19.3120 C.2   1001  MUC1001     0.3170
      7  O6        49.6940   40.8060   20.4990 O.2   1001  MUC1001    -0.2501
      8  O3        49.1790   41.1470   18.2920 O.3   1001  MUC1001    -0.4517
      9  C3        49.8810   40.7480   17.1050 C.3   1001  MUC1001     0.1807
     10  C2        49.7200   41.7960   15.9520 C.3   1001  MUC1001     0.1575
@<TRIPOS>BOND
     1     2     1   ar
     2    10     1    1
     3    10     9    1
     4     1     3   ar
     5     9     4    1
     6     9     8    1
     7     4     5    1
     8     8     6    1
     9     5     6    1
    10     6     7    2
