@<TRIPOS>MOLECULE
3dgc_FUC_R_1.pdb
 10 10 0 0 0
SMALL
GASTEIGER

@<TRIPOS>ATOM
      1  C1        52.8930    6.7000   33.4110 C.3   231  FUC231      0.1776
      2  C2        52.1070    5.6150   34.1490 C.3   231  FUC231      0.2141
      3  C3        50.7010    6.1240   34.4590 C.3   231  FUC231      0.2172
      4  C4        50.0170    6.5690   33.1620 C.3   231  FUC231      0.2116
      5  C5        50.8850    7.5950   32.4170 C.3   231  FUC231      0.1483
      6  C6        50.3360    7.9480   31.0500 C.3   231  FUC231      0.0349
      7  O2        52.7710    5.2790   35.3580 O.3   231  FUC231     -0.2176
      8  O3        49.9470    5.0880   35.0730 O.3   231  FUC231     -0.2175
      9  O4        49.8040    5.4390   32.3310 O.3   231  FUC231     -0.2177
     10  O5        52.2110    7.0660   32.2110 O.3   231  FUC231     -0.3508
@<TRIPOS>BOND
     1     6     5    1
     2    10     5    1
     3    10     1    1
     4     9     4    1
     5     5     4    1
     6     4     3    1
     7     1     2    1
     8     2     3    1
     9     2     7    1
    10     3     8    1
