@<TRIPOS>MOLECULE
3dgc_MAN_R_1.pdb
 11 11 0 0 0
SMALL
GASTEIGER

@<TRIPOS>ATOM
      1  C1        59.1330    5.8130   25.6520 C.3   230  MAN230      0.1777
      2  C2        58.0180    5.3990   24.6880 C.3   230  MAN230      0.2141
      3  C3        58.6200    4.5600   23.5540 C.3   230  MAN230      0.2173
      4  C4        59.7260    5.3480   22.8430 C.3   230  MAN230      0.2142
      5  C5        60.7710    5.8400   23.8610 C.3   230  MAN230      0.1810
      6  C6        61.8100    6.7740   23.2520 C.3   230  MAN230      0.2141
      7  O2        57.3910    6.5590   24.1530 O.3   230  MAN230     -0.2176
      8  O3        57.6100    4.1970   22.6250 O.3   230  MAN230     -0.2175
      9  O4        60.3530    4.5180   21.8750 O.3   230  MAN230     -0.2176
     10  O5        60.1260    6.5600   24.9410 O.3   230  MAN230     -0.3481
     11  O6        61.3580    8.1220   23.2320 O.3   230  MAN230     -0.2176
@<TRIPOS>BOND
     1     9     4    1
     2     8     3    1
     3     4     3    1
     4     4     5    1
     5    11     6    1
     6     6     5    1
     7     3     2    1
     8     5    10    1
     9     7     2    1
    10     2     1    1
    11    10     1    1
