@<TRIPOS>MOLECULE
3dge_ADP_A_1.pdb
 27 29 0 0 0
SMALL
GASTEIGER

@<TRIPOS>ATOM
      1  PB        41.3550   56.0290   29.6070 P.3   500  ADP500      0.5373
      2  O1B       41.5700   55.8280   28.1230 O.2   500  ADP500     -0.2221
      3  O2B       40.7220   57.3700   29.9100 O.3   500  ADP500     -0.1143
      4  O3B       42.5390   55.6250   30.4850 O.3   500  ADP500     -0.1143
      5  PA        39.4210   53.8260   29.2390 P.3   500  ADP500      0.2231
      6  O1A       39.9220   52.4510   29.6220 O.3   500  ADP500     -0.4370
      7  O2A       39.2360   54.0760   27.7640 O.2   500  ADP500     -0.5169
      8  O3A       40.3310   54.8760   30.0760 O.3   500  ADP500     -0.2261
      9  O5'       37.9910   54.2350   29.9130 O.3   500  ADP500     -0.3111
     10  C5'       37.6360   55.6350   29.9830 C.3   500  ADP500      0.1813
     11  C4'       36.8260   56.0340   31.2170 C.3   500  ADP500      0.1821
     12  O4'       36.4540   54.8550   31.9280 O.3   500  ADP500     -0.3135
     13  C3'       37.6010   56.8830   32.2220 C.3   500  ADP500      0.2184
     14  O3'       37.4090   58.3010   32.0970 O.3   500  ADP500     -0.2174
     15  C2'       37.1880   56.3780   33.6070 C.3   500  ADP500      0.2570
     16  O2'       36.2410   57.1940   34.3250 O.3   500  ADP500     -0.2130
     17  C1'       36.5300   55.0450   33.3430 C.3   500  ADP500      0.3186
     18  N9        37.2480   53.9220   33.9900 N.pl3 500  ADP500     -0.1439
     19  C8        37.8930   52.9230   33.3560 C.3   500  ADP500      0.3377
     20  N7        38.4150   52.0260   34.2470 N.2   500  ADP500     -0.2095
     21  C5        38.0980   52.4570   35.4800 C.2   500  ADP500      0.2526
     22  C6        38.3400   51.9680   36.8620 C.2   500  ADP500      0.4393
     23  N6        39.0420   50.8150   37.0870 N.pl3 500  ADP500      0.2180
     24  N1        37.8380   52.7240   37.8730 N.2   500  ADP500      0.0021
     25  C2        37.1340   53.8660   37.6430 C.3   500  ADP500      0.5254
     26  N3        36.8660   54.3740   36.4160 N.2   500  ADP500     -0.0055
     27  C4        37.3240   53.7130   35.3090 C.2   500  ADP500      0.3518
@<TRIPOS>BOND
     1     7     5    2
     2     2     1    2
     3     5     6    1
     4     5     9    1
     5     5     8    1
     6     1     3    1
     7     1     8    1
     8     1     4    1
     9     9    10    1
    10    10    11    1
    11    11    12    1
    12    11    13    1
    13    12    17    1
    14    14    13    1
    15    13    15    1
    16    17    15    1
    17    17    18    1
    18    19    18    1
    19    19    20    1
    20    15    16    1
    21    18    27    1
    22    20    21    2
    23    27    21    1
    24    27    26    2
    25    21    22    1
    26    26    25    1
    27    22    23    1
    28    22    24    2
    29    25    24    1
