@<TRIPOS>MOLECULE
3dgi_HEM_A_1.pdb
 43 50 0 0 0
SMALL
GASTEIGER

@<TRIPOS>ATOM
      1 FE         25.5440   -1.2510   18.7000 Fe    501  HEM501      0.0000
      2  CHA       27.7550   -3.3840   17.2020 C.2   501  HEM501      0.0000
      3  CHB       22.9300   -3.2870   17.5430 C.2   501  HEM501      0.0000
      4  CHC       23.3320    0.7770   20.1100 C.2   501  HEM501      0.0000
      5  CHD       28.0010    1.0500   19.1880 C.2   501  HEM501      0.0000
      6  NA        25.3700   -2.9990   17.5460 N.ar  501  HEM501      0.0000
      7  C1A       26.4310   -3.7260   17.1000 C.ar  501  HEM501      0.0000
      8  C2A       25.9180   -4.9170   16.4550 C.ar  501  HEM501      0.0000
      9  C3A       24.5900   -4.9010   16.5230 C.ar  501  HEM501      0.0000
     10  C4A       24.2130   -3.6830   17.2240 C.ar  501  HEM501      0.0000
     11  CMA       23.6480   -5.9930   15.9720 C.3   501  HEM501      0.0000
     12  CAA       26.7890   -5.9970   15.7890 C.3   501  HEM501      0.0000
     13  CBA       27.0000   -5.6090   14.3150 C.3   501  HEM501      0.0000
     14  CGA       27.7370   -6.6570   13.4820 C.2   501  HEM501      0.0000
     15  O1A       27.9230   -7.7840   13.9730 O.co2 501  HEM501      0.0000
     16  O2A       28.1420   -6.3640   12.3070 O.co2 501  HEM501      0.0000
     17  NB        23.5100   -1.2620   18.7420 N.2   501  HEM501      0.0000
     18  C1B       22.6050   -2.1930   18.2960 C.2   501  HEM501      0.0000
     19  C2B       21.2800   -1.8290   18.7260 C.2   501  HEM501      0.0000
     20  C3B       21.4070   -0.7030   19.4380 C.2   501  HEM501      0.0000
     21  C4B       22.8100   -0.3290   19.4550 C.2   501  HEM501      0.0000
     22  CMB       19.9700   -2.6300   18.4120 C.3   501  HEM501      0.0000
     23  CAB       20.3090    0.1130   20.1290 C.2   501  HEM501      0.0000
     24  CBB       19.0890   -0.3680   20.4310 C.2   501  HEM501      0.0000
     25  NC        25.6410    0.6250   19.4930 N.ar  501  HEM501      0.0000
     26  C1C       24.6260    1.1940   20.1900 C.ar  501  HEM501      0.0000
     27  C2C       25.1550    2.3220   20.9390 C.ar  501  HEM501      0.0000
     28  C3C       26.4810    2.4100   20.6840 C.ar  501  HEM501      0.0000
     29  C4C       26.7890    1.3420   19.7460 C.ar  501  HEM501      0.0000
     30  CMC       24.3260    3.2560   21.8610 C.3   501  HEM501      0.0000
     31  CAC       27.4980    3.4160   21.2420 C.2   501  HEM501      0.0000
     32  CBC       27.3260    4.1030   22.3950 C.2   501  HEM501      0.0000
     33  ND        27.5160   -1.1710   18.2240 N.2   501  HEM501      0.0000
     34  C1D       28.3510   -0.1120   18.5740 C.2   501  HEM501      0.0000
     35  C2D       29.7110   -0.4240   18.1950 C.2   501  HEM501      0.0000
     36  C3D       29.6390   -1.7900   17.5730 C.2   501  HEM501      0.0000
     37  C4D       28.2510   -2.1880   17.6520 C.2   501  HEM501      0.0000
     38  CMD       30.9590    0.4610   18.3310 C.3   501  HEM501      0.0000
     39  CAD       30.8170   -2.6190   17.0160 C.3   501  HEM501      0.0000
     40  CBD       31.4830   -3.2680   18.2420 C.3   501  HEM501      0.0000
     41  CGD       32.6700   -4.1420   17.9150 C.2   501  HEM501      0.0000
     42  O1D       33.7160   -4.0300   18.6210 O.co2 501  HEM501      0.0000
     43  O2D       32.5600   -4.9540   16.9670 O.co2 501  HEM501      0.0000
@<TRIPOS>BOND
     1    16    14   ar
     2    14    15   ar
     3    14    13    1
     4    13    12    1
     5    12     8    1
     6    11     9    1
     7     8     9   ar
     8     8     7   ar
     9     9    10   ar
    10    43    41   ar
    11    39    36    1
    12    39    40    1
    13     7     2    2
    14     7     6   ar
    15     2    37    1
    16    10     3    2
    17    10     6   ar
    18     3    18    1
    19     6     1    1
    20    36    37    1
    21    36    35    2
    22    37    33    2
    23    41    40    1
    24    41    42   ar
    25    35    38    1
    26    35    34    1
    27    33    34    1
    28    33     1    1
    29    18    19    1
    30    18    17    2
    31    22    19    1
    32    34     5    2
    33     1    17    1
    34     1    25    1
    35    19    20    2
    36    17    21    1
    37     5    29    1
    38    20    21    1
    39    20    23    1
    40    21     4    2
    41    25    29   ar
    42    25    26   ar
    43    29    28   ar
    44     4    26    1
    45    23    24    2
    46    26    27   ar
    47    28    27   ar
    48    28    31    1
    49    27    30    1
    50    31    32    2
