@<TRIPOS>MOLECULE
3dgl_ATP_A_1.pdb
 31 33 0 0 0
SMALL
GASTEIGER

@<TRIPOS>ATOM
      1  PG        25.4120  -13.1530  -18.5240 P.3    81  ATP81       0.5373
      2  O1G       25.5750  -14.4010  -17.6950 O.3    81  ATP81      -0.1143
      3  O2G       24.2430  -13.2210  -19.4840 O.2    81  ATP81      -0.2221
      4  O3G       25.4970  -11.8660  -17.7300 O.3    81  ATP81      -0.1143
      5  PB        27.0240  -11.8110  -20.4090 P.3    81  ATP81       0.2277
      6  O1B       27.6140  -10.7100  -19.5590 O.3    81  ATP81      -0.4368
      7  O2B       25.7940  -11.5470  -21.2440 O.2    81  ATP81      -0.5168
      8  O3B       26.7260  -13.0800  -19.4600 O.3    81  ATP81      -0.2258
      9  PA        29.5490  -13.0230  -21.0010 P.3    81  ATP81       0.2189
     10  O1A       29.7650  -12.8990  -19.5160 O.3    81  ATP81      -0.4371
     11  O2A       30.6360  -12.5860  -21.9480 O.2    81  ATP81      -0.5170
     12  O3A       28.1700  -12.3040  -21.4330 O.3    81  ATP81      -0.2700
     13  O5'       29.2300  -14.5740  -21.3330 O.3    81  ATP81      -0.3112
     14  C5'       28.7710  -15.0140  -22.6130 C.3    81  ATP81       0.1813
     15  C4'       27.7740  -16.1490  -22.3900 C.3    81  ATP81       0.1821
     16  O4'       28.4430  -17.2420  -21.7450 O.3    81  ATP81      -0.3135
     17  C3'       26.6180  -15.7580  -21.4810 C.3    81  ATP81       0.2184
     18  O3'       25.4400  -16.4270  -21.9510 O.3    81  ATP81      -0.2174
     19  C2'       27.0160  -16.3330  -20.1270 C.3    81  ATP81       0.2570
     20  O2'       25.9120  -16.6930  -19.3090 O.3    81  ATP81      -0.2130
     21  C1'       27.7630  -17.5830  -20.5270 C.3    81  ATP81       0.3186
     22  N9        28.7420  -18.0370  -19.5110 N.pl3  81  ATP81      -0.1439
     23  C8        29.3810  -17.2910  -18.5820 C.3    81  ATP81       0.3377
     24  N7        30.2270  -18.0520  -17.8460 N.2    81  ATP81      -0.2095
     25  C5        30.1040  -19.3170  -18.3190 C.2    81  ATP81       0.2526
     26  C6        30.7240  -20.6220  -18.0180 C.2    81  ATP81       0.4393
     27  N6        31.6210  -20.7120  -17.0080 N.pl3  81  ATP81       0.2180
     28  N1        30.3350  -21.6960  -18.7560 N.2    81  ATP81       0.0021
     29  C2        29.4280  -21.6160  -19.7520 C.3    81  ATP81       0.5254
     30  N3        28.8370  -20.4480  -20.0980 N.2    81  ATP81      -0.0055
     31  C4        29.1400  -19.3000  -19.4230 C.2    81  ATP81       0.3518
@<TRIPOS>BOND
     1    14    15    1
     2    14    13    1
     3    15    16    1
     4    15    17    1
     5    18    17    1
     6    11     9    2
     7    16    21    1
     8    17    19    1
     9    12     9    1
    10    12     5    1
    11    13     9    1
    12     7     5    2
    13     9    10    1
    14    21    19    1
    15    21    22    1
    16     5     6    1
    17     5     8    1
    18    19    20    1
    19    30    29    1
    20    30    31    2
    21    29    28    1
    22    22    31    1
    23    22    23    1
    24     3     1    2
    25     8     1    1
    26    31    25    1
    27    28    26    2
    28    23    24    1
    29     1     4    1
    30     1     2    1
    31    25    26    1
    32    25    24    2
    33    26    27    1
