@<TRIPOS>MOLECULE
3dgm_ADP_A_1.pdb
 27 29 0 0 0
SMALL
GASTEIGER

@<TRIPOS>ATOM
      1  PB       -23.0330   12.1710   10.1630 P.3    81  ADP81       0.5373
      2  O1B      -21.6290   12.6920   10.5190 O.3    81  ADP81      -0.1143
      3  O2B      -23.1390   11.3730    8.8260 O.2    81  ADP81      -0.2221
      4  O3B      -23.7100   11.5430   11.4080 O.3    81  ADP81      -0.1143
      5  PA       -25.2060   14.1820   10.2230 P.3    81  ADP81       0.2231
      6  O1A      -24.8520   15.2210   11.2400 O.3    81  ADP81      -0.4370
      7  O2A      -26.2360   13.0660   10.5290 O.2    81  ADP81      -0.5169
      8  O3A      -23.8500   13.5070    9.6340 O.3    81  ADP81      -0.2261
      9  O5'      -25.5690   15.0100    8.9100 O.3    81  ADP81      -0.3111
     10  C5'      -25.9790   14.3980    7.6870 C.3    81  ADP81       0.1813
     11  C4'      -25.9920   15.4630    6.5780 C.3    81  ADP81       0.1821
     12  O4'      -27.2300   16.1800    6.5620 O.3    81  ADP81      -0.3135
     13  C3'      -24.9500   16.5600    6.7080 C.3    81  ADP81       0.2184
     14  O3'      -24.7160   17.0270    5.3590 O.3    81  ADP81      -0.2174
     15  C2'      -25.6820   17.6430    7.4610 C.3    81  ADP81       0.2570
     16  O2'      -25.0460   18.9030    7.2410 O.3    81  ADP81      -0.2130
     17  C1'      -27.0470   17.5710    6.7780 C.3    81  ADP81       0.3186
     18  N9       -28.0890   18.0240    7.7030 N.pl3  81  ADP81      -0.1439
     19  C8       -28.6210   17.2500    8.6850 C.3    81  ADP81       0.3377
     20  N7       -29.5390   17.9650    9.3960 N.2    81  ADP81      -0.2095
     21  C5       -29.5930   19.2110    8.8640 C.2    81  ADP81       0.2526
     22  C6       -30.3530   20.4400    9.1600 C.2    81  ADP81       0.4393
     23  N6       -31.2590   20.4820   10.1840 N.pl3  81  ADP81       0.2180
     24  N1       -30.1060   21.5050    8.3720 N.2    81  ADP81       0.0021
     25  C2       -29.2270   21.4850    7.3500 C.3    81  ADP81       0.5254
     26  N3       -28.4860   20.4120    7.0440 N.2    81  ADP81      -0.0055
     27  C4       -28.6220   19.2610    7.7590 C.2    81  ADP81       0.3518
@<TRIPOS>BOND
     1    14    13    1
     2    12    11    1
     3    12    17    1
     4    11    13    1
     5    11    10    1
     6    13    15    1
     7    17    15    1
     8    17    18    1
     9    26    25    1
    10    26    27    2
    11    16    15    1
    12    25    24    1
    13    10     9    1
    14    18    27    1
    15    18    19    1
    16    27    21    1
    17    24    22    2
    18    19    20    1
    19     3     1    2
    20    21    22    1
    21    21    20    2
    22     9     5    1
    23    22    23    1
    24     8     1    1
    25     8     5    1
    26     1     2    1
    27     1     4    1
    28     5     7    2
    29     5     6    1
