@<TRIPOS>MOLECULE
3dgn_ADP_A_1.pdb
 27 29 0 0 0
SMALL
GASTEIGER

@<TRIPOS>ATOM
      1  PB        23.2420  -11.7800  -17.0160 P.3    81  ADP81       0.5373
      2  O1B       23.0670  -12.4140  -15.6310 O.3    81  ADP81      -0.1143
      3  O2B       21.9830  -11.3650  -17.7770 O.2    81  ADP81      -0.2221
      4  O3B       24.4450  -10.7920  -17.1410 O.3    81  ADP81      -0.1143
      5  PA        24.9910  -13.7930  -17.3060 P.3    81  ADP81       0.2231
      6  O1A       24.5210  -14.8380  -16.2900 O.3    81  ADP81      -0.4370
      7  O2A       26.1210  -12.7630  -17.0320 O.2    81  ADP81      -0.5169
      8  O3A       23.7160  -13.0360  -17.8600 O.3    81  ADP81      -0.2261
      9  O5'       25.2260  -14.5420  -18.7380 O.3    81  ADP81      -0.3111
     10  C5'       25.8420  -14.0290  -19.9540 C.3    81  ADP81       0.1813
     11  C4'       25.5880  -15.0150  -21.1410 C.3    81  ADP81       0.1821
     12  O4'       26.7780  -15.8280  -21.3040 O.3    81  ADP81      -0.3135
     13  C3'       24.4520  -16.0100  -20.8660 C.3    81  ADP81       0.2184
     14  O3'       23.9320  -16.6350  -22.0600 O.3    81  ADP81      -0.2174
     15  C2'       25.1790  -17.0340  -20.0270 C.3    81  ADP81       0.2570
     16  O2'       24.4820  -18.2670  -20.0230 O.3    81  ADP81      -0.2130
     17  C1'       26.5260  -17.1190  -20.7460 C.3    81  ADP81       0.3186
     18  N9        27.6090  -17.5330  -19.8310 N.pl3  81  ADP81      -0.1439
     19  C8        28.1890  -16.7100  -18.9400 C.3    81  ADP81       0.3377
     20  N7        29.1020  -17.4650  -18.2880 N.2    81  ADP81      -0.2095
     21  C5        29.1640  -18.7540  -18.7390 C.2    81  ADP81       0.2526
     22  C6        29.9580  -19.9900  -18.4040 C.2    81  ADP81       0.4393
     23  N6        30.9460  -20.0120  -17.4000 N.pl3  81  ADP81       0.2180
     24  N1        29.6380  -21.1110  -19.1320 N.2    81  ADP81       0.0021
     25  C2        28.6500  -21.0630  -20.0880 C.3    81  ADP81       0.5254
     26  N3        27.9340  -19.9810  -20.4430 N.2    81  ADP81      -0.0055
     27  C4        28.1470  -18.8050  -19.7870 C.2    81  ADP81       0.3518
@<TRIPOS>BOND
     1    14    13    1
     2    12    11    1
     3    12    17    1
     4    11    13    1
     5    11    10    1
     6    13    15    1
     7    17    15    1
     8    17    18    1
     9    26    25    1
    10    26    27    2
    11    25    24    1
    12    15    16    1
    13    10     9    1
    14    18    27    1
    15    18    19    1
    16    27    21    1
    17    24    22    2
    18    19    20    1
    19    21    22    1
    20    21    20    2
    21     9     5    1
    22    22    23    1
    23     8     5    1
    24     8     1    1
    25     3     1    2
    26     5     7    2
    27     5     6    1
    28     4     1    1
    29     1     2    1
