@<TRIPOS>MOLECULE
3dgo_ATP_A_1.pdb
 31 33 0 0 0
SMALL
GASTEIGER

@<TRIPOS>ATOM
      1  PG       -24.5410   10.2270  -17.4600 P.3    82  ATP82       0.5373
      2  O1G      -24.2040    9.9670  -18.9220 O.2    82  ATP82      -0.2221
      3  O2G      -25.8070    9.5150  -17.0000 O.3    82  ATP82      -0.1143
      4  O3G      -23.3600   10.1910  -16.4730 O.3    82  ATP82      -0.1143
      5  PB       -23.9830   13.0730  -17.7870 P.3    82  ATP82       0.2277
      6  O1B      -22.6920   12.4170  -18.3050 O.2    82  ATP82      -0.5168
      7  O2B      -24.0030   13.9840  -16.5660 O.3    82  ATP82      -0.4368
      8  O3B      -24.9830   11.8090  -17.4580 O.3    82  ATP82      -0.2258
      9  PA       -25.5880   12.9030  -20.0670 P.3    82  ATP82       0.2189
     10  O1A      -26.8160   12.5210  -19.2410 O.3    82  ATP82      -0.4371
     11  O2A      -24.7710   11.7890  -20.7670 O.2    82  ATP82      -0.5170
     12  O3A      -24.6680   13.8120  -19.0690 O.3    82  ATP82      -0.2700
     13  O5'      -26.0010   13.9390  -21.2410 O.3    82  ATP82      -0.3112
     14  C5'      -25.4300   13.8760  -22.5460 C.3    82  ATP82       0.1813
     15  C4'      -25.1940   15.3450  -22.7780 C.3    82  ATP82       0.1821
     16  O4'      -26.4130   15.9610  -22.3530 O.3    82  ATP82      -0.3135
     17  C3'      -24.1020   15.8210  -21.8430 C.3    82  ATP82       0.2184
     18  O3'      -23.3870   16.8630  -22.5000 O.3    82  ATP82      -0.2174
     19  C2'      -24.8500   16.4910  -20.7480 C.3    82  ATP82       0.2570
     20  O2'      -24.0700   17.6140  -20.3730 O.3    82  ATP82      -0.2130
     21  C1'      -26.0660   16.9940  -21.4950 C.3    82  ATP82       0.3186
     22  N9       -27.1460   17.2810  -20.5920 N.pl3  82  ATP82      -0.1439
     23  C8       -27.7430   16.4510  -19.7290 C.3    82  ATP82       0.3377
     24  N7       -28.7010   17.1400  -19.0200 N.2    82  ATP82      -0.2095
     25  C5       -28.7070   18.4230  -19.4270 C.2    82  ATP82       0.2526
     26  C6       -29.4430   19.6370  -19.0930 C.2    82  ATP82       0.4393
     27  N6       -30.4120   19.6120  -18.1420 N.pl3  82  ATP82       0.2180
     28  N1       -29.1320   20.7840  -19.7490 N.2    82  ATP82       0.0021
     29  C2       -28.1980   20.7670  -20.6910 C.3    82  ATP82       0.5254
     30  N3       -27.4850   19.6830  -21.0640 N.2    82  ATP82      -0.0055
     31  C4       -27.6840   18.5080  -20.4580 C.2    82  ATP82       0.3518
@<TRIPOS>BOND
     1    15    14    1
     2    15    16    1
     3    15    17    1
     4    14    13    1
     5    18    17    1
     6    16    21    1
     7    17    19    1
     8    21    19    1
     9    21    22    1
    10    13     9    1
    11    30    29    1
    12    30    31    2
    13    11     9    2
    14    19    20    1
    15    29    28    1
    16    22    31    1
    17    22    23    1
    18    31    25    1
    19     9    10    1
    20     9    12    1
    21    28    26    2
    22    23    24    1
    23    25    26    1
    24    25    24    2
    25    26    27    1
    26    12     5    1
    27     2     1    2
    28     6     5    2
    29     5     8    1
    30     5     7    1
    31     1     8    1
    32     1     3    1
    33     1     4    1
