@<TRIPOS>MOLECULE
3dgq_EAA_A_1.pdb
 19 19 0 0 0
SMALL
GASTEIGER

@<TRIPOS>ATOM
      1  C1         5.7560    6.5380   23.0450 C.ar  211  EAA211      0.1506
      2  O2         4.5330    7.1250   22.8830 O.3   211  EAA211     -0.4628
      3  C2         5.9240    5.4080   23.9900 C.ar  211  EAA211      0.1021
      4 CL1         4.5410    4.8050   24.9530 Cl    211  EAA211     -0.0782
      5  C3         7.2590    4.7850   24.1370 C.ar  211  EAA211      0.0742
      6 CL2         7.4260    3.4210   25.2910 Cl    211  EAA211     -0.0812
      7  C4         8.3700    5.3430   23.3070 C.ar  211  EAA211      0.0502
      8  C5         8.1040    6.4140   22.4490 C.ar  211  EAA211      0.0072
      9  C6         6.8480    6.9950   22.3140 C.ar  211  EAA211      0.0380
     10  C7         9.7950    4.8600   23.3030 C.2   211  EAA211      0.1925
     11  O1        10.5650    5.4430   22.5620 O.2   211  EAA211     -0.2869
     12  C8        10.3100    3.7580   24.1140 C.2   211  EAA211      0.0168
     13  C9        10.4520    3.8960   25.6170 C.3   211  EAA211      0.0296
     14  C10       11.6810    4.6970   25.9860 C.3   211  EAA211      0.0051
     15  C11       10.6750    2.6360   23.5200 C.2   211  EAA211     -0.0013
     16  C12        3.6840    6.6430   21.8390 C.3   211  EAA211      0.3186
     17  C13        3.9340    7.4150   20.5620 C.2   211  EAA211      0.4084
     18  O          4.9600    7.1700   19.8850 O.co2 211  EAA211     -0.2415
     19  OXT        3.0900    8.2750   20.2310 O.co2 211  EAA211     -0.2415
@<TRIPOS>BOND
     1    18    17   ar
     2    19    17   ar
     3    17    16    1
     4    16     2    1
     5     9     8   ar
     6     9     1   ar
     7     8     7   ar
     8    11    10    2
     9     2     1    1
    10     1     3   ar
    11    10     7    1
    12    10    12    1
    13     7     5   ar
    14    15    12    2
    15     3     5   ar
    16     3     4    1
    17    12    13    1
    18     5     6    1
    19    13    14    1
