@<TRIPOS>MOLECULE
3dgr_A12_A_1.pdb
 27 29 0 0 0
SMALL
GASTEIGER

@<TRIPOS>ATOM
      1  PB         9.2570   21.5650   12.5820 P.3   501  A12501      0.1295
      2  O1B        9.9890   22.7250   13.2490 O.3   501  A12501     -0.3567
      3  O2B        7.5420   21.9690   12.5930 O.2   501  A12501     -0.4595
      4  O3B        9.4080   20.2300   13.2090 O.3   501  A12501     -0.3567
      5  PA        11.4780   20.4090   11.0850 P.3   501  A12501      0.3770
      6  O1A       12.3260   20.9760   12.2970 O.3   501  A12501     -0.1394
      7  O2A       12.2560   20.5640    9.4860 O.2   501  A12501     -0.2550
      8  C3A        9.8800   21.2780   10.9160 C.3   501  A12501      0.1765
      9  O5'       11.2940   18.8330   11.3390 O.3   501  A12501     -0.2897
     10  C5'       12.1840   17.8480   10.7990 C.3   501  A12501      0.1836
     11  C4'       11.3020   16.8350   10.0710 C.3   501  A12501      0.1822
     12  O4'       10.6920   17.4210    8.8930 O.3   501  A12501     -0.3135
     13  C3'       12.0960   15.6340    9.5750 C.3   501  A12501      0.2184
     14  O3'       12.2290   14.5720   10.5360 O.3   501  A12501     -0.2174
     15  C2'       11.3430   15.2370    8.3120 C.3   501  A12501      0.2570
     16  O2'       10.2200   14.3880    8.5560 O.3   501  A12501     -0.2130
     17  C1'       10.9010   16.5820    7.7550 C.3   501  A12501      0.3186
     18  N9        12.0220   17.0340    6.8850 N.pl3 501  A12501     -0.1439
     19  C8        13.0160   17.9030    7.1680 C.3   501  A12501      0.3377
     20  N7        13.8330   17.9980    6.1010 N.2   501  A12501     -0.2095
     21  C5        13.3710   17.1820    5.1390 C.2   501  A12501      0.2526
     22  C6        13.7900   16.8750    3.8440 C.2   501  A12501      0.4393
     23  N6        14.8990   17.4090    3.2790 N.pl3 501  A12501      0.2180
     24  N1        13.0720   15.9800    3.1440 N.2   501  A12501      0.0021
     25  C2        11.9750   15.3760    3.6610 C.3   501  A12501      0.5254
     26  N3        11.5340   15.6550    4.8970 N.2   501  A12501     -0.0055
     27  C4        12.2310   16.5630    5.6490 C.2   501  A12501      0.3518
@<TRIPOS>BOND
     1    24    25    1
     2    24    22    2
     3    23    22    1
     4    25    26    1
     5    22    21    1
     6    26    27    2
     7    21    27    1
     8    21    20    2
     9    27    18    1
    10    20    19    1
    11    18    19    1
    12    18    17    1
    13    17    15    1
    14    17    12    1
    15    15    16    1
    16    15    13    1
    17    12    11    1
    18     7     5    2
    19    13    11    1
    20    13    14    1
    21    11    10    1
    22    10     9    1
    23     8     5    1
    24     8     1    1
    25     5     9    1
    26     5     6    1
    27     1     3    2
    28     1     4    1
    29     1     2    1
