@<TRIPOS>MOLECULE
3dgy_BGC_A_1.pdb
 12 12 0 0 0
SMALL
GASTEIGER

@<TRIPOS>ATOM
      1  C2        73.2060  -26.8480  -19.5820 C.3    99  BGC99       0.2434
      2  C3        73.9050  -26.3790  -18.3050 C.3    99  BGC99       0.2199
      3  C4        72.9220  -25.5800  -17.4510 C.3    99  BGC99       0.2144
      4  C5        71.7160  -26.4650  -17.1720 C.3    99  BGC99       0.1836
      5  C6        70.7180  -25.8170  -16.2210 C.3    99  BGC99       0.2142
      6  C1        71.8830  -27.5360  -19.2650 C.3    99  BGC99       0.3024
      7  O1        71.1830  -27.7930  -20.4730 O.3    99  BGC99      -0.1869
      8  O2        74.0190  -27.7440  -20.3060 O.3    99  BGC99      -0.2148
      9  O3        75.0300  -25.5820  -18.6180 O.3    99  BGC99      -0.2174
     10  O4        73.5210  -25.0540  -16.2800 O.3    99  BGC99      -0.2176
     11  O5        71.1070  -26.7100  -18.4240 O.3    99  BGC99      -0.3236
     12  O6        70.0970  -24.6930  -16.8050 O.3    99  BGC99      -0.2176
@<TRIPOS>BOND
     1     7     6    1
     2     8     1    1
     3     1     6    1
     4     1     2    1
     5     6    11    1
     6     9     2    1
     7    11     4    1
     8     2     3    1
     9     3     4    1
    10     3    10    1
    11     4     5    1
    12    12     5    1
