@<TRIPOS>MOLECULE
3dgy_2GP_B_1.pdb
 24 26 0 0 0
SMALL
GASTEIGER

@<TRIPOS>ATOM
      1  P         58.7300  -38.9310   29.0890 P.3    98  2GP98       0.5327
      2  O1P       57.4590  -38.3750   28.5250 O.3    98  2GP98      -0.1145
      3  O2P       58.5410  -40.3940   29.4150 O.3    98  2GP98      -0.1145
      4  O3P       59.8080  -38.7750   28.0490 O.2    98  2GP98      -0.2224
      5  O5'       61.4630  -38.1530   35.1110 O.3    98  2GP98      -0.2176
      6  C5'       60.2230  -38.6420   34.6080 C.3    98  2GP98       0.2142
      7  C4'       59.9320  -38.1310   33.1960 C.3    98  2GP98       0.1827
      8  O4'       60.3730  -36.7860   32.9510 O.3    98  2GP98      -0.3326
      9  C3'       60.5870  -38.9390   32.0890 C.3    98  2GP98       0.2132
     10  O3'       59.9650  -40.2210   31.8880 O.3    98  2GP98      -0.2176
     11  C2'       60.4280  -37.9820   30.9180 C.3    98  2GP98       0.2054
     12  O2'       59.1120  -38.0990   30.3960 O.3    98  2GP98      -0.2657
     13  C1'       60.5210  -36.5870   31.5220 C.3    98  2GP98       0.2266
     14  N9        61.7860  -35.8360   31.3590 N.pl3  98  2GP98      -0.2354
     15  C8        61.8770  -34.4960   31.2500 C.3    98  2GP98       0.2246
     16  N7        63.1700  -34.0940   31.1770 N.2    98  2GP98      -0.2322
     17  C5        63.9190  -35.2090   31.2440 C.2    98  2GP98       0.2182
     18  C6        65.3560  -35.5230   31.2310 C.1    98  2GP98       0.2372
     19  O6        66.1870  -34.6040   31.1200 O.2    98  2GP98      -0.2069
     20  N1        65.7180  -36.8160   31.3300 N.2    98  2GP98      -0.2485
     21  C2        64.8290  -37.8220   31.4500 C.1    98  2GP98       0.2531
     22  N2        65.2580  -39.1140   31.5510 N.pl3  98  2GP98      -0.0226
     23  N3        63.5010  -37.6050   31.4740 N.2    98  2GP98      -0.3074
     24  C4        63.0050  -36.3510   31.3750 C.2    98  2GP98       0.2300
@<TRIPOS>BOND
     1     4     1    2
     2     2     1    1
     3     1     3    1
     4     1    12    1
     5    12    11    1
     6    11    13    1
     7    11     9    1
     8    19    18    2
     9    16    17    2
    10    16    15    1
    11    18    17    1
    12    18    20    2
    13    17    24    1
    14    15    14    1
    15    20    21    2
    16    14    24    1
    17    14    13    1
    18    24    23    2
    19    21    23    2
    20    21    22    1
    21    13     8    1
    22    10     9    1
    23     9     7    1
    24     8     7    1
    25     7     6    1
    26     6     5    1
