@<TRIPOS>MOLECULE
3dgz_NA7_A_1.pdb
 39 42 0 0 0
SMALL
GASTEIGER

@<TRIPOS>ATOM
      1  PA       104.9490  103.9480  -43.4120 P.3   501  NA7501      0.2189
      2  O1A      106.1630  103.8560  -44.2860 O.2   501  NA7501     -0.5170
      3  O2A      105.0660  105.2170  -42.6410 O.3   501  NA7501     -0.4371
      4  O5B      104.7910  102.6840  -42.3730 O.3   501  NA7501     -0.3112
      5  C5B      105.4030  101.4070  -42.5550 C.3   501  NA7501      0.1813
      6  C4B      106.0090  100.7960  -41.2810 C.3   501  NA7501      0.1820
      7  O4B      106.7770   99.6290  -41.5810 O.3   501  NA7501     -0.3136
      8  C3B      106.9290  101.7970  -40.5740 C.3   501  NA7501      0.2157
      9  O3B      106.5510  102.0030  -39.2150 O.3   501  NA7501     -0.2175
     10  C2B      108.3550  101.2700  -40.8640 C.3   501  NA7501      0.2314
     11  O2B      109.3870  101.3430  -39.8780 O.3   501  NA7501     -0.2630
     12  C1B      108.1930   99.8460  -41.3850 C.3   501  NA7501      0.3158
     13  N9A      109.0670   99.7800  -42.5990 N.pl3 501  NA7501     -0.1439
     14  C8A      109.0850  100.7110  -43.6290 C.3   501  NA7501      0.3377
     15  N7A      109.9970  100.3320  -44.5500 N.2   501  NA7501     -0.2095
     16  C5A      110.5810   99.1850  -44.1290 C.2   501  NA7501      0.2526
     17  C6A      111.5640   98.3750  -44.6920 C.2   501  NA7501      0.4393
     18  N6A      111.9140   98.5950  -45.9600 N.pl3 501  NA7501      0.2180
     19  N1A      111.9820   97.2130  -44.0370 N.2   501  NA7501      0.0021
     20  C2A      111.4270   96.8510  -42.8260 C.3   501  NA7501      0.5254
     21  N3A      110.4420   97.6680  -42.2830 N.2   501  NA7501     -0.0055
     22  C4A      110.0230   98.8210  -42.9050 C.2   501  NA7501      0.3518
     23  O3       103.5200  103.8880  -44.2460 O.3   501  NA7501     -0.2703
     24  PN       102.9340  104.6930  -45.5740 P.3   501  NA7501      0.2189
     25  O1N      104.0290  104.8320  -46.5730 O.2   501  NA7501     -0.5170
     26  O2N      101.6370  104.0690  -45.9680 O.3   501  NA7501     -0.4371
     27  O5D      102.5610  106.1720  -44.9980 O.3   501  NA7501     -0.3112
     28  C5D      102.3570  107.3210  -45.8140 C.3   501  NA7501      0.1812
     29  C4D      103.2740  108.4770  -45.4020 C.3   501  NA7501      0.1780
     30  O4D      102.6440  109.2220  -44.3710 O.3   501  NA7501     -0.3482
     31  C3D      104.6470  108.0030  -44.8960 C.3   501  NA7501      0.2140
     32  O3D      105.7290  108.5530  -45.6330 O.3   501  NA7501     -0.2176
     33  C2D      104.6940  108.3980  -43.4270 C.3   501  NA7501      0.2140
     34  O2D      105.8990  109.0640  -43.0930 O.3   501  NA7501     -0.2176
     35  C1D      103.4470  109.2620  -43.1900 C.3   501  NA7501      0.1777
     36  P2B      110.1730  102.7350  -39.6900 P.3   501  NA7501      0.5328
     37  O1X      111.4380  102.4940  -38.8990 O.3   501  NA7501     -0.1145
     38  O2X      110.4010  103.4340  -41.0230 O.2   501  NA7501     -0.2224
     39  O3X      109.3220  103.6900  -38.8990 O.3   501  NA7501     -0.1145
@<TRIPOS>BOND
     1    25    24    2
     2    26    24    1
     3    18    17    1
     4    28    29    1
     5    28    27    1
     6    32    31    1
     7    24    27    1
     8    24    23    1
     9    29    31    1
    10    29    30    1
    11    31    33    1
    12    17    16    1
    13    17    19    2
    14    15    16    2
    15    15    14    1
    16    30    35    1
    17     2     1    2
    18    23     1    1
    19    16    22    1
    20    19    20    1
    21    14    13    1
    22    33    35    1
    23    33    34    1
    24     1     3    1
    25     1     4    1
    26    22    13    1
    27    22    21    2
    28    20    21    1
    29    13    12    1
    30     5     4    1
    31     5     6    1
    32     7    12    1
    33     7     6    1
    34    12    10    1
    35     6     8    1
    36    38    36    2
    37    10     8    1
    38    10    11    1
    39     8     9    1
    40    11    36    1
    41    36    37    1
    42    36    39    1
