@<TRIPOS>MOLECULE
3dh0_SAM_A_1.pdb
 27 29 0 0 0
SMALL
GASTEIGER

@<TRIPOS>ATOM
      1  N         27.4300    4.3930   29.2240 N.3   220  SAM220     -0.1208
      2  CA        26.7430    3.8180   30.4210 C.3   220  SAM220      0.1952
      3  C         27.3720    4.3380   31.6930 C.2   220  SAM220      0.3819
      4  O         28.3210    5.1180   31.6050 O.co2 220  SAM220     -0.2441
      5  OXT       26.8520    3.9140   32.7760 O.co2 220  SAM220     -0.2441
      6  CB        26.8380    2.2960   30.3880 C.3   220  SAM220      0.0414
      7  CG        26.5340    1.8220   29.0250 C.3   220  SAM220      0.0503
      8  SD        26.5650    0.0510   28.6350 S.3   220  SAM220     -0.1761
      9  CE        28.3150   -0.3350   28.7060 C.3   220  SAM220      0.0590
     10  C5'       26.1600    0.0980   26.9530 C.3   220  SAM220      0.0806
     11  C4'       24.7090    0.3910   26.6320 C.3   220  SAM220      0.1622
     12  O4'       24.6640    0.4490   25.2110 O.3   220  SAM220     -0.3153
     13  C3'       23.7660   -0.7870   26.9460 C.3   220  SAM220      0.2168
     14  O3'       22.9320   -0.3150   28.0430 O.3   220  SAM220     -0.2175
     15  C2'       22.8960   -0.9710   25.7180 C.3   220  SAM220      0.2569
     16  O2'       21.5050   -1.1490   25.8810 O.3   220  SAM220     -0.2130
     17  C1'       23.3690    0.2240   24.8330 C.3   220  SAM220      0.3185
     18  N9        23.4090    0.0190   23.3980 N.pl3 220  SAM220     -0.1439
     19  C8        23.8940   -1.0400   22.6570 C.3   220  SAM220      0.3377
     20  N7        23.7780   -0.8650   21.3780 N.2   220  SAM220     -0.2095
     21  C5        23.1770    0.3870   21.2540 C.2   220  SAM220      0.2526
     22  C6        22.7870    1.1640   20.1250 C.2   220  SAM220      0.4393
     23  N6        22.9660    0.7250   18.8600 N.pl3 220  SAM220      0.2180
     24  N1        22.2040    2.4050   20.3480 N.2   220  SAM220      0.0021
     25  C2        22.0420    2.8050   21.6320 C.3   220  SAM220      0.5254
     26  N3        22.3750    2.1550   22.7520 N.2   220  SAM220     -0.0055
     27  C4        22.9440    0.9450   22.4930 C.2   220  SAM220      0.3518
@<TRIPOS>BOND
     1    23    22    1
     2    22    24    2
     3    22    21    1
     4    24    25    1
     5    21    20    2
     6    21    27    1
     7    20    19    1
     8    25    26    1
     9    27    26    2
    10    27    18    1
    11    19    18    1
    12    18    17    1
    13    17    12    1
    14    17    15    1
    15    12    11    1
    16    15    16    1
    17    15    13    1
    18    11    13    1
    19    11    10    1
    20    13    14    1
    21    10     8    1
    22     8     9    1
    23     8     7    1
    24     7     6    1
    25     1     2    1
    26     6     2    1
    27     2     3    1
    28     4     3   ar
    29     3     5   ar
