@<TRIPOS>MOLECULE
3dh2_BGC_A_1.pdb
 12 12 0 0 0
SMALL
GASTEIGER

@<TRIPOS>ATOM
      1  C2        90.9770   14.5350   13.5790 C.3    99  BGC99       0.2434
      2  C3        91.0570   13.8500   12.2220 C.3    99  BGC99       0.2199
      3  C4        92.4510   13.4860   11.7120 C.3    99  BGC99       0.2144
      4  C5        93.5810   14.4070   12.1830 C.3    99  BGC99       0.1836
      5  C6        94.6030   14.7690   11.0830 C.3    99  BGC99       0.2142
      6  C1        92.2780   15.2350   13.9670 C.3    99  BGC99       0.3024
      7  O1        92.0030   16.4200   14.6980 O.3    99  BGC99      -0.1869
      8  O2        90.6420   13.5520   14.5100 O.3    99  BGC99      -0.2148
      9  O3        90.4320   14.6770   11.2720 O.3    99  BGC99      -0.2174
     10  O4        92.6960   12.1610   12.1050 O.3    99  BGC99      -0.2176
     11  O5        93.0190   15.5580   12.7930 O.3    99  BGC99      -0.3236
     12  O6        95.8270   15.2790   11.5980 O.3    99  BGC99      -0.2176
@<TRIPOS>BOND
     1     5    12    1
     2     5     4    1
     3     9     2    1
     4     3    10    1
     5     3     4    1
     6     3     2    1
     7     4    11    1
     8     2     1    1
     9    11     6    1
    10     1     6    1
    11     1     8    1
    12     6     7    1
