@<TRIPOS>MOLECULE
3dh2_3GP_A_1.pdb
 24 26 0 0 0
SMALL
GASTEIGER

@<TRIPOS>ATOM
      1  P         92.5610    5.0520   17.3650 P.3    98  3GP98       0.5327
      2  O1P       92.7780    6.1420   16.3380 O.2    98  3GP98      -0.2224
      3  O2P       91.1040    4.6440   17.2900 O.3    98  3GP98      -0.1145
      4  O3P       92.9280    5.5410   18.7440 O.3    98  3GP98      -0.1145
      5  O5'       94.9400    3.5840   12.8270 O.3    98  3GP98      -0.2176
      6  C5'       93.6740    4.0880   13.2510 C.3    98  3GP98       0.2141
      7  C4'       93.1750    3.5150   14.5920 C.3    98  3GP98       0.1802
      8  O4'       92.9620    2.1140   14.5270 O.3    98  3GP98      -0.3326
      9  C3'       94.1760    3.7270   15.7230 C.3    98  3GP98       0.1903
     10  O3'       93.5350    3.8250   16.9850 O.3    98  3GP98      -0.2674
     11  C2'       94.9570    2.4380   15.7150 C.3    98  3GP98       0.2283
     12  O2'       95.5260    2.2680   16.9670 O.3    98  3GP98      -0.2159
     13  C1'       93.8360    1.4580   15.4460 C.3    98  3GP98       0.2292
     14  N9        94.2230    0.1690   14.8800 N.pl3  98  3GP98      -0.2354
     15  C8        94.5560   -0.1180   13.5710 C.3    98  3GP98       0.2246
     16  N7        94.8000   -1.4490   13.4640 N.2    98  3GP98      -0.2322
     17  C5        94.6210   -1.9920   14.6970 C.2    98  3GP98       0.2182
     18  C6        94.7350   -3.2790   15.1750 C.1    98  3GP98       0.2372
     19  O6        95.0400   -4.1950   14.4230 O.2    98  3GP98      -0.2069
     20  N1        94.4880   -3.5390   16.4900 N.2    98  3GP98      -0.2485
     21  C2        94.1160   -2.5440   17.3560 C.1    98  3GP98       0.2531
     22  N2        93.8790   -2.8260   18.6350 N.pl3  98  3GP98      -0.0226
     23  N3        94.0110   -1.2650   16.8970 N.2    98  3GP98      -0.3074
     24  C4        94.2520   -0.9960   15.5870 C.2    98  3GP98       0.2300
@<TRIPOS>BOND
     1     5     6    1
     2     6     7    1
     3    16    15    1
     4    16    17    2
     5    15    14    1
     6    19    18    2
     7     8     7    1
     8     8    13    1
     9     7     9    1
    10    17    18    1
    11    17    24    1
    12    14    13    1
    13    14    24    1
    14    18    20    2
    15    13    11    1
    16    24    23    2
    17    11     9    1
    18    11    12    1
    19     9    10    1
    20     2     1    2
    21    20    21    2
    22    23    21    2
    23    10     1    1
    24     3     1    1
    25    21    22    1
    26     1     4    1
