@<TRIPOS>MOLECULE
3dh4_GAL_A_1.pdb
 12 12 0 0 0
SMALL
GASTEIGER

@<TRIPOS>ATOM
      1  C1        27.4120  -45.1300   60.3140 C.3   701  GAL701      0.3024
      2  C2        26.0230  -45.3890   60.8850 C.3   701  GAL701      0.2434
      3  C3        25.8080  -44.5570   62.1440 C.3   701  GAL701      0.2199
      4  C4        26.9810  -44.6830   63.1090 C.3   701  GAL701      0.2144
      5  C5        28.3250  -44.5850   62.3960 C.3   701  GAL701      0.1836
      6  C6        29.4750  -44.9100   63.3410 C.3   701  GAL701      0.2142
      7  O1        27.6150  -45.9220   59.1650 O.3   701  GAL701     -0.1869
      8  O2        25.0430  -45.0560   59.9270 O.3   701  GAL701     -0.2148
      9  O3        24.6200  -44.9690   62.7820 O.3   701  GAL701     -0.2174
     10  O4        26.8980  -45.9000   63.8160 O.3   701  GAL701     -0.2176
     11  O5        28.3730  -45.4600   61.2920 O.3   701  GAL701     -0.3236
     12  O6        30.6950  -44.5890   62.7110 O.3   701  GAL701     -0.2176
@<TRIPOS>BOND
     1     7     1    1
     2     8     2    1
     3     1     2    1
     4     1    11    1
     5     2     3    1
     6    11     5    1
     7     3     9    1
     8     3     4    1
     9     5     4    1
    10     5     6    1
    11    12     6    1
    12     4    10    1
