@<TRIPOS>MOLECULE
3dh7_FMN_A_1.pdb
 31 33 0 0 0
SMALL
GASTEIGER

@<TRIPOS>ATOM
      1  N1        47.5900  -43.9680    7.4420 N.2   502  FMN502     -0.2887
      2  C2        48.1970  -43.7450    8.6170 C.1   502  FMN502      0.3669
      3  O2        48.7020  -42.6370    8.8030 O.2   502  FMN502     -0.1744
      4  N3        48.2700  -44.6730    9.5740 N.2   502  FMN502     -0.2300
      5  C4        47.7850  -45.9140    9.4470 C.1   502  FMN502      0.2513
      6  O4        47.9230  -46.7370   10.3980 O.2   502  FMN502     -0.2057
      7  C4A       47.1400  -46.2390    8.2390 C.2   502  FMN502      0.2706
      8  N5        46.6050  -47.4810    8.0110 N.2   502  FMN502     -0.3841
      9  C5A       45.9930  -47.7710    6.8110 C.2   502  FMN502      0.1452
     10  C6        45.4870  -48.9000    6.5680 C.2   502  FMN502      0.0252
     11  C7        44.9310  -49.1240    5.4680 C.2   502  FMN502     -0.0375
     12  C7M       44.4000  -50.5280    5.3900 C.3   502  FMN502      0.0268
     13  C8        44.8480  -48.2160    4.5420 C.3   502  FMN502      0.0417
     14  C8M       44.1960  -48.4350    3.2230 C.3   502  FMN502      0.0091
     15  C9        45.3140  -47.0500    4.6630 C.2   502  FMN502     -0.0049
     16  C9A       45.9000  -46.7270    5.7430 C.2   502  FMN502      0.0795
     17  N10       46.4280  -45.4500    5.9260 N.pl3 502  FMN502     -0.2545
     18  C10       47.0360  -45.1810    7.1530 C.2   502  FMN502      0.2449
     19  C1'       46.3260  -44.3720    4.8800 C.3   502  FMN502      0.1336
     20  C2'       47.5320  -44.1660    3.9400 C.3   502  FMN502      0.2048
     21  O2'       48.8420  -44.3310    4.5240 O.3   502  FMN502     -0.2185
     22  C3'       47.5410  -42.8110    3.1970 C.3   502  FMN502      0.2165
     23  O3'       47.5930  -41.5850    4.0100 O.3   502  FMN502     -0.2175
     24  C4'       46.5570  -42.7570    1.9730 C.3   502  FMN502      0.2147
     25  O4'       46.5750  -41.3900    1.4620 O.3   502  FMN502     -0.2176
     26  C5'       45.1340  -43.4320    2.0120 C.3   502  FMN502      0.1892
     27  O5'       44.9840  -44.3370    0.8750 O.3   502  FMN502     -0.2674
     28  P         45.3470  -44.0260   -0.6780 P.3   502  FMN502      0.5327
     29  O1P       46.2320  -45.1220   -1.1470 O.3   502  FMN502     -0.1145
     30  O2P       46.2330  -42.8760   -0.7960 O.3   502  FMN502     -0.1145
     31  O3P       44.0390  -43.7590   -1.3460 O.2   502  FMN502     -0.2224
@<TRIPOS>BOND
     1    31    28    2
     2    29    28    1
     3    30    28    1
     4    28    27    1
     5    27    26    1
     6    25    24    1
     7    24    26    1
     8    24    22    1
     9    22    20    1
    10    22    23    1
    11    14    13    1
    12    20    21    1
    13    20    19    1
    14    13    15    1
    15    13    11    1
    16    15    16    2
    17    19    17    1
    18    12    11    1
    19    11    10    2
    20    16    17    1
    21    16     9    1
    22    17    18    1
    23    10     9    1
    24     9     8    2
    25    18     1    2
    26    18     7    1
    27     1     2    2
    28     8     7    2
    29     7     5    1
    30     2     3    2
    31     2     4    2
    32     5     4    2
    33     5     6    2
