@<TRIPOS>MOLECULE
3dh8_B4N_A_1.pdb
 23 24 0 0 0
SMALL
GASTEIGER

@<TRIPOS>ATOM
      1  CAG      -17.5180    1.5070  -14.4010 C.ar  1000  B4N1000     0.0390
      2  CAK      -17.4470    2.0810  -15.7100 C.ar  1000  B4N1000     0.0272
      3  CAS      -16.6870    3.2360  -15.8860 C.ar  1000  B4N1000     0.1431
      4  NAU      -16.4690    3.7850  -17.1270 N.pl3 1000  B4N1000     0.0577
      5  OAD      -17.3310    3.6360  -18.1910 O.2   1000  B4N1000    -0.1261
      6  OAA      -15.2180    4.4010  -17.4310 O.2   1000  B4N1000    -0.1261
      7  CAL      -16.0160    3.8310  -14.8200 C.ar  1000  B4N1000     0.0272
      8  CAH      -16.1020    3.3160  -13.5260 C.ar  1000  B4N1000     0.0390
      9  CAQ      -16.8640    2.1410  -13.3450 C.ar  1000  B4N1000     0.1457
     10  OAO      -16.7690    1.7050  -12.0510 O.3   1000  B4N1000    -0.4317
     11  PAW      -17.7280    0.6880  -11.3170 P.3   1000  B4N1000     0.3265
     12  OAF      -18.7650    0.1390  -12.2440 O.2   1000  B4N1000    -0.4990
     13  OAC      -16.9720   -0.1720  -10.3730 O.3   1000  B4N1000    -0.4172
     14  OAP      -18.5620    1.7460  -10.4810 O.3   1000  B4N1000    -0.4317
     15  CAR      -18.3630    1.9810   -9.1520 C.ar  1000  B4N1000     0.1457
     16  CAI      -19.2760    1.4350   -8.2960 C.ar  1000  B4N1000     0.0390
     17  CAM      -19.2340    1.5930   -6.9370 C.ar  1000  B4N1000     0.0272
     18  CAT      -18.2300    2.4040   -6.4350 C.ar  1000  B4N1000     0.1431
     19  NAV      -18.1920    2.6560   -5.1040 N.pl3 1000  B4N1000     0.0577
     20  OAE      -17.7590    1.6890   -4.1690 O.2   1000  B4N1000    -0.1261
     21  OAB      -18.5940    3.9980   -4.8140 O.2   1000  B4N1000    -0.1261
     22  CAN      -17.3090    3.0450   -7.3030 C.ar  1000  B4N1000     0.0272
     23  CAJ      -17.3600    2.8270   -8.7040 C.ar  1000  B4N1000     0.0390
@<TRIPOS>BOND
     1     5     4    2
     2     6     4    2
     3     4     3    1
     4     3     2   ar
     5     3     7   ar
     6     2     1   ar
     7     7     8   ar
     8     1     9   ar
     9     8     9   ar
    10     9    10    1
    11    12    11    2
    12    10    11    1
    13    11    14    1
    14    11    13    1
    15    14    15    1
    16    15    23   ar
    17    15    16   ar
    18    23    22   ar
    19    16    17   ar
    20    22    18   ar
    21    17    18   ar
    22    18    19    1
    23    19    21    2
    24    19    20    2
