@<TRIPOS>MOLECULE
3dha_C6L_A_1.pdb
 15 14 0 0 0
SMALL
GASTEIGER

@<TRIPOS>ATOM
      1  O4       -17.8600   -5.3680   17.4540 O.2   257  C6L257     -0.2684
      2  C5       -17.3060   -5.8550   16.4240 C.2   257  C6L257      0.2651
      3  C6       -17.4630   -5.3860   14.9980 C.2   257  C6L257      0.0549
      4  C7       -18.8230   -5.4790   14.3930 C.2   257  C6L257     -0.0214
      5  C8       -19.9590   -6.1740   15.1070 C.3   257  C6L257      0.0262
      6  C9       -21.1930   -6.3450   14.2370 C.3   257  C6L257      0.0047
      7  C10      -22.3570   -6.9840   14.9980 C.3   257  C6L257      0.0004
      8  N1       -16.4960   -6.9170   16.6060 N.am  257  C6L257     -0.1918
      9  C3       -16.2400   -7.5920   17.9000 C.3   257  C6L257      0.2007
     10  C4       -14.7770   -8.0190   18.0100 C.2   257  C6L257      0.3843
     11  O2       -14.3200   -8.3900   16.9430 O.co2 257  C6L257     -0.2437
     12  O1       -14.1550   -7.9750   19.1190 O.co2 257  C6L257     -0.2437
     13  C2       -17.1080   -8.8810   17.9240 C.3   257  C6L257      0.0688
     14  C1       -16.9750   -9.7460   19.1880 C.3   257  C6L257      0.1845
     15  O3       -17.6520   -9.1590   20.2960 O.3   257  C6L257     -0.2203
@<TRIPOS>BOND
     1     6     7    1
     2     6     5    1
     3     4     3    2
     4     4     5    1
     5     3     2    1
     6     2     8   am
     7     2     1    2
     8     8     9    1
     9    11    10   ar
    10     9    13    1
    11     9    10    1
    12    13    14    1
    13    10    12   ar
    14    14    15    1
