@<TRIPOS>MOLECULE
3dhb_C6L_A_1.pdb
 15 14 0 0 0
SMALL
GASTEIGER

@<TRIPOS>ATOM
      1  O4       -15.2070   -7.7510   15.4300 O.2   253  C6L253     -0.2733
      2  C5       -16.0640   -6.9600   15.2050 C.2   253  C6L253      0.2418
      3  C6       -16.8330   -6.3440   16.3840 C.3   253  C6L253      0.0868
      4  C7       -17.9710   -5.3500   16.1570 C.3   253  C6L253      0.0096
      5  C8       -17.8240   -3.8770   15.7420 C.3   253  C6L253      0.0005
      6  C9       -18.6340   -2.8920   16.5750 C.3   253  C6L253      0.0000
      7  C10      -17.7240   -2.4830   17.7300 C.3   253  C6L253      0.0000
      8  N1       -16.3070   -6.5460   13.9960 N.am  253  C6L253     -0.1955
      9  C3       -15.5730   -6.9890   12.8140 C.3   253  C6L253      0.2003
     10  C4       -14.5500   -5.9580   12.3060 C.2   253  C6L253      0.3843
     11  O2       -14.2580   -5.8840   11.1350 O.co2 253  C6L253     -0.2437
     12  O1       -13.9450   -5.2270   13.0800 O.co2 253  C6L253     -0.2437
     13  C2       -16.5710   -7.2740   11.6930 C.3   253  C6L253      0.0688
     14  C1       -16.1060   -8.3090   10.6590 C.3   253  C6L253      0.1845
     15  O3       -15.1110   -7.7920    9.7680 O.3   253  C6L253     -0.2203
@<TRIPOS>BOND
     1    15    14    1
     2    14    13    1
     3    11    10   ar
     4    13     9    1
     5    10     9    1
     6    10    12   ar
     7     9     8    1
     8     8     2   am
     9     2     1    2
    10     2     3    1
    11     5     4    1
    12     5     6    1
    13     4     3    1
    14     6     7    1
