@<TRIPOS>MOLECULE
3dhc_CYK_A_1.pdb
 15 14 0 0 0
SMALL
GASTEIGER

@<TRIPOS>ATOM
      1  C2        11.0580   34.4530   28.3600 C.3   253  CYK253      0.0458
      2  C5        10.9690   34.6570   24.6460 C.2   253  CYK253      0.2418
      3  C4        12.6410   33.1920   26.8750 C.2   253  CYK253      0.3842
      4  O3        12.1060   35.0510   24.2990 O.2   253  CYK253     -0.2733
      5  N1        10.6720   34.3660   25.9100 N.am  253  CYK253     -0.1956
      6  C3        11.6660   34.3530   26.9680 C.3   253  CYK253      0.1986
      7  O2        13.6400   33.1540   27.4590 O.co2 253  CYK253     -0.2437
      8  O1        12.4060   32.2580   26.2090 O.co2 253  CYK253     -0.2437
      9  C1        11.7400   35.5700   29.1830 C.3   253  CYK253      0.0710
     10  S         11.1400   35.5560   30.8790 S.3   253  CYK253     -0.0821
     11  C6         9.8410   34.4350   23.6620 C.3   253  CYK253      0.0868
     12  C7         9.9830   33.0310   23.0030 C.3   253  CYK253      0.0096
     13  C8         9.3450   31.9210   23.8820 C.3   253  CYK253      0.0005
     14  C9         9.1120   30.4930   23.3390 C.3   253  CYK253      0.0000
     15  C10        8.8960   30.4740   21.8460 C.3   253  CYK253      0.0000
@<TRIPOS>BOND
     1    15    14    1
     2    12    11    1
     3    12    13    1
     4    14    13    1
     5    11     2    1
     6     4     2    2
     7     2     5   am
     8     5     6    1
     9     8     3   ar
    10     3     6    1
    11     3     7   ar
    12     6     1    1
    13     1     9    1
    14     9    10    1
