@<TRIPOS>MOLECULE
3dhd_NMN_A_1.pdb
 22 23 0 0 0
SMALL
GASTEIGER

@<TRIPOS>ATOM
      1  O3P        8.3150   13.5020   11.2740 O.2   503  NMN503     -0.2224
      2  P          8.6630   14.6070   12.2080 P.3   503  NMN503      0.5327
      3  O1P        7.5100   15.4410   12.6840 O.3   503  NMN503     -0.1145
      4  O2P        9.5660   14.1710   13.3080 O.3   503  NMN503     -0.1145
      5  O5R        9.6170   15.6280   11.4580 O.3   503  NMN503     -0.2675
      6  C5R        9.5240   15.8760   10.0790 C.3   503  NMN503      0.1859
      7  C4R       10.1660   17.2460    9.8220 C.3   503  NMN503      0.1801
      8  O4R       11.5830   17.1830    9.7640 O.3   503  NMN503     -0.3327
      9  C3R        9.7280   17.6830    8.4520 C.3   503  NMN503      0.2158
     10  O3R        8.7100   18.6100    8.7850 O.3   503  NMN503     -0.2175
     11  C2R       10.9730   18.2670    7.7800 C.3   503  NMN503      0.2309
     12  O2R       10.8880   19.7040    7.6110 O.3   503  NMN503     -0.2158
     13  C1R       12.1420   18.0160    8.7250 C.3   503  NMN503      0.2263
     14  N1        13.3200   17.3890    8.1110 N.pl3 503  NMN503     -0.2787
     15  C2        13.5490   17.4600    6.7950 C.3   503  NMN503      0.1244
     16  C3        14.6350   16.8840    6.1970 C.2   503  NMN503      0.0544
     17  C7        14.8450   16.9850    4.6860 C.2   503  NMN503      0.2818
     18  O7        14.0470   17.5460    3.9500 O.2   503  NMN503     -0.2670
     19  N7        15.8960   16.4290    4.0760 N.am  503  NMN503     -0.0839
     20  C4        15.5400   16.2060    7.0240 C.2   503  NMN503      0.0033
     21  C5        15.3110   16.1400    8.3920 C.2   503  NMN503      0.0157
     22  C6        14.1770   16.7340    8.9310 C.2   503  NMN503      0.0633
@<TRIPOS>BOND
     1    18    17    2
     2    19    17   am
     3    17    16    1
     4    16    15    1
     5    16    20    2
     6    15    14    1
     7    20    21    1
     8    12    11    1
     9    11     9    1
    10    11    13    1
    11    14    13    1
    12    14    22    1
    13    21    22    2
    14     9    10    1
    15     9     7    1
    16    13     8    1
    17     8     7    1
    18     7     6    1
    19     6     5    1
    20     1     2    2
    21     5     2    1
    22     2     3    1
    23     2     4    1
