@<TRIPOS>MOLECULE
3dhe_AND_A_1.pdb
 21 24 0 0 0
SMALL
GASTEIGER

@<TRIPOS>ATOM
      1  C1         9.8200   10.9330  -12.3150 C.3   400  AND400      0.0063
      2  C2         9.1080   11.8650  -13.3570 C.3   400  AND400      0.0335
      3  C3         9.6010   11.5430  -14.7960 C.3   400  AND400      0.1560
      4  O3         8.9460   12.3770  -15.7370 O.3   400  AND400     -0.2228
      5  C4         9.3790   10.0430  -15.1760 C.3   400  AND400      0.0545
      6  C5        10.0670    9.0960  -14.1500 C.2   400  AND400     -0.0465
      7  C6        10.8680    8.0840  -14.5910 C.2   400  AND400     -0.0342
      8  C7        11.5910    7.0840  -13.6600 C.3   400  AND400      0.0294
      9  C8        11.1460    7.1160  -12.1520 C.3   400  AND400      0.0233
     10  C9        10.8500    8.5950  -11.6470 C.3   400  AND400      0.0075
     11  C10        9.7800    9.3510  -12.6050 C.3   400  AND400      0.0153
     12  C11       10.6500    8.7580  -10.0950 C.3   400  AND400      0.0014
     13  C12       11.6920    7.9710   -9.2270 C.3   400  AND400      0.0110
     14  C13       11.7940    6.4410   -9.6530 C.3   400  AND400      0.0706
     15  C14       12.1960    6.4130  -11.1860 C.2   400  AND400     -0.0379
     16  C15       13.2850    5.3630  -11.6070 C.2   400  AND400     -0.0052
     17  C16       13.5960    4.7110  -10.2270 C.2   400  AND400      0.0371
     18  C17       12.7920    5.3870   -9.0540 C.2   400  AND400      0.1757
     19  O17       12.3960    5.4170   -7.6580 O.2   400  AND400     -0.2910
     20  C18       10.5020    5.6500   -9.2060 C.3   400  AND400      0.0118
     21  C19        8.3300    8.8020  -12.3750 C.3   400  AND400      0.0040
@<TRIPOS>BOND
     1     4     3    1
     2     5     3    1
     3     5     6    1
     4     3     2    1
     5     7     6    2
     6     7     8    1
     7     6    11    1
     8     8     9    1
     9     2     1    1
    10    11    21    1
    11    11     1    1
    12    11    10    1
    13     9    10    1
    14     9    15    1
    15    10    12    1
    16    16    15    2
    17    16    17    1
    18    15    14    1
    19    17    18    2
    20    12    13    1
    21    14    13    1
    22    14    20    1
    23    14    18    1
    24    18    19    1
