@<TRIPOS>MOLECULE
3dhf_NMN_A_1.pdb
 22 23 0 0 0
SMALL
GASTEIGER

@<TRIPOS>ATOM
      1  O3P        8.2980   13.4290   11.3440 O.2   503  NMN503     -0.2224
      2  P          8.6810   14.5490   12.2120 P.3   503  NMN503      0.5327
      3  O1P        7.5380   15.3900   12.5810 O.3   503  NMN503     -0.1145
      4  O2P        9.5370   14.1790   13.3580 O.3   503  NMN503     -0.1145
      5  O5R        9.7150   15.4530   11.4190 O.3   503  NMN503     -0.2675
      6  C5R        9.3480   15.8730   10.1170 C.3   503  NMN503      0.1859
      7  C4R       10.0960   17.1460    9.7720 C.3   503  NMN503      0.1801
      8  O4R       11.4590   16.8170    9.5860 O.3   503  NMN503     -0.3327
      9  C3R        9.6240   17.7300    8.4620 C.3   503  NMN503      0.2158
     10  O3R        8.6790   18.7750    8.6900 O.3   503  NMN503     -0.2175
     11  C2R       10.9100   18.1720    7.7660 C.3   503  NMN503      0.2309
     12  O2R       10.9480   19.5740    7.5000 O.3   503  NMN503     -0.2158
     13  C1R       12.0210   17.8280    8.7490 C.3   503  NMN503      0.2263
     14  N1        13.2470   17.3010    8.1580 N.pl3 503  NMN503     -0.2787
     15  C2        13.4690   17.4000    6.8510 C.3   503  NMN503      0.1244
     16  C3        14.6120   16.9010    6.2760 C.2   503  NMN503      0.0544
     17  C7        14.8730   16.9730    4.7880 C.2   503  NMN503      0.2818
     18  O7        14.0560   17.4400    4.0470 O.2   503  NMN503     -0.2670
     19  N7        16.0120   16.4370    4.3190 N.am  503  NMN503     -0.0839
     20  C4        15.5380   16.2870    7.0900 C.2   503  NMN503      0.0033
     21  C5        15.3030   16.2070    8.4640 C.2   503  NMN503      0.0157
     22  C6        14.1250   16.7140    8.9770 C.2   503  NMN503      0.0633
@<TRIPOS>BOND
     1    18    17    2
     2    19    17   am
     3    17    16    1
     4    16    15    1
     5    16    20    2
     6    15    14    1
     7    20    21    1
     8    12    11    1
     9    11     9    1
    10    11    13    1
    11    14    13    1
    12    14    22    1
    13     9    10    1
    14     9     7    1
    15    21    22    2
    16    13     8    1
    17     8     7    1
    18     7     6    1
    19     6     5    1
    20     1     2    2
    21     5     2    1
    22     2     3    1
    23     2     4    1
