@<TRIPOS>MOLECULE
3dhk_23U_H_1.pdb
 33 36 0 0 0
SMALL
GASTEIGER

@<TRIPOS>ATOM
      1  C1        19.3460  -14.2430   24.8680 C.ar  1601  23U1601    -0.0165
      2  C2        19.6330  -13.1540   25.6850 C.ar  1601  23U1601    -0.0039
      3  C3        20.9350  -12.6580   25.7570 C.ar  1601  23U1601    -0.0003
      4  C4        21.9630  -13.2490   25.0110 C.ar  1601  23U1601    -0.0000
      5  C5        21.6890  -14.3410   24.1900 C.ar  1601  23U1601    -0.0003
      6  C6        20.3820  -14.8350   24.1190 C.ar  1601  23U1601    -0.0039
      7  C7        17.8330  -16.0360   25.6990 C.ar  1601  23U1601    -0.0165
      8  C8        17.9070  -14.7760   24.7980 C.3   1601  23U1601     0.0710
      9  C9        17.4210  -14.9820   23.3300 C.3   1601  23U1601     0.1758
     10  N2        16.2050  -15.8320   23.3000 N.3   1601  23U1601    -0.1224
     11  C10       17.2480  -13.5970   22.6830 C.2   1601  23U1601     0.2441
     12  O32       16.3220  -12.9400   23.1570 O.2   1601  23U1601    -0.2733
     13  N1        17.9970  -13.1240   21.6610 N.am  1601  23U1601    -0.2718
     14  C11       19.0400  -13.9400   21.0120 C.3   1601  23U1601     0.0939
     15  C12       19.7890  -12.8140   20.2550 C.3   1601  23U1601     0.0237
     16  C13       18.6160  -11.9370   19.7510 C.3   1601  23U1601     0.0310
     17  C14       17.7330  -11.8390   21.0280 C.3   1601  23U1601     0.1535
     18  C15       16.2780  -11.7360   20.6310 C.2   1601  23U1601     0.2598
     19  N23       15.6470  -10.5650   20.8610 N.am  1601  23U1601    -0.1992
     20  C16       14.2860  -10.3630   20.3600 C.3   1601  23U1601     0.1415
     21  C17       13.2730  -10.3160   21.5220 C.ar  1601  23U1601     0.0003
     22  C18       12.3830  -11.3660   21.7460 C.ar  1601  23U1601    -0.0025
     23  C19       11.4660  -11.3290   22.7960 C.ar  1601  23U1601     0.0006
     24  C20       11.4270  -10.2260   23.6430 C.ar  1601  23U1601     0.0114
     25  C21       12.3120   -9.1700   23.4310 C.ar  1601  23U1601     0.0574
     26  C22       13.2310   -9.2060   22.3810 C.ar  1601  23U1601     0.0088
     27 CL1        12.2430   -7.7960   24.5140 Cl    1601  23U1601    -0.0823
     28  O22       15.7490  -12.7140   20.1110 O.2   1601  23U1601    -0.2715
     29  C23       17.2830  -16.0360   26.9810 C.ar  1601  23U1601    -0.0039
     30  C24       17.2590  -17.2200   27.7230 C.ar  1601  23U1601    -0.0003
     31  C25       17.7800  -18.3920   27.1840 C.ar  1601  23U1601    -0.0000
     32  C26       18.3340  -18.4000   25.8990 C.ar  1601  23U1601    -0.0003
     33  C27       18.3570  -17.2180   25.1600 C.ar  1601  23U1601    -0.0039
@<TRIPOS>BOND
     1    16    15    1
     2    16    17    1
     3    28    18    2
     4    15    14    1
     5    20    19    1
     6    20    21    1
     7    18    19   am
     8    18    17    1
     9    14    13    1
    10    17    13    1
    11    21    22   ar
    12    21    26   ar
    13    13    11   am
    14    22    23   ar
    15    26    25   ar
    16    11    12    2
    17    11     9    1
    18    23    24   ar
    19    10     9    1
    20     9     8    1
    21    25    24   ar
    22    25    27    1
    23     6     5   ar
    24     6     1   ar
    25     5     4   ar
    26     8     1    1
    27     8     7    1
    28     1     2   ar
    29     4     3   ar
    30    33     7   ar
    31    33    32   ar
    32     2     3   ar
    33     7    29   ar
    34    32    31   ar
    35    29    30   ar
    36    31    30   ar
