@<TRIPOS>MOLECULE
3dho_B2M_A_1.pdb
 26 28 0 0 0
SMALL
GASTEIGER

@<TRIPOS>ATOM
      1  CAA       18.0630   47.5720   34.3420 C.3   302  B2M302      0.0664
      2  CAR       19.3020   48.1510   33.6480 C.2   302  B2M302      0.1092
      3  CAK       20.4990   48.2530   34.3460 C.2   302  B2M302      0.0322
      4  NAO       19.2280   48.5530   32.3720 N.2   302  B2M302     -0.4102
      5  CAY       20.3070   49.0630   31.7360 C.2   302  B2M302      0.1130
      6  CAI       20.1590   49.4610   30.4020 C.3   302  B2M302      0.0854
      7  CAH       21.2440   50.0030   29.7110 C.2   302  B2M302     -0.0120
      8  CAT       22.4630   50.1240   30.3800 C.2   302  B2M302      0.0308
      9 BRAF       23.9880   50.8220   29.5110 Br    302  B2M302     -0.0493
     10  CAM       22.6150   49.7260   31.7080 C.2   302  B2M302      0.0087
     11  CAZ       21.5310   49.1980   32.4080 C.2   302  B2M302      0.0308
     12  CAX       21.6450   48.7670   33.7400 C.2   302  B2M302      0.0612
     13  CAQ       22.8820   48.8410   34.6660 C.2   302  B2M302      0.2861
     14  OAB       23.1590   47.9080   35.4230 O.2   302  B2M302     -0.2665
     15  NAP       23.5540   49.9910   34.6580 N.am  302  B2M302     -0.0753
     16  NAN       24.5340   50.1730   35.3890 N.2   302  B2M302     -0.1542
     17  CAG       25.2050   51.3300   35.4070 C.2   302  B2M302      0.1229
     18  CAW       24.9830   52.4130   34.5530 C.ar  302  B2M302      0.0614
     19  CAL       26.1390   53.1150   34.2220 C.ar  302  B2M302      0.0162
     20  CAS       26.0930   54.1910   33.3360 C.ar  302  B2M302      0.0588
     21 CLAD       27.5520   55.0090   32.9830 Cl    302  B2M302     -0.0822
     22  CAJ       24.9020   54.5790   32.7590 C.ar  302  B2M302      0.0260
     23  CAU       23.7230   53.8930   33.0720 C.ar  302  B2M302      0.0974
     24 CLAE       22.2340   54.4380   32.3400 Cl    302  B2M302     -0.0789
     25  CAV       23.7600   52.8100   33.9660 C.ar  302  B2M302      0.2076
     26  OAC       22.5920   52.1710   34.2550 O.3   302  B2M302     -0.2856
@<TRIPOS>BOND
     1     9     8    1
     2     7     8    2
     3     7     6    1
     4     8    10    1
     5     6     5    1
     6    10    11    2
     7     5     4    2
     8     5    11    1
     9    24    23    1
    10     4     2    2
    11    11    12    1
    12    22    23   ar
    13    22    20   ar
    14    21    20    1
    15    23    25   ar
    16    20    19   ar
    17     2     1    1
    18     2     3    1
    19    12     3    2
    20    12    13    1
    21    25    26    1
    22    25    18   ar
    23    19    18   ar
    24    18    17    1
    25    15    13   am
    26    15    16    1
    27    13    14    2
    28    16    17    2
