@<TRIPOS>MOLECULE
3dhp_HMC_A_1.pdb
 11 11 0 0 0
SMALL
GASTEIGER

@<TRIPOS>ATOM
      1  C1         7.5830   46.4530   19.0630 C.3   504  HMC504      0.0612
      2  C2         6.4810   47.4780   19.3550 C.3   504  HMC504      0.1893
      3  O2         7.0360   48.7660   19.6250 O.3   504  HMC504     -0.2200
      4  C3         5.7240   46.9120   20.5450 C.3   504  HMC504      0.2165
      5  O3         4.9790   47.8820   21.2900 O.3   504  HMC504     -0.2173
      6  C4         4.7970   45.8480   19.9850 C.3   504  HMC504      0.2052
      7  O4         4.3470   45.0000   21.0390 O.3   504  HMC504     -0.2157
      8  C5         5.5080   45.0370   18.9340 C.2   504  HMC504      0.0167
      9  C6         6.7670   45.3080   18.4840 C.2   504  HMC504     -0.0269
     10  C7         4.7380   43.8890   18.3280 C.3   504  HMC504      0.2066
     11  O7         3.8380   44.4390   17.3410 O.3   504  HMC504     -0.2155
@<TRIPOS>BOND
     1    11    10    1
     2    10     8    1
     3     9     8    2
     4     9     1    1
     5     8     6    1
     6     1     2    1
     7     2     3    1
     8     2     4    1
     9     6     4    1
    10     6     7    1
    11     4     5    1
