@<TRIPOS>MOLECULE
3dhp_AGL_A_1.pdb
 10 10 0 0 0
SMALL
GASTEIGER

@<TRIPOS>ATOM
      1  C1        11.3270   42.8900   20.5700 C.3   505  AGL505      0.1775
      2  C2        11.0450   43.2900   19.1180 C.3   505  AGL505      0.2130
      3  C3        10.5290   44.7260   18.9780 C.3   505  AGL505      0.2044
      4  C4         9.3340   44.9570   19.9040 C.3   505  AGL505      0.1517
      5  C5         9.8300   44.6350   21.3190 C.3   505  AGL505      0.1355
      6  C6         8.7370   44.8430   22.3730 C.3   505  AGL505      0.0337
      7  O2        12.2210   43.1620   18.3050 O.3   505  AGL505     -0.2177
      8  O3        10.1360   44.9250   17.6180 O.3   505  AGL505     -0.2187
      9  N4         8.7030   46.2870   19.7410 N.3   505  AGL505     -0.1276
     10  O5        10.2220   43.2710   21.4010 O.3   505  AGL505     -0.3519
@<TRIPOS>BOND
     1     8     3    1
     2     7     2    1
     3     3     2    1
     4     3     4    1
     5     2     1    1
     6     9     4    1
     7     4     5    1
     8     1    10    1
     9     5    10    1
    10     5     6    1
