@<TRIPOS>MOLECULE
3dhp_GLC_A_1.pdb
 11 11 0 0 0
SMALL
GASTEIGER

@<TRIPOS>ATOM
      1  C1         3.9100   44.8890   22.2930 C.3   503  GLC503      0.1777
      2  C2         4.2820   44.5540   23.7400 C.3   503  GLC503      0.2141
      3  C3         4.3220   43.0460   23.9600 C.3   503  GLC503      0.2173
      4  C4         3.0260   42.4310   23.4530 C.3   503  GLC503      0.2142
      5  C5         2.9240   42.7890   21.9720 C.3   503  GLC503      0.1810
      6  C6         1.7600   42.1030   21.2700 C.3   503  GLC503      0.2141
      7  O2         5.5500   45.1090   24.0340 O.3   503  GLC503     -0.2176
      8  O3         4.4960   42.7500   25.3260 O.3   503  GLC503     -0.2175
      9  O4         3.0210   41.0300   23.6680 O.3   503  GLC503     -0.2176
     10  O5         2.7480   44.1870   21.8800 O.3   503  GLC503     -0.3481
     11  O6         0.5630   42.5590   21.8450 O.3   503  GLC503     -0.2176
@<TRIPOS>BOND
     1     6    11    1
     2     6     5    1
     3    10     5    1
     4    10     1    1
     5     5     4    1
     6     1     2    1
     7     4     9    1
     8     4     3    1
     9     2     3    1
    10     2     7    1
    11     3     8    1
