@<TRIPOS>MOLECULE
3dhq_THP_A_1.pdb
 25 26 0 0 0
SMALL
GASTEIGER

@<TRIPOS>ATOM
      1  P2        17.7160   10.5070    4.7850 P.3   151  THP151      0.5327
      2  O4P       19.0280   11.1520    5.1460 O.3   151  THP151     -0.1145
      3  O5P       17.7130    9.0100    4.9250 O.2   151  THP151     -0.2224
      4  O6P       16.5320   11.1840    5.4120 O.3   151  THP151     -0.1145
      5  P1        20.7750   14.3570    0.7170 P.3   151  THP151      0.5326
      6  O1P       21.4930   13.2090    1.3610 O.3   151  THP151     -0.1145
      7  O2P       21.1840   14.5600   -0.7140 O.2   151  THP151     -0.2224
      8  O3P       20.5770   15.5630    1.5810 O.3   151  THP151     -0.1145
      9  O5'       17.5380   10.8020    3.2050 O.3   151  THP151     -0.2675
     10  C5'       18.0170   11.9830    2.5350 C.3   151  THP151      0.1857
     11  C4'       18.7910   11.5560    1.2780 C.3   151  THP151      0.1748
     12  O4'       18.0420   10.5650    0.5940 O.3   151  THP151     -0.3340
     13  C3'       18.9840   12.5750    0.1650 C.3   151  THP151      0.1600
     14  O3'       19.2390   13.9000    0.6060 O.3   151  THP151     -0.2700
     15  C2'       17.7890   12.4320   -0.7620 C.3   151  THP151      0.0847
     16  C1'       17.7460   10.9170   -0.7580 C.3   151  THP151      0.2089
     17  N1        16.4100   10.4440   -1.1500 N.am  151  THP151     -0.1794
     18  C2        16.0940   10.2610   -2.5330 C.1   151  THP151      0.2844
     19  O2        16.9210   10.4780   -3.4220 O.2   151  THP151     -0.1918
     20  N3        14.9040    9.8470   -2.9140 N.2   151  THP151     -0.2455
     21  C4        13.9680    9.5880   -2.0010 C.1   151  THP151      0.2134
     22  O4        12.8660    9.2210   -2.4110 O.2   151  THP151     -0.2088
     23  C5        14.2540    9.7440   -0.5420 C.2   151  THP151      0.0891
     24  C5M       13.2440    9.4640    0.5440 C.3   151  THP151      0.0462
     25  C6        15.5070   10.1860   -0.1950 C.2   151  THP151      0.0877
@<TRIPOS>BOND
     1    19    18    2
     2    20    18    2
     3    20    21    2
     4    18    17   am
     5    22    21    2
     6    21    23    1
     7    17    16    1
     8    17    25    1
     9    15    16    1
    10    15    13    1
    11    16    12    1
    12     7     5    2
    13    23    25    2
    14    23    24    1
    15    13    14    1
    16    13    11    1
    17    12    11    1
    18    14     5    1
    19     5     6    1
    20     5     8    1
    21    11    10    1
    22    10     9    1
    23     9     1    1
    24     1     3    2
    25     1     2    1
    26     1     4    1
