@<TRIPOS>MOLECULE
3dhr_HEM_A_1.pdb
 43 50 0 0 0
SMALL
GASTEIGER

@<TRIPOS>ATOM
      1 FE         18.9680    3.7980   25.4840 Fe    142  HEM142      0.0000
      2  CHA       20.1050    4.0870   22.3180 C.2   142  HEM142      0.0000
      3  CHB       21.8530    2.0270   26.3380 C.2   142  HEM142      0.0000
      4  CHC       17.9320    3.6040   28.7320 C.2   142  HEM142      0.0000
      5  CHD       15.9690    5.3260   24.6430 C.2   142  HEM142      0.0000
      6  NA        20.7140    3.2220   24.5280 N.2   142  HEM142      0.0000
      7  C1A       20.8810    3.3310   23.1650 C.2   142  HEM142      0.0000
      8  C2A       22.0210    2.5220   22.7870 C.2   142  HEM142      0.0000
      9  C3A       22.5080    1.9480   23.8930 C.2   142  HEM142      0.0000
     10  C4A       21.6960    2.3830   25.0150 C.2   142  HEM142      0.0000
     11  CMA       23.7230    0.9960   23.9670 C.3   142  HEM142      0.0000
     12  CAA       22.5540    2.3410   21.3480 C.3   142  HEM142      0.0000
     13  CBA       23.5420    3.4310   20.9620 C.3   142  HEM142      0.0000
     14  CGA       24.1590    3.0170   19.6510 C.2   142  HEM142      0.0000
     15  O1A       25.3210    2.5360   19.6680 O.co2 142  HEM142      0.0000
     16  O2A       23.4850    3.1570   18.5930 O.co2 142  HEM142      0.0000
     17  NB        19.7620    2.9730   27.2150 N.ar  142  HEM142      0.0000
     18  C1B       20.9430    2.2660   27.3490 C.ar  142  HEM142      0.0000
     19  C2B       21.0530    1.8320   28.7290 C.ar  142  HEM142      0.0000
     20  C3B       19.9660    2.2660   29.3870 C.ar  142  HEM142      0.0000
     21  C4B       19.1360    2.9940   28.4450 C.ar  142  HEM142      0.0000
     22  CMB       22.2270    1.0090   29.3120 C.3   142  HEM142      0.0000
     23  CAB       19.6250    2.0650   30.8860 C.2   142  HEM142      0.0000
     24  CBB       19.7180    0.8740   31.4900 C.2   142  HEM142      0.0000
     25  NC        17.2620    4.3880   26.5010 N.2   142  HEM142      0.0000
     26  C1C       17.0370    4.1600   27.8430 C.2   142  HEM142      0.0000
     27  C2C       15.6920    4.6090   28.1500 C.2   142  HEM142      0.0000
     28  C3C       15.1410    5.0840   27.0220 C.2   142  HEM142      0.0000
     29  C4C       16.1250    4.9540   25.9630 C.2   142  HEM142      0.0000
     30  CMC       15.0400    4.5350   29.5490 C.3   142  HEM142      0.0000
     31  CAC       13.7190    5.6770   26.8540 C.2   142  HEM142      0.0000
     32  CBC       12.6220    4.9490   27.0930 C.2   142  HEM142      0.0000
     33  ND        18.1600    4.6040   23.7580 N.ar  142  HEM142      0.0000
     34  C1D       16.8840    5.1520   23.6240 C.ar  142  HEM142      0.0000
     35  C2D       16.6780    5.5070   22.2350 C.ar  142  HEM142      0.0000
     36  C3D       17.9750    5.1170   21.5190 C.ar  142  HEM142      0.0000
     37  C4D       18.8330    4.5650   22.5410 C.ar  142  HEM142      0.0000
     38  CMD       15.4270    6.1460   21.5960 C.3   142  HEM142      0.0000
     39  CAD       18.2990    5.2740   20.0190 C.3   142  HEM142      0.0000
     40  CBD       17.6520    4.1220   19.2590 C.3   142  HEM142      0.0000
     41  CGD       17.6800    4.3870   17.7750 C.2   142  HEM142      0.0000
     42  O1D       17.5290    5.5640   17.3540 O.co2 142  HEM142      0.0000
     43  O2D       17.8500    3.4110   17.0010 O.co2 142  HEM142      0.0000
@<TRIPOS>BOND
     1    43    41   ar
     2    42    41   ar
     3    41    40    1
     4    16    14   ar
     5    40    39    1
     6    14    15   ar
     7    14    13    1
     8    39    36    1
     9    13    12    1
    10    12     8    1
    11    36    35   ar
    12    36    37   ar
    13    38    35    1
    14    35    34   ar
    15     2    37    2
    16     2     7    1
    17    37    33   ar
    18     8     7    1
    19     8     9    2
    20     7     6    2
    21    34    33   ar
    22    34     5    2
    23    33     1    1
    24     9    11    1
    25     9    10    1
    26     6    10    1
    27     6     1    1
    28     5    29    1
    29    10     3    2
    30     1    25    1
    31     1    17    1
    32    29    25    2
    33    29    28    1
    34     3    18    1
    35    25    26    1
    36    31    28    1
    37    31    32    2
    38    28    27    2
    39    17    18   ar
    40    17    21   ar
    41    18    19   ar
    42    26    27    1
    43    26     4    2
    44    27    30    1
    45    21     4    1
    46    21    20   ar
    47    19    22    1
    48    19    20   ar
    49    20    23    1
    50    23    24    2
