@<TRIPOS>MOLECULE
3dht_HEM_A_1.pdb
 43 50 0 0 0
SMALL
GASTEIGER

@<TRIPOS>ATOM
      1  CHA       25.6840  -34.4930   41.3490 C.2   142  HEM142      0.0000
      2  CHB       29.4450  -31.5290   42.0950 C.2   142  HEM142      0.0000
      3  CHC       27.0440  -27.8650   40.0440 C.2   142  HEM142      0.0000
      4  CHD       23.2620  -30.7810   39.2200 C.2   142  HEM142      0.0000
      5  C1A       26.8800  -33.9900   41.8190 C.2   142  HEM142      0.0000
      6  C2A       27.8010  -34.6560   42.7240 C.2   142  HEM142      0.0000
      7  C3A       28.8340  -33.8310   42.9270 C.2   142  HEM142      0.0000
      8  C4A       28.6080  -32.6220   42.1600 C.2   142  HEM142      0.0000
      9  CMA       30.0640  -34.1090   43.8180 C.3   142  HEM142      0.0000
     10  CAA       27.6070  -36.0610   43.3450 C.3   142  HEM142      0.0000
     11  CBA       28.5760  -37.0830   42.7500 C.3   142  HEM142      0.0000
     12  CGA       27.8670  -38.3870   42.4780 C.2   142  HEM142      0.0000
     13  O1A       27.1090  -38.8810   43.3640 O.co2 142  HEM142      0.0000
     14  O2A       28.0660  -38.9380   41.3630 O.co2 142  HEM142      0.0000
     15  C1B       29.1210  -30.2630   41.6510 C.ar  142  HEM142      0.0000
     16  C2B       29.9220  -29.0630   41.8090 C.ar  142  HEM142      0.0000
     17  C3B       29.2580  -28.0530   41.2420 C.ar  142  HEM142      0.0000
     18  C4B       28.0160  -28.5780   40.7050 C.ar  142  HEM142      0.0000
     19  CMB       31.2990  -28.9620   42.5060 C.3   142  HEM142      0.0000
     20  CAB       29.7370  -26.5810   41.1790 C.2   142  HEM142      0.0000
     21  CBB       30.0860  -26.0260   40.0140 C.2   142  HEM142      0.0000
     22  C1C       25.7830  -28.2990   39.6920 C.2   142  HEM142      0.0000
     23  C2C       24.6830  -27.4830   39.2120 C.2   142  HEM142      0.0000
     24  C3C       23.6430  -28.2860   38.9850 C.2   142  HEM142      0.0000
     25  C4C       24.0410  -29.6410   39.3140 C.2   142  HEM142      0.0000
     26  CMC       24.7200  -25.9510   38.9980 C.3   142  HEM142      0.0000
     27  CAC       22.2540  -27.8500   38.4720 C.2   142  HEM142      0.0000
     28  CBC       21.4030  -27.2440   39.3110 C.2   142  HEM142      0.0000
     29  C1D       23.5410  -32.0410   39.7240 C.ar  142  HEM142      0.0000
     30  C2D       22.6240  -33.1630   39.7160 C.ar  142  HEM142      0.0000
     31  C3D       23.3800  -34.3260   40.3790 C.ar  142  HEM142      0.0000
     32  C4D       24.6770  -33.7870   40.7210 C.ar  142  HEM142      0.0000
     33  CMD       21.1810  -33.1840   39.1550 C.3   142  HEM142      0.0000
     34  CAD       22.8580  -35.7610   40.6380 C.3   142  HEM142      0.0000
     35  CBD       21.8410  -35.7250   41.7830 C.3   142  HEM142      0.0000
     36  CGD       21.8910  -36.9810   42.6200 C.2   142  HEM142      0.0000
     37  O1D       20.9490  -37.8070   42.5140 O.co2 142  HEM142      0.0000
     38  O2D       22.8650  -37.1530   43.3990 O.co2 142  HEM142      0.0000
     39  NA        27.4060  -32.7540   41.4970 N.2   142  HEM142      0.0000
     40  NB        27.9670  -29.9270   40.9720 N.ar  142  HEM142      0.0000
     41  NC        25.3540  -29.6040   39.7440 N.2   142  HEM142      0.0000
     42  ND        24.7330  -32.4510   40.3220 N.ar  142  HEM142      0.0000
     43 FE         26.2970  -31.1350   40.7960 Fe    142  HEM142      0.0000
@<TRIPOS>BOND
     1    27    24    1
     2    27    28    2
     3    24    23    2
     4    24    25    1
     5    26    23    1
     6    33    30    1
     7    23    22    1
     8     4    25    1
     9     4    29    2
    10    25    41    2
    11    22    41    1
    12    22     3    2
    13    30    29   ar
    14    30    31   ar
    15    29    42   ar
    16    41    43    1
    17    21    20    2
    18     3    18    1
    19    42    32   ar
    20    42    43    1
    21    31    34    1
    22    31    32   ar
    23    34    35    1
    24    18    40   ar
    25    18    17   ar
    26    32     1    2
    27    43    40    1
    28    43    39    1
    29    40    15   ar
    30    20    17    1
    31    17    16   ar
    32     1     5    1
    33    14    12   ar
    34    39     5    2
    35    39     8    1
    36    15    16   ar
    37    15     2    1
    38    35    36    1
    39    16    19    1
    40     5     6    1
    41     2     8    2
    42     8     7    1
    43    12    11    1
    44    12    13   ar
    45    37    36   ar
    46    36    38   ar
    47     6     7    2
    48     6    10    1
    49    11    10    1
    50     7     9    1
