@<TRIPOS>MOLECULE
3dhv_AMP_A_1.pdb
 23 25 0 0 0
SMALL
GASTEIGER

@<TRIPOS>ATOM
      1  P         19.2360   -9.3940    9.2620 P.3   711  AMP711      0.5327
      2  O1P       18.3690   -8.6940    8.2930 O.2   711  AMP711     -0.2224
      3  O2P       18.6330  -10.8460    9.5710 O.3   711  AMP711     -0.1145
      4  O3P       20.6380   -9.5610    8.6740 O.3   711  AMP711     -0.1145
      5  O5'       19.3180   -8.5050   10.6420 O.3   711  AMP711     -0.2675
      6  C5'       20.0990   -9.0070   11.8520 C.3   711  AMP711      0.1860
      7  C4'       20.1580   -8.0340   12.7470 C.3   711  AMP711      0.1823
      8  O4'       18.8380   -7.8730   13.3870 O.3   711  AMP711     -0.3135
      9  C3'       21.1560   -8.4200   13.9030 C.3   711  AMP711      0.2184
     10  O3'       22.4550   -8.0830   13.5700 O.3   711  AMP711     -0.2174
     11  C2'       20.4760   -7.7620   15.1590 C.3   711  AMP711      0.2570
     12  O2'       20.9560   -6.2920   15.2310 O.3   711  AMP711     -0.2130
     13  C1'       18.9880   -7.7640   14.8200 C.3   711  AMP711      0.3186
     14  N9        18.3170   -8.7560   15.4830 N.pl3 711  AMP711     -0.1439
     15  C8        18.0290  -10.0620   15.0340 C.3   711  AMP711      0.3377
     16  N7        17.3680  -10.7070   15.9540 N.2   711  AMP711     -0.2095
     17  C5        17.1920   -9.8850   17.0200 C.2   711  AMP711      0.2526
     18  C6        16.5730  -10.0140   18.2680 C.2   711  AMP711      0.4393
     19  N6        15.9620  -11.1650   18.6400 N.pl3 711  AMP711      0.2180
     20  N1        16.5870   -8.9230   19.1520 N.2   711  AMP711      0.0021
     21  C2        17.2130   -7.7030   18.7960 C.3   711  AMP711      0.5254
     22  N3        17.8210   -7.5360   17.5930 N.2   711  AMP711     -0.0055
     23  C4        17.7880   -8.6620   16.7270 C.2   711  AMP711      0.3518
@<TRIPOS>BOND
     1     2     1    2
     2     4     1    1
     3     1     3    1
     4     1     5    1
     5     5     6    1
     6     6     7    1
     7     7     8    1
     8     7     9    1
     9     8    13    1
    10    10     9    1
    11     9    11    1
    12    13    11    1
    13    13    14    1
    14    15    14    1
    15    15    16    1
    16    11    12    1
    17    14    23    1
    18    16    17    2
    19    23    17    1
    20    23    22    2
    21    17    18    1
    22    22    21    1
    23    18    19    1
    24    18    20    2
    25    21    20    1
