@<TRIPOS>MOLECULE
3dhy_NAD_A_1.pdb
 44 48 0 0 0
SMALL
GASTEIGER

@<TRIPOS>ATOM
      1  PA        17.6580  -10.7020   26.1290 P.3   550  NAD550      0.2189
      2  O1A       16.3750  -11.2100   25.5840 O.2   550  NAD550     -0.5170
      3  O2A       17.8890   -9.2080   25.9440 O.3   550  NAD550     -0.4371
      4  O5B       18.8150  -11.6550   25.5710 O.3   550  NAD550     -0.3112
      5  C5B       18.5890  -13.0420   25.3380 C.3   550  NAD550      0.1813
      6  C4B       19.3160  -13.2980   24.0390 C.3   550  NAD550      0.1821
      7  O4B       19.7750  -14.6410   23.9300 O.3   550  NAD550     -0.3135
      8  C3B       18.3310  -13.0770   22.9020 C.3   550  NAD550      0.2184
      9  O3B       18.7140  -11.9510   22.1020 O.3   550  NAD550     -0.2174
     10  C2B       18.3170  -14.3870   22.1440 C.3   550  NAD550      0.2570
     11  O2B       18.2180  -14.1730   20.7330 O.3   550  NAD550     -0.2130
     12  C1B       19.5960  -15.0560   22.5900 C.3   550  NAD550      0.3186
     13  N9A       19.4010  -16.5090   22.5540 N.pl3 550  NAD550     -0.1439
     14  C8A       18.2520  -17.1650   22.8640 C.3   550  NAD550      0.3377
     15  N7A       18.4230  -18.4930   22.6700 N.2   550  NAD550     -0.2095
     16  C5A       19.6990  -18.7100   22.2370 C.2   550  NAD550      0.2526
     17  C6A       20.4590  -19.8300   21.9060 C.2   550  NAD550      0.4393
     18  N6A       19.9020  -21.0600   21.9810 N.pl3 550  NAD550      0.2180
     19  N1A       21.7610  -19.6740   21.5410 N.2   550  NAD550      0.0021
     20  C2A       22.3190  -18.4380   21.4510 C.3   550  NAD550      0.5254
     21  N3A       21.6580  -17.3100   21.7690 N.2   550  NAD550     -0.0055
     22  C4A       20.3540  -17.3890   22.1770 C.2   550  NAD550      0.3518
     23  O3        17.5570  -11.0770   27.6910 O.3   550  NAD550     -0.2703
     24  PN        18.4440  -10.5090   28.8810 P.3   550  NAD550      0.2189
     25  O1N       19.7160  -10.4290   28.2250 O.2   550  NAD550     -0.5170
     26  O2N       17.6850   -9.3420   29.4900 O.3   550  NAD550     -0.4371
     27  O5D       18.3550  -11.7220   29.9460 O.3   550  NAD550     -0.3112
     28  C5D       18.7560  -13.0260   29.5820 C.3   550  NAD550      0.1813
     29  C4D       18.7430  -13.8950   30.8330 C.3   550  NAD550      0.1799
     30  O4D       19.5790  -13.2760   31.7970 O.3   550  NAD550     -0.3327
     31  C3D       17.3910  -14.0040   31.4940 C.3   550  NAD550      0.2158
     32  O3D       17.2290  -15.3000   32.0900 O.3   550  NAD550     -0.2175
     33  C2D       17.4410  -13.0050   32.6360 C.3   550  NAD550      0.2309
     34  O2D       16.5900  -13.4360   33.7090 O.3   550  NAD550     -0.2158
     35  C1D       18.8950  -13.0670   33.0330 C.3   550  NAD550      0.2263
     36  N1N       19.4000  -11.8790   33.7580 N.pl3 550  NAD550     -0.2787
     37  C2N       20.3580  -12.1210   34.6670 C.3   550  NAD550      0.1244
     38  C3N       20.9580  -11.1260   35.4580 C.2   550  NAD550      0.0544
     39  C7N       22.0260  -11.5370   36.4460 C.2   550  NAD550      0.2818
     40  O7N       22.3380  -10.8380   37.5340 O.2   550  NAD550     -0.2670
     41  N7N       22.6750  -12.5900   36.2420 N.am  550  NAD550     -0.0839
     42  C4N       20.5420   -9.8080   35.2610 C.2   550  NAD550      0.0033
     43  C5N       19.5310   -9.5790   34.3100 C.2   550  NAD550      0.0157
     44  C6N       18.9730  -10.6180   33.5430 C.2   550  NAD550      0.0633
@<TRIPOS>BOND
     1    11    10    1
     2    20    19    1
     3    20    21    1
     4    19    17    2
     5    21    22    2
     6    17    18    1
     7    17    16    1
     8     9     8    1
     9    10    12    1
    10    10     8    1
    11    22    16    1
    12    22    13    1
    13    16    15    2
    14    13    12    1
    15    13    14    1
    16    12     7    1
    17    15    14    1
    18     8     6    1
    19     7     6    1
    20     6     5    1
    21     5     4    1
    22     4     1    1
    23     2     1    2
    24     3     1    1
    25     1    23    1
    26    23    24    1
    27    25    24    2
    28    24    26    1
    29    24    27    1
    30    28    27    1
    31    28    29    1
    32    29    31    1
    33    29    30    1
    34    31    32    1
    35    31    33    1
    36    30    35    1
    37    33    35    1
    38    33    34    1
    39    35    36    1
    40    44    36    1
    41    44    43    2
    42    36    37    1
    43    43    42    1
    44    37    38    1
    45    42    38    2
    46    38    39    1
    47    41    39   am
    48    39    40    2
