@<TRIPOS>MOLECULE
3dhy_3DH_A_1.pdb
 21 23 0 0 0
SMALL
GASTEIGER

@<TRIPOS>ATOM
      1  CB        16.1810  -15.6360   38.0080 C.3   500  3DH500      0.0125
      2  CG        17.3750  -14.8150   37.4770 C.3   500  3DH500      0.0577
      3  SD        17.8510  -13.4770   38.6950 S.3   500  3DH500     -0.1376
      4  C5'       18.2300  -12.0690   37.6050 C.3   500  3DH500      0.0899
      5  C4'       18.0830  -10.7420   38.4340 C.3   500  3DH500      0.1630
      6  O4'       19.1000  -10.7190   39.4130 O.3   500  3DH500     -0.3153
      7  C3'       18.3820   -9.5090   37.5730 C.3   500  3DH500      0.2168
      8  O3'       17.2090   -9.0470   36.8560 O.3   500  3DH500     -0.2175
      9  C2'       18.9330   -8.4740   38.5730 C.3   500  3DH500      0.2569
     10  O2'       18.1010   -7.2920   38.6270 O.3   500  3DH500     -0.2130
     11  C1'       19.0070   -9.2900   39.8950 C.3   500  3DH500      0.3185
     12  N9        20.1810   -8.8470   40.7620 N.pl3 500  3DH500     -0.1439
     13  C8        21.4080   -8.6030   40.3140 C.3   500  3DH500      0.3377
     14  N7        22.1770   -8.2050   41.3140 N.2   500  3DH500     -0.2095
     15  C5        21.4480   -8.1860   42.4110 C.2   500  3DH500      0.2526
     16  C4        20.1820   -8.5790   42.0830 C.2   500  3DH500      0.3518
     17  N3        19.2500   -8.6310   43.0540 N.2   500  3DH500     -0.0055
     18  C2        19.5640   -8.3280   44.2990 C.3   500  3DH500      0.5254
     19  N1        20.7890   -7.9540   44.6230 N.2   500  3DH500      0.0021
     20  C6        21.7550   -7.8380   43.7130 C.2   500  3DH500      0.4393
     21  N6        23.0140   -7.4710   44.0520 N.pl3 500  3DH500      0.2180
@<TRIPOS>BOND
     1     8     7    1
     2     2     1    1
     3     2     3    1
     4     7     5    1
     5     7     9    1
     6     4     5    1
     7     4     3    1
     8     5     6    1
     9     9    10    1
    10     9    11    1
    11     6    11    1
    12    11    12    1
    13    13    12    1
    14    13    14    1
    15    12    16    1
    16    14    15    2
    17    16    15    1
    18    16    17    2
    19    15    20    1
    20    17    18    1
    21    20    21    1
    22    20    19    2
    23    18    19    1
