@<TRIPOS>MOLECULE
3di6_PDZ_A_1.pdb
 23 25 0 0 0
SMALL
GASTEIGER

@<TRIPOS>ATOM
      1  C1        48.6610   62.2320   21.2910 C.ar  562  PDZ562      0.0031
      2  C2        48.3150   60.9520   20.8780 C.ar  562  PDZ562      0.0002
      3  C3        47.9040   60.7240   19.5700 C.ar  562  PDZ562      0.0031
      4  C4        47.8330   61.7730   18.6660 C.ar  562  PDZ562      0.0375
      5  C5        48.1790   63.0540   19.0830 C.ar  562  PDZ562      0.1454
      6  C6        48.5900   63.2800   20.3900 C.ar  562  PDZ562      0.0375
      7  O7        48.1170   64.1040   18.2300 O.3   562  PDZ562     -0.4504
      8  C8        48.5460   63.9850   16.9560 C.ar  562  PDZ562      0.1826
      9  C9        47.6240   63.9640   15.9320 C.ar  562  PDZ562      0.0943
     10  C10       48.0140   63.8380   14.6030 C.ar  562  PDZ562      0.0143
     11  C11       49.3680   63.7360   14.3290 C.ar  562  PDZ562     -0.0006
     12  C12       50.3040   63.7530   15.3610 C.ar  562  PDZ562      0.0144
     13  C13       49.8940   63.8900   16.6800 C.ar  562  PDZ562      0.1716
     14  C14       51.7710   63.6660   15.0450 C.3   562  PDZ562      0.0763
     15 CL15       45.9680   64.0980   16.3830 Cl    562  PDZ562     -0.0790
     16  F16       50.7650   63.9150   17.7120 F     562  PDZ562     -0.2012
     17  C17       52.1560   65.1050   14.7970 C.2   562  PDZ562      0.0865
     18  C18       52.7750   65.8640   15.8140 C.2   562  PDZ562      0.0293
     19  C19       53.0870   67.1690   15.5460 C.2   562  PDZ562      0.0968
     20  C20       52.7500   67.6670   14.2640 C.1   562  PDZ562      0.1733
     21  N21       52.1520   66.8670   13.3600 N.2   562  PDZ562     -0.0729
     22  N22       51.8730   65.6470   13.6340 N.2   562  PDZ562     -0.1418
     23  O23       53.0010   68.8170   13.9570 O.2   562  PDZ562     -0.2204
@<TRIPOS>BOND
     1    21    22    1
     2    21    20    2
     3    22    17    2
     4    23    20    2
     5    20    19    1
     6    11    10   ar
     7    11    12   ar
     8    10     9   ar
     9    17    14    1
    10    17    18    1
    11    14    12    1
    12    12    13   ar
    13    19    18    2
    14     9    15    1
    15     9     8   ar
    16    13     8   ar
    17    13    16    1
    18     8     7    1
    19     7     5    1
    20     4     5   ar
    21     4     3   ar
    22     5     6   ar
    23     3     2   ar
    24     6     1   ar
    25     2     1   ar
