@<TRIPOS>MOLECULE
3din_ADP_A_1.pdb
 27 29 0 0 0
SMALL
GASTEIGER

@<TRIPOS>ATOM
      1  PB       -35.7660   14.8010   61.6420 P.3   873  ADP873      0.5373
      2  O1B      -36.7760   15.4890   60.6500 O.2   873  ADP873     -0.2221
      3  O2B      -34.9940   13.5810   61.0380 O.3   873  ADP873     -0.1143
      4  O3B      -36.2470   14.6790   63.1220 O.3   873  ADP873     -0.1143
      5  PA       -34.0150   16.9150   60.5280 P.3   873  ADP873      0.2231
      6  O1A      -32.5930   17.4490   60.9340 O.3   873  ADP873     -0.4370
      7  O2A      -34.1630   16.1590   59.1310 O.2   873  ADP873     -0.5169
      8  O3A      -34.6440   15.9910   61.7410 O.3   873  ADP873     -0.2261
      9  O5'      -34.9910   18.2100   60.5430 O.3   873  ADP873     -0.3111
     10  C5'      -36.3450   18.0960   60.1150 C.3   873  ADP873      0.1813
     11  C4'      -36.8190   19.4170   59.5270 C.3   873  ADP873      0.1821
     12  O4'      -36.8660   20.4140   60.5580 O.3   873  ADP873     -0.3135
     13  C3'      -35.9280   20.0100   58.4470 C.3   873  ADP873      0.2184
     14  O3'      -36.1660   19.4340   57.1580 O.3   873  ADP873     -0.2174
     15  C2'      -36.2800   21.4780   58.5670 C.3   873  ADP873      0.2570
     16  O2'      -37.4880   21.7580   57.8570 O.3   873  ADP873     -0.2130
     17  C1'      -36.4450   21.6900   60.0700 C.3   873  ADP873      0.3186
     18  N9       -35.1120   22.0460   60.5890 N.pl3 873  ADP873     -0.1439
     19  C8       -34.4310   21.2950   61.6560 C.3   873  ADP873      0.3377
     20  N7       -33.3790   22.1830   62.0850 N.2   873  ADP873     -0.2095
     21  C5       -33.6100   23.4370   61.5110 C.2   873  ADP873      0.2526
     22  C6       -32.9470   24.6240   61.7540 C.2   873  ADP873      0.4393
     23  N6       -31.8670   24.7070   62.6470 N.pl3 873  ADP873      0.2180
     24  N1       -33.3720   25.6970   61.0700 N.2   873  ADP873      0.0021
     25  C2       -34.4160   25.6210   60.2080 C.3   873  ADP873      0.5254
     26  N3       -35.0790   24.4650   59.9820 N.2   873  ADP873     -0.0055
     27  C4       -34.6650   23.3770   60.6400 C.2   873  ADP873      0.3518
@<TRIPOS>BOND
     1    14    13    1
     2    16    15    1
     3    13    15    1
     4    13    11    1
     5    15    17    1
     6     7     5    2
     7    11    10    1
     8    11    12    1
     9    26    25    1
    10    26    27    2
    11    17    12    1
    12    17    18    1
    13    10     9    1
    14    25    24    1
    15     5     9    1
    16     5     6    1
    17     5     8    1
    18    18    27    1
    19    18    19    1
    20    27    21    1
    21     2     1    2
    22     3     1    1
    23    24    22    2
    24    21    22    1
    25    21    20    2
    26     1     8    1
    27     1     4    1
    28    19    20    1
    29    22    23    1
