@<TRIPOS>MOLECULE
3div_MAN_A_1.pdb
 11 11 0 0 0
SMALL
GASTEIGER

@<TRIPOS>ATOM
      1  C1        17.8620   44.5740   37.8670 C.3   506  MAN506      0.1777
      2  C2        19.2290   45.1990   38.0630 C.3   506  MAN506      0.2141
      3  C3        20.1480   44.1600   38.6880 C.3   506  MAN506      0.2173
      4  C4        19.5720   43.4300   39.9050 C.3   506  MAN506      0.2142
      5  C5        18.1950   42.8610   39.5570 C.3   506  MAN506      0.1810
      6  C6        17.4480   42.2520   40.7480 C.3   506  MAN506      0.2141
      7  O2        19.1030   46.3500   38.8640 O.3   506  MAN506     -0.2176
      8  O3        21.3080   44.8280   39.0890 O.3   506  MAN506     -0.2175
      9  O4        20.5000   42.4330   40.2710 O.3   506  MAN506     -0.2176
     10  O5        17.3970   43.9100   39.0280 O.3   506  MAN506     -0.3481
     11  O6        17.0350   43.2650   41.6450 O.3   506  MAN506     -0.2176
@<TRIPOS>BOND
     1     1     2    1
     2     1    10    1
     3     2     3    1
     4     2     7    1
     5     3     8    1
     6     3     4    1
     7    10     5    1
     8     5     4    1
     9     5     6    1
    10     4     9    1
    11     6    11    1
