@<TRIPOS>MOLECULE
3div_5AX_A_1.pdb
 14 14 0 0 0
SMALL
GASTEIGER

@<TRIPOS>ATOM
      1  C4         7.5100   45.5390    6.2480 C.3   513  5AX513      0.2134
      2  C5         7.0910   47.0100    6.2070 C.3   513  5AX513      0.1809
      3  C6         7.5430   47.6740    4.9120 C.3   513  5AX513      0.2141
      4  C7         3.7610   44.0290    9.1820 C.2   513  5AX513      0.2420
      5  C8         3.4220   43.8340   10.6350 C.3   513  5AX513      0.0964
      6  C1         5.2350   46.5670    7.5500 C.3   513  5AX513      0.1665
      7  C2         5.4470   45.0590    7.6350 C.3   513  5AX513      0.1576
      8  C3         6.9430   44.8040    7.4670 C.3   513  5AX513      0.2069
      9  N2         4.9620   44.5720    8.9230 N.am  513  5AX513     -0.2019
     10  O3         7.1750   43.4210    7.3470 O.3   513  5AX513     -0.2184
     11  O4         8.9150   45.4710    6.2590 O.3   513  5AX513     -0.2176
     12  O5         5.6840   47.1090    6.3260 O.3   513  5AX513     -0.3489
     13  O6         7.2660   49.0550    4.9640 O.3   513  5AX513     -0.2176
     14  O7         2.9430   43.6810    8.3220 O.2   513  5AX513     -0.2733
@<TRIPOS>BOND
     1     3    13    1
     2     3     2    1
     3     2     1    1
     4     2    12    1
     5     1    11    1
     6     1     8    1
     7    12     6    1
     8    10     8    1
     9     8     7    1
    10     6     7    1
    11     7     9    1
    12    14     4    2
    13     9     4   am
    14     4     5    1
