@<TRIPOS>MOLECULE
3dj4_UD1_A_1.pdb
 39 42 0 0 0
SMALL
GASTEIGER

@<TRIPOS>ATOM
      1  C1'       14.1050   31.5270   42.1000 C.3   4000  UD14000     0.2674
      2  C2'       13.6900   31.5430   43.5620 C.3   4000  UD14000     0.1846
      3  C3'       14.9730   31.3480   44.4100 C.3   4000  UD14000     0.2094
      4  C4'       15.7110   30.0880   44.0320 C.3   4000  UD14000     0.2136
      5  C5'       15.9310   29.9990   42.5160 C.3   4000  UD14000     0.1834
      6  C6'       16.6050   28.6620   42.0930 C.3   4000  UD14000     0.2142
      7  C7'       11.7030   32.9780   43.9930 C.2   4000  UD14000     0.2420
      8  C8'       11.2140   34.3140   44.5210 C.3   4000  UD14000     0.0964
      9  N2'       13.0670   32.8220   43.9420 N.am  4000  UD14000    -0.1992
     10  O1'       15.0420   32.5790   41.9610 O.3   4000  UD14000    -0.2448
     11  O3'       14.6580   31.1740   45.7850 O.3   4000  UD14000    -0.2183
     12  O4'       16.9250   29.9680   44.7830 O.3   4000  UD14000    -0.2176
     13  O5'       14.7070   30.2780   41.7430 O.3   4000  UD14000    -0.3259
     14  O6'       16.8460   28.7330   40.6690 O.3   4000  UD14000    -0.2176
     15  O7'       10.8700   32.1030   43.6670 O.2   4000  UD14000    -0.2733
     16  N1         8.4060   33.1080   36.6980 N.am  4000  UD14000    -0.1766
     17  C2         7.0380   33.2140   36.3530 C.1   4000  UD14000     0.2845
     18  N3         6.3790   34.3780   36.6250 N.2   4000  UD14000    -0.2452
     19  C4         7.0000   35.4430   37.1990 C.1   4000  UD14000     0.2182
     20  C5         8.3620   35.3320   37.5560 C.2   4000  UD14000     0.1242
     21  C6         9.0290   34.1520   37.2790 C.2   4000  UD14000     0.0929
     22  O2         6.4060   32.2680   35.7890 O.2   4000  UD14000    -0.1918
     23  O4         6.3320   36.4700   37.4100 O.2   4000  UD14000    -0.2085
     24  C1B        9.1710   31.8520   36.4290 C.3   4000  UD14000     0.2401
     25  C2B       10.4440   32.0840   35.5990 C.3   4000  UD14000     0.2319
     26  O2'       10.1360   31.9230   34.2270 O.3   4000  UD14000    -0.2157
     27  C3B       11.4660   31.0730   36.1450 C.3   4000  UD14000     0.2158
     28  C4B       11.0030   30.7650   37.5500 C.3   4000  UD14000     0.1801
     29  O4B        9.6880   31.2880   37.6520 O.3   4000  UD14000    -0.3319
     30  O3B       11.4960   29.8870   35.3360 O.3   4000  UD14000    -0.2175
     31  C5B       11.7520   31.4210   38.7070 C.3   4000  UD14000     0.1865
     32  O5B       11.9250   32.8020   38.4090 O.3   4000  UD14000    -0.2660
     33  PA        13.4950   33.5130   38.2680 P.3   4000  UD14000     0.4796
     34  O1A       13.3320   35.0340   37.8900 O.3   4000  UD14000    -0.1124
     35  O2A       14.3720   32.7540   37.1580 O.3   4000  UD14000    -0.1124
     36  O3A       13.6920   33.6990   40.1770 O.3   4000  UD14000    -0.1810
     37  PB        15.2060   33.4160   40.6470 P.3   4000  UD14000     0.4980
     38  O1B       15.2490   32.7490   39.1680 O.3   4000  UD14000    -0.1810
     39  O2B       15.8970   34.7850   40.8190 O.2   4000  UD14000    -0.2261
@<TRIPOS>BOND
     1    26    25    1
     2    30    27    1
     3    25    27    1
     4    25    24    1
     5    22    17    2
     6    27    28    1
     7    17    18    2
     8    17    16   am
     9    24    16    1
    10    24    29    1
    11    18    19    2
    12    16    21    1
    13    35    33    1
    14    19    23    2
    15    19    20    1
    16    21    20    2
    17    28    29    1
    18    28    31    1
    19    34    33    1
    20    33    32    1
    21    33    38    1
    22    33    36    1
    23    32    31    1
    24    38    37    1
    25    36    37    1
    26    37    39    2
    27    37    10    1
    28    14     6    1
    29    13     1    1
    30    13     5    1
    31    10     1    1
    32     6     5    1
    33     1     2    1
    34     5     4    1
    35     2     9    1
    36     2     3    1
    37    15     7    2
    38     9     7   am
    39     7     8    1
    40     4     3    1
    41     4    12    1
    42     3    11    1
