@<TRIPOS>MOLECULE
3dj5_AK5_A_1.pdb
 31 33 0 0 0
SMALL
GASTEIGER

@<TRIPOS>ATOM
      1  C28       60.5660   14.3560   22.1970 C.ar    1  AK51        0.0166
      2  C27       59.9230   13.2330   22.7220 C.ar    1  AK51        0.0013
      3  C26       60.4240   11.9660   22.4590 C.ar    1  AK51        0.0001
      4  C24       62.2020   12.9390   21.1410 C.ar    1  AK51        0.0166
      5  C23       61.7080   14.2190   21.4000 C.ar    1  AK51        0.0737
      6  C16       63.7700   17.8200   20.1350 C.ar    1  AK51        0.0078
      7  C17       64.4530   18.8980   19.5620 C.ar    1  AK51        0.0384
      8  O19       64.4590   20.7870   18.0550 O.3     1  AK51       -0.4701
      9  C20       61.6870   16.4100   20.3850 C.2     1  AK51        0.2690
     10  C15       62.4430   17.5730   19.7870 C.ar    1  AK51        0.0569
     11  C13       62.4940   19.4890   18.2730 C.ar    1  AK51        0.1073
     12  C14       61.8160   18.4090   18.8550 C.ar    1  AK51        0.0243
     13  C9        60.6190   26.3200   15.5930 C.3     1  AK51        0.3920
     14  C7        59.1140   26.8530   13.8730 C.2     1  AK51        0.4052
     15  C5        58.9450   24.7650   15.0460 C.2     1  AK51        0.1057
     16  C6        58.4790   25.6350   14.0710 C.3     1  AK51        0.2156
     17  C3        60.5940   20.5650   17.1200 C.2     1  AK51        0.2466
     18  C2        59.0390   22.4910   16.5760 C.3     1  AK51        0.0730
     19  C1        60.2240   21.6350   16.0900 C.3     1  AK51        0.0992
     20 BR30       56.9960   25.1560   13.0000 Br      1  AK51       -0.0613
     21  N31       58.6510   27.7070   12.9150 N.pl3   1  AK51        0.2120
     22  N8        60.1790   27.1740   14.6450 N.2     1  AK51       -0.0321
     23  N10       60.0200   25.1320   15.7900 N.2     1  AK51       -0.2153
     24  S4        58.1420   23.2670   15.2480 S.3     1  AK51       -0.0976
     25  O12       59.7220   19.9040   17.6650 O.2     1  AK51       -0.2730
     26  N11       61.9040   20.3880   17.3450 N.am    1  AK51       -0.1761
     27  C18       63.8130   19.7250   18.6340 C.ar    1  AK51        0.1539
     28  C29       65.8250   21.1050   18.3630 C.3     1  AK51        0.2525
     29  O21       60.4610   16.4620   20.4160 O.2     1  AK51       -0.2680
     30  N22       62.3660   15.3430   20.8470 N.am    1  AK51       -0.1754
     31  C25       61.5610   11.8110   21.6690 C.ar    1  AK51        0.0013
@<TRIPOS>BOND
     1    21    14    1
     2    20    16    1
     3    14    16    1
     4    14    22    2
     5    16    15    1
     6    22    13    1
     7    15    24    1
     8    15    23    2
     9    24    18    1
    10    13    23    1
    11    19    18    1
    12    19    17    1
    13    17    26   am
    14    17    25    2
    15    26    11    1
    16     8    28    1
    17     8    27    1
    18    11    27   ar
    19    11    12   ar
    20    27     7   ar
    21    12    10   ar
    22     7     6   ar
    23    10     6   ar
    24    10     9    1
    25     9    29    2
    26     9    30   am
    27    30     5    1
    28     4     5   ar
    29     4    31   ar
    30     5     1   ar
    31    31     3   ar
    32     1     2   ar
    33     3     2   ar
