@<TRIPOS>MOLECULE
3dj6_AK6_A_1.pdb
 33 36 0 0 0
SMALL
GASTEIGER

@<TRIPOS>ATOM
      1  C30       -2.1220   46.2160   -4.6640 C.2     1  AK61        0.0082
      2  C28       -4.1500   46.4800   -3.4220 C.1     1  AK61        0.0353
      3  C26       -4.1660   45.0400   -5.2380 C.2     1  AK61        0.1061
      4  C24       -2.1540   44.6070   -6.6800 C.3     1  AK61        0.0853
      5  C23       -2.3690   37.6400   -8.0980 C.3     1  AK61        0.2525
      6  C22        6.0550   36.2810  -11.5740 C.ar    1  AK61        0.0166
      7  C17        5.5130   37.5670  -11.4990 C.ar    1  AK61        0.0737
      8  C20        7.9900   37.1480  -12.7360 C.ar    1  AK61        0.0001
      9  C12       -0.1410   38.6510   -8.5030 C.ar    1  AK61        0.1539
     10  C14        3.7400   38.8500  -10.3620 C.2     1  AK61        0.2690
     11  C11        0.1500   37.8280   -9.6020 C.ar    1  AK61        0.0384
     12  C10        1.4050   37.8750  -10.2160 C.ar    1  AK61        0.0078
     13  C9         2.3720   38.7630   -9.7390 C.ar    1  AK61        0.0569
     14  C8         2.0690   39.5730   -8.6440 C.ar    1  AK61        0.0243
     15  C7         0.8140   39.5350   -8.0320 C.ar    1  AK61        0.1073
     16  C3         1.2160   41.4470   -6.5680 C.2     1  AK61        0.2465
     17  C2        -0.5210   42.9010   -5.4770 C.3     1  AK61        0.0675
     18  C1         0.7970   42.1740   -5.3070 C.3     1  AK61        0.0988
     19  O15        4.3250   39.9270  -10.3480 O.2     1  AK61       -0.2680
     20  N16        4.2560   37.7210  -10.8760 N.am    1  AK61       -0.1754
     21  C21        7.2910   36.0680  -12.1920 C.ar    1  AK61        0.0013
     22  C19        7.4560   38.4370  -12.6670 C.ar    1  AK61        0.0013
     23  C18        6.2170   38.6440  -12.0550 C.ar    1  AK61        0.0166
     24  O13       -1.3670   38.6310   -7.8740 O.3     1  AK61       -0.4701
     25  N5         0.5300   40.3470   -6.9130 N.am    1  AK61       -0.1761
     26  O6         2.1520   41.9110   -7.1890 O.2     1  AK61       -0.2730
     27  S4        -0.4140   44.2880   -6.5630 S.3     1  AK61       -0.1349
     28  C25       -2.8090   45.3070   -5.4860 C.2     1  AK61        0.0093
     29  C29       -2.8250   46.8040   -3.6100 C.2     1  AK61        0.0638
     30  C33       -2.4230   47.7350   -2.6060 C.2     1  AK61        0.0314
     31  C32       -3.5730   47.9000   -1.9020 C.2     1  AK61        0.1103
     32  N31       -4.5790   47.1840   -2.3460 N.2     1  AK61       -0.1922
     33  N27       -4.8340   45.6240   -4.2190 N.2     1  AK61       -0.1925
@<TRIPOS>BOND
     1     8    22   ar
     2     8    21   ar
     3    22    23   ar
     4    21     6   ar
     5    23     7   ar
     6     6     7   ar
     7     7    20    1
     8    20    10   am
     9    10    19    2
    10    10    13    1
    11    12    13   ar
    12    12    11   ar
    13    13    14   ar
    14    11     9   ar
    15    14    15   ar
    16     9    15   ar
    17     9    24    1
    18     5    24    1
    19    15    25    1
    20    26    16    2
    21    25    16   am
    22     4    27    1
    23     4    28    1
    24    16    18    1
    25    27    17    1
    26    28     3    2
    27    28     1    1
    28    17    18    1
    29     3    33    1
    30     1    29    2
    31    33     2    2
    32    29     2    1
    33    29    30    1
    34     2    32    2
    35    30    31    2
    36    32    31    1
