@<TRIPOS>MOLECULE
3dj7_AK7_A_1.pdb
 30 32 0 0 0
SMALL
GASTEIGER

@<TRIPOS>ATOM
      1  N29        3.3880   32.8230    6.6870 N.pl3   1  AK71        0.2123
      2  C24       11.3880   20.9400    7.7640 C.ar    1  AK71        0.0166
      3  C23       11.7430   19.7850    7.0750 C.ar    1  AK71        0.0013
      4  C22       12.7720   18.9840    7.5550 C.ar    1  AK71        0.0039
      5  C16       10.7500   23.3310    9.3170 C.2     1  AK71        0.3495
      6  O18        9.9200   23.0620    8.4630 O.2     1  AK71       -0.2484
      7  C20       13.0920   20.5040    9.4070 C.ar    1  AK71        0.0205
      8  C12        9.9710   25.5000    9.8730 C.ar    1  AK71        0.1870
      9  C14        9.3550   27.4880   10.2770 C.ar    1  AK71        0.1032
     10  C10        8.9220   27.3350    9.1030 C.ar    1  AK71        0.0334
     11  C9         8.1770   28.4200    8.3540 C.3     1  AK71        0.0899
     12  C8         6.7540   27.9470    8.0580 C.3     1  AK71        0.2561
     13  C4         4.4220   31.0040    9.5780 C.3     1  AK71        0.5249
     14  C6         5.3600   29.9380    7.7060 C.2     1  AK71        0.3591
     15  C2         3.9860   31.8860    7.4620 C.2     1  AK71        0.4132
     16  C1         4.7550   30.8880    6.8860 C.3     1  AK71        0.2783
     17 BR30        4.9410   30.8730    5.0090 Br      1  AK71       -0.0552
     18  N5         5.1730   30.0270    9.0460 N.2     1  AK71       -0.0068
     19  N3         3.8330   31.9260    8.8030 N.2     1  AK71       -0.0022
     20  N7         6.1300   28.9410    7.1900 N.pl3   1  AK71       -0.0339
     21  N13        9.9290   26.5170   10.7280 N.ar    1  AK71       -0.2213
     22  S11        9.2250   25.8430    8.4270 S.2     1  AK71       -0.0538
     23  N15       10.5530   24.3350   10.1770 N.am    1  AK71       -0.1356
     24  N17       11.7210   22.4730    9.6440 N.am    1  AK71       -0.1606
     25  C19       12.0570   21.3070    8.9320 C.ar    1  AK71        0.0749
     26  C21       13.4490   19.3440    8.7170 C.ar    1  AK71        0.0727
     27  C25       14.5600   18.4660    9.2100 C.3     1  AK71        0.4186
     28  F26       14.0380   17.3700    9.7290 F       1  AK71       -0.1659
     29  F27       15.3380   18.1490    8.1910 F       1  AK71       -0.1659
     30  F28       15.2790   19.0980   10.1230 F       1  AK71       -0.1659
@<TRIPOS>BOND
     1    17    16    1
     2     1    15    1
     3    16    15    1
     4    16    14    1
     5     3     4   ar
     6     3     2   ar
     7    20    14    1
     8    20    12    1
     9    15    19    2
    10     4    26   ar
    11    14    18    2
    12     2    25   ar
    13    12    11    1
    14    29    27    1
    15    11    10    1
    16    22    10   ar
    17    22     8   ar
    18     6     5    2
    19    26    27    1
    20    26     7   ar
    21    19    13    1
    22    25     7   ar
    23    25    24    1
    24    18    13    1
    25    10     9   ar
    26    27    28    1
    27    27    30    1
    28     5    24   am
    29     5    23   am
    30     8    23    1
    31     8    21   ar
    32     9    21   ar
