@<TRIPOS>MOLECULE
3dj8_EXY_A_1.pdb
 12 12 0 0 0
SMALL
GASTEIGER

@<TRIPOS>ATOM
      1  N         25.9620  -42.6700    4.0430 N.3   650  EXY650     -0.1208
      2  CA        25.8770  -42.6290    5.5080 C.3   650  EXY650      0.1943
      3  C         24.4370  -43.0300    5.9440 C.2   650  EXY650      0.3819
      4  O         24.0600  -43.0790    7.1440 O.co2 650  EXY650     -0.2441
      5  OXT       23.6150  -43.3150    5.0250 O.co2 650  EXY650     -0.2441
      6  CB        26.2730  -41.2110    6.0240 C.3   650  EXY650      0.0306
      7  CG        25.1170  -40.2520    5.7400 C.3   650  EXY650      0.0021
      8  CD        25.5550  -38.8380    5.9450 C.3   650  EXY650      0.0026
      9  CE        24.4030  -37.9690    5.6700 C.3   650  EXY650      0.0322
     10  CF        24.7960  -36.5520    5.8420 C.3   650  EXY650      0.1448
     11  CH        23.6100  -35.5950    5.5530 C.3   650  EXY650      0.1715
     12  OF        24.8450  -35.5000    4.8730 O.3   650  EXY650     -0.3511
@<TRIPOS>BOND
     1     1     2    1
     2    12    11    1
     3    12    10    1
     4     5     3   ar
     5     2     3    1
     6     2     6    1
     7    11    10    1
     8     9    10    1
     9     9     8    1
    10     7     8    1
    11     7     6    1
    12     3     4   ar
