@<TRIPOS>MOLECULE
3dje_FSA_A_1.pdb
 16 16 0 0 0
SMALL
GASTEIGER

@<TRIPOS>ATOM
      1  OAB       33.6870   12.3940   32.8900 O.co2 501  FSA501     -0.2447
      2  CAL       33.1000   11.7230   32.0140 C.2   501  FSA501      0.3757
      3  OAA       32.6600   12.2440   30.9570 O.co2 501  FSA501     -0.2447
      4  CAH       32.8670   10.2370   32.2000 C.3   501  FSA501      0.1716
      5  SAK       33.3720    9.6680   33.7920 S.3   501  FSA501     -0.1232
      6  CAI       32.8370    7.9960   33.5530 C.3   501  FSA501      0.1198
      7  CAP       32.6230    7.2890   34.8990 C.3   501  FSA501      0.2599
      8  OAF       32.6520    5.8650   34.7070 O.3   501  FSA501     -0.1915
      9  CAO       31.2810    7.6840   35.5250 C.3   501  FSA501      0.2392
     10  OAE       30.1980    7.2080   34.7120 O.3   501  FSA501     -0.2149
     11  CAN       31.1530    7.1920   36.9700 C.3   501  FSA501      0.2198
     12  OAD       29.9700    7.7510   37.5650 O.3   501  FSA501     -0.2174
     13  CAM       32.3610    7.5990   37.8200 C.3   501  FSA501      0.2143
     14  OAC       32.3700    9.0090   38.0590 O.3   501  FSA501     -0.2176
     15  CAG       33.6410    7.1650   37.1210 C.3   501  FSA501      0.1803
     16  OAJ       33.6750    7.7170   35.7930 O.3   501  FSA501     -0.3267
@<TRIPOS>BOND
     1     3     2   ar
     2     2     4    1
     3     2     1   ar
     4     4     5    1
     5     6     5    1
     6     6     7    1
     7     8     7    1
     8    10     9    1
     9     7     9    1
    10     7    16    1
    11     9    11    1
    12    16    15    1
    13    11    12    1
    14    11    13    1
    15    15    13    1
    16    13    14    1
