@<TRIPOS>MOLECULE
3djf_BC3_A_1.pdb
 18 20 0 0 0
SMALL
GASTEIGER

@<TRIPOS>ATOM
      1  N01      -19.1310   -2.7640   24.5600 N.pl3 290  BC3290     -0.0226
      2  C02      -19.4950   -2.6900   25.8370 C.1   290  BC3290      0.2519
      3  N03      -18.6820   -3.1690   26.7920 N.2   290  BC3290     -0.3232
      4  C04      -19.0240   -3.1080   28.0880 C.2   290  BC3290      0.1726
      5  C05      -18.3870   -3.5160   29.2510 C.2   290  BC3290      0.0342
      6  C06      -17.0200   -4.1970   29.3430 C.3   290  BC3290      0.0585
      7  C07      -15.9480   -3.1500   29.6520 C.ar  290  BC3290      0.0015
      8  C08      -14.6340   -3.5370   29.8720 C.ar  290  BC3290     -0.0008
      9  C09      -13.6950   -2.5540   30.1490 C.ar  290  BC3290      0.0204
     10  C10      -14.0990   -1.2240   30.1970 C.ar  290  BC3290      0.0989
     11  N11      -15.3610   -0.8910   29.9830 N.ar  290  BC3290     -0.2426
     12  C12      -16.2810   -1.8020   29.7160 C.ar  290  BC3290      0.0949
     13  C13      -19.1850   -3.2080   30.2720 C.2   290  BC3290      0.0985
     14  N14      -20.2930   -2.6250   29.8100 N.2   290  BC3290     -0.2292
     15  C15      -20.2280   -2.5480   28.4830 C.2   290  BC3290      0.2065
     16  C16      -21.0950   -2.0430   27.5240 C.1   290  BC3290      0.2362
     17  O17      -22.1690   -1.5420   27.8530 O.2   290  BC3290     -0.2069
     18  N18      -20.7260   -2.1140   26.1780 N.2   290  BC3290     -0.2486
@<TRIPOS>BOND
     1     1     2    1
     2     2    18    2
     3     2     3    2
     4    18    16    2
     5     3     4    2
     6    16    17    2
     7    16    15    1
     8     4    15    1
     9     4     5    1
    10    15    14    2
    11     5     6    1
    12     5    13    2
    13     6     7    1
    14     7    12   ar
    15     7     8   ar
    16    12    11   ar
    17    14    13    1
    18     8     9   ar
    19    11    10   ar
    20     9    10   ar
