@<TRIPOS>MOLECULE
3djg_NDP_X_1.pdb
 48 52 0 0 0
SMALL
GASTEIGER

@<TRIPOS>ATOM
      1  PA        28.2230   18.7120   12.7620 P.3   483  NDP483      0.2189
      2  O1A       27.7070   19.7920   11.9840 O.2   483  NDP483     -0.5170
      3  O2A       28.8700   19.1020   14.0780 O.3   483  NDP483     -0.4371
      4  O5B       29.2560   17.9120   11.8390 O.3   483  NDP483     -0.3112
      5  C5B       28.8970   17.2050   10.6530 C.3   483  NDP483      0.1813
      6  C4B       30.1750   17.2010    9.8150 C.3   483  NDP483      0.1820
      7  O4B       30.1010   16.1190    8.9260 O.3   483  NDP483     -0.3136
      8  C3B       30.3110   18.4290    8.9240 C.3   483  NDP483      0.2157
      9  O3B       31.0140   19.4840    9.5590 O.3   483  NDP483     -0.2175
     10  C2B       31.0930   17.9170    7.7340 C.3   483  NDP483      0.2314
     11  O2B       32.4660   17.9890    8.0330 O.3   483  NDP483     -0.2630
     12  C1B       30.6700   16.4670    7.7050 C.3   483  NDP483      0.3158
     13  N9A       29.6190   16.3640    6.6460 N.pl3 483  NDP483     -0.1439
     14  C8A       28.6570   17.2830    6.3050 C.3   483  NDP483      0.3377
     15  N7A       27.9670   16.7900    5.2430 N.2   483  NDP483     -0.2095
     16  C5A       28.4740   15.5720    4.9420 C.2   483  NDP483      0.2526
     17  C6A       28.1790   14.6150    3.9670 C.2   483  NDP483      0.4393
     18  N6A       27.2970   14.8850    3.0050 N.pl3 483  NDP483      0.2180
     19  N1A       28.9160   13.4470    3.8880 N.2   483  NDP483      0.0021
     20  C2A       29.9640   13.1900    4.7520 C.3   483  NDP483      0.5254
     21  N3A       30.2740   14.1380    5.7050 N.2   483  NDP483     -0.0055
     22  C4A       29.5260   15.2970    5.8100 C.2   483  NDP483      0.3518
     23  O3        26.9650   17.7420   12.9700 O.3   483  NDP483     -0.2703
     24  PN        26.6380   16.6060   13.9980 P.3   483  NDP483      0.2189
     25  O1N       27.8730   15.8710   14.3610 O.3   483  NDP483     -0.4371
     26  O2N       25.5270   15.8410   13.3500 O.2   483  NDP483     -0.5170
     27  O5D       25.9470   17.3560   15.2190 O.3   483  NDP483     -0.3112
     28  C5D       25.0870   18.4630   15.1010 C.3   483  NDP483      0.1813
     29  C4D       25.2050   19.3710   16.3230 C.3   483  NDP483      0.1799
     30  O4D       24.6420   18.8570   17.5500 O.3   483  NDP483     -0.3327
     31  C3D       26.6410   19.7010   16.6480 C.3   483  NDP483      0.2158
     32  O3D       27.2960   20.6140   15.7270 O.3   483  NDP483     -0.2175
     33  C2D       26.4640   20.2300   18.0550 C.3   483  NDP483      0.2309
     34  O2D       26.1370   21.6100   18.0250 O.3   483  NDP483     -0.2158
     35  C1D       25.3400   19.3970   18.6680 C.3   483  NDP483      0.2263
     36  N1N       25.9460   18.3100   19.4760 N.pl3 483  NDP483     -0.2787
     37  C2N       26.6650   18.6030   20.6230 C.3   483  NDP483      0.1244
     38  C3N       27.3400   17.6100   21.3170 C.2   483  NDP483      0.0544
     39  C7N       28.1190   18.0020   22.5390 C.2   483  NDP483      0.2818
     40  O7N       27.8360   19.2730   22.9660 O.2   483  NDP483     -0.2670
     41  N7N       28.9970   17.2120   23.1760 N.am  483  NDP483     -0.0839
     42  C4N       27.3420   16.1720   20.8710 C.2   483  NDP483      0.0033
     43  C5N       26.5390   15.9800   19.6240 C.2   483  NDP483      0.0157
     44  C6N       25.9100   17.0440   19.0000 C.2   483  NDP483      0.0633
     45  P2B       33.5810   17.9530    6.8610 P.3   483  NDP483      0.5328
     46  O1X       33.3340   16.7840    5.9670 O.2   483  NDP483     -0.2224
     47  O2X       33.3410   19.2510    6.1390 O.3   483  NDP483     -0.1145
     48  O3X       34.9200   17.9800    7.5360 O.3   483  NDP483     -0.1145
@<TRIPOS>BOND
     1    18    17    1
     2    19    17    2
     3    19    20    1
     4    17    16    1
     5    20    21    1
     6    16    15    2
     7    16    22    1
     8    15    14    1
     9    21    22    2
    10    22    13    1
    11    46    45    2
    12    47    45    1
    13    14    13    1
    14    13    12    1
    15    45    48    1
    16    45    11    1
    17    12    10    1
    18    12     7    1
    19    10    11    1
    20    10     8    1
    21     8     9    1
    22     8     6    1
    23     7     6    1
    24     6     5    1
    25     5     4    1
    26     4     1    1
    27     2     1    2
    28     1    23    1
    29     1     3    1
    30    23    24    1
    31    26    24    2
    32    24    25    1
    33    24    27    1
    34    28    27    1
    35    28    29    1
    36    32    31    1
    37    29    31    1
    38    29    30    1
    39    31    33    1
    40    30    35    1
    41    34    33    1
    42    33    35    1
    43    35    36    1
    44    44    36    1
    45    44    43    2
    46    36    37    1
    47    43    42    1
    48    37    38    1
    49    42    38    2
    50    38    39    1
    51    39    40    2
    52    39    41   am
