@<TRIPOS>MOLECULE
3dji_TYL_B_1.pdb
 11 11 0 0 0
SMALL
GASTEIGER

@<TRIPOS>ATOM
      1  C1        -9.7660  -14.3350  -37.1500 C.ar  613  TYL613      0.0736
      2  C2       -10.4920  -13.6350  -38.1100 C.ar  613  TYL613      0.0199
      3  C3        -9.9340  -13.3040  -39.3440 C.ar  613  TYL613      0.0434
      4  C4        -8.5990  -13.6720  -39.6030 C.ar  613  TYL613      0.1958
      5  C5        -7.8630  -14.3570  -38.6300 C.ar  613  TYL613      0.0434
      6  C6        -8.4410  -14.6930  -37.4070 C.ar  613  TYL613      0.0199
      7  N        -10.4420  -14.7700  -35.9320 N.am  613  TYL613     -0.1792
      8  C         -9.9620  -14.2210  -34.8000 C.2   613  TYL613      0.2461
      9  CM       -10.5940  -14.5810  -33.4820 C.3   613  TYL613      0.0968
     10  O4        -8.0060  -13.3770  -40.7990 O.3   613  TYL613     -0.2866
     11  O         -9.0160  -13.4410  -34.8200 O.2   613  TYL613     -0.2730
@<TRIPOS>BOND
     1    10     4    1
     2     4     3   ar
     3     4     5   ar
     4     3     2   ar
     5     5     6   ar
     6     2     1   ar
     7     6     1   ar
     8     1     7    1
     9     7     8   am
    10    11     8    2
    11     8     9    1
