@<TRIPOS>MOLECULE
3djj_NDP_A_1.pdb
 48 52 0 0 0
SMALL
GASTEIGER

@<TRIPOS>ATOM
      1  PA        28.1200   17.0160   12.4290 P.3   480  NDP480      0.2189
      2  O1A       28.7710   17.2290   13.7660 O.3   480  NDP480     -0.4371
      3  O2A       27.7040   18.1550   11.6290 O.2   480  NDP480     -0.5170
      4  O5B       29.1420   16.1520   11.6090 O.3   480  NDP480     -0.3112
      5  C5B       28.8050   15.5040   10.3230 C.3   480  NDP480      0.1813
      6  C4B       30.0790   15.5680    9.5170 C.3   480  NDP480      0.1820
      7  O4B       29.9740   14.4660    8.5580 O.3   480  NDP480     -0.3136
      8  C3B       30.2360   16.8080    8.6490 C.3   480  NDP480      0.2157
      9  O3B       30.8820   17.8900    9.3420 O.3   480  NDP480     -0.2175
     10  C2B       31.0920   16.2800    7.4790 C.3   480  NDP480      0.2314
     11  O2B       32.4780   16.2730    7.8060 O.3   480  NDP480     -0.2630
     12  C1B       30.5720   14.8900    7.3050 C.3   480  NDP480      0.3158
     13  N9A       29.5820   14.7450    6.2650 N.pl3 480  NDP480     -0.1439
     14  C8A       28.5700   15.5930    5.9140 C.3   480  NDP480      0.3377
     15  N7A       27.8720   15.2130    4.8500 N.2   480  NDP480     -0.2095
     16  C5A       28.4090   13.9690    4.5330 C.2   480  NDP480      0.2526
     17  C6A       28.0980   13.0660    3.4830 C.2   480  NDP480      0.4393
     18  N6A       27.0580   13.2190    2.6550 N.pl3 480  NDP480      0.2180
     19  N1A       28.8940   11.9380    3.4690 N.2   480  NDP480      0.0021
     20  C2A       29.8760   11.7620    4.3040 C.3   480  NDP480      0.5254
     21  N3A       30.2520   12.5920    5.2860 N.2   480  NDP480     -0.0055
     22  C4A       29.4730   13.6730    5.3480 C.2   480  NDP480      0.3518
     23  O3        26.7920   16.1430   12.5610 O.3   480  NDP480     -0.2703
     24  PN        26.3930   14.8890   13.5120 P.3   480  NDP480      0.2189
     25  O1N       25.3140   14.2060   12.7970 O.2   480  NDP480     -0.5170
     26  O2N       27.5860   14.1990   13.9490 O.3   480  NDP480     -0.4371
     27  O5D       25.8900   15.6200   14.8650 O.3   480  NDP480     -0.3112
     28  C5D       24.8560   16.6500   14.7990 C.3   480  NDP480      0.1813
     29  C4D       25.0840   17.6560   15.8810 C.3   480  NDP480      0.1799
     30  O4D       24.5000   17.1670   17.1630 O.3   480  NDP480     -0.3327
     31  C3D       26.5680   17.9120   16.2760 C.3   480  NDP480      0.2158
     32  O3D       27.1720   18.7840   15.3460 O.3   480  NDP480     -0.2175
     33  C2D       26.3750   18.4790   17.5880 C.3   480  NDP480      0.2309
     34  O2D       26.0170   19.8630   17.4580 O.3   480  NDP480     -0.2158
     35  C1D       25.2510   17.6640   18.2350 C.3   480  NDP480      0.2263
     36  N1N       25.7480   16.5590   19.0320 N.pl3 480  NDP480     -0.2787
     37  C2N       26.4260   16.8950   20.1870 C.3   480  NDP480      0.1244
     38  C3N       27.1120   15.9620   20.9280 C.2   480  NDP480      0.0544
     39  C7N       27.8800   16.5000   22.0960 C.2   480  NDP480      0.2818
     40  O7N       27.7400   17.6630   22.4860 O.2   480  NDP480     -0.2670
     41  N7N       28.7900   15.6370   22.6760 N.am  480  NDP480     -0.0839
     42  C4N       27.2040   14.5640   20.4830 C.2   480  NDP480      0.0033
     43  C5N       26.4640   14.2840   19.2640 C.2   480  NDP480      0.0157
     44  C6N       25.7900   15.2500   18.5380 C.2   480  NDP480      0.0633
     45  P2B       33.5410   16.2800    6.5550 P.3   480  NDP480      0.5328
     46  O1X       34.8570   16.2300    7.2260 O.3   480  NDP480     -0.1145
     47  O2X       33.2590   17.5500    5.7780 O.3   480  NDP480     -0.1145
     48  O3X       33.2200   15.0620    5.7080 O.2   480  NDP480     -0.2224
@<TRIPOS>BOND
     1    18    17    1
     2    19    17    2
     3    19    20    1
     4    17    16    1
     5    20    21    1
     6    16    15    2
     7    16    22    1
     8    15    14    1
     9    21    22    2
    10    22    13    1
    11    48    45    2
    12    47    45    1
    13    14    13    1
    14    13    12    1
    15    45    46    1
    16    45    11    1
    17    12    10    1
    18    12     7    1
    19    10    11    1
    20    10     8    1
    21     7     6    1
    22     8     9    1
    23     8     6    1
    24     6     5    1
    25     5     4    1
    26     4     1    1
    27     3     1    2
    28     1    23    1
    29     1     2    1
    30    23    24    1
    31    25    24    2
    32    24    26    1
    33    24    27    1
    34    28    27    1
    35    28    29    1
    36    32    31    1
    37    29    31    1
    38    29    30    1
    39    31    33    1
    40    30    35    1
    41    34    33    1
    42    33    35    1
    43    35    36    1
    44    44    36    1
    45    44    43    2
    46    36    37    1
    47    43    42    1
    48    37    38    1
    49    42    38    2
    50    38    39    1
    51    39    40    2
    52    39    41   am
