@<TRIPOS>MOLECULE
3djk_G55_B_1.pdb
 38 40 0 0 0
SMALL
GASTEIGER

@<TRIPOS>ATOM
      1  C2        20.8690   27.8900   15.0590 C.ar  401  G55401      0.1388
      2  O39       21.4930   29.0410   14.7630 O.3   401  G55401     -0.4714
      3  C40       22.8770   29.1030   15.0880 C.3   401  G55401      0.2525
      4  C3        21.4610   26.7260   15.5410 C.ar  401  G55401      0.0383
      5  C4        20.7360   25.5970   15.8110 C.ar  401  G55401      0.0230
      6  C5        19.3460   25.6280   15.5390 C.ar  401  G55401      0.1224
      7  C6        18.7550   26.7060   14.9390 C.ar  401  G55401      0.0230
      8  C7        19.5150   27.8140   14.6600 C.ar  401  G55401      0.0383
      9  S8        18.3810   24.2220   16.0380 S.O2  401  G55401      0.0634
     10  O9        17.3000   24.1190   15.0750 O.2   401  G55401     -0.1528
     11  O10       19.2460   23.1130   16.2290 O.2   401  G55401     -0.1528
     12  N11       17.7320   24.5400   17.5050 N.3   401  G55401     -0.1529
     13  C12       18.6610   24.8190   18.5720 C.3   401  G55401      0.0958
     14  C13       18.3610   24.1240   19.9320 C.3   401  G55401      0.0178
     15  C14       18.4700   22.6220   19.7760 C.3   401  G55401      0.0015
     16  C15       19.4190   24.6750   20.8820 C.3   401  G55401      0.0015
     17  C16       16.4370   25.1960   17.5830 C.3   401  G55401      0.1304
     18  C17       15.3440   24.2910   18.1310 C.3   401  G55401      0.1898
     19  O18       14.1730   25.1000   18.4290 O.3   401  G55401     -0.2197
     20  C19       14.9280   23.1250   17.1930 C.3   401  G55401      0.1347
     21  N20       14.0550   22.1930   17.9210 N.am  401  G55401     -0.1675
     22  C21       14.4400   21.0110   18.3640 C.2   401  G55401      0.4211
     23  O22       15.5330   20.5830   18.2690 O.2   401  G55401     -0.2246
     24  O23       13.4510   20.3390   19.0020 O.3   401  G55401     -0.4346
     25  C24       13.7670   18.9940   19.3780 C.3   401  G55401      0.2025
     26  C25       12.7940   18.5910   20.4600 C.3   401  G55401      0.1884
     27  O26       11.4400   18.6570   20.0870 O.3   401  G55401     -0.3229
     28  C27       10.8480   17.5600   19.4500 C.3   401  G55401      0.2941
     29  O28       11.6590   16.9190   18.5120 O.3   401  G55401     -0.3266
     30  C29       12.2610   17.8570   17.6120 C.3   401  G55401      0.1488
     31  C30       13.6570   18.1480   18.1200 C.3   401  G55401      0.0785
     32  C32       14.1560   23.5600   15.9570 C.3   401  G55401      0.0508
     33  C33       12.6170   21.7860   15.0450 C.ar  401  G55401     -0.0042
     34  C34       12.4110   20.6170   14.3520 C.ar  401  G55401     -0.0003
     35  C35       13.4040   20.0470   13.5560 C.ar  401  G55401     -0.0000
     36  C36       14.6320   20.6980   13.4690 C.ar  401  G55401     -0.0003
     37  C37       14.8660   21.8620   14.2270 C.ar  401  G55401     -0.0042
     38  C38       13.8690   22.4000   15.0450 C.ar  401  G55401     -0.0204
@<TRIPOS>BOND
     1    36    35   ar
     2    36    37   ar
     3    35    34   ar
     4    37    38   ar
     5    34    33   ar
     6     8     7   ar
     7     8     1   ar
     8     2     1    1
     9     2     3    1
    10     7     6   ar
    11    38    33   ar
    12    38    32    1
    13     1     4   ar
    14    10     9    2
    15     6     5   ar
    16     6     9    1
    17     4     5   ar
    18    32    20    1
    19     9    11    2
    20     9    12    1
    21    20    21    1
    22    20    18    1
    23    12    17    1
    24    12    13    1
    25    17    18    1
    26    30    31    1
    27    30    29    1
    28    21    22   am
    29    31    25    1
    30    18    19    1
    31    23    22    2
    32    22    24    1
    33    29    28    1
    34    13    14    1
    35    24    25    1
    36    25    26    1
    37    28    27    1
    38    15    14    1
    39    14    16    1
    40    27    26    1
