@<TRIPOS>MOLECULE
3djo_U2P_A_1.pdb
 21 22 0 0 0
SMALL
GASTEIGER

@<TRIPOS>ATOM
      1  O5'       29.5560   42.9480    8.5150 O.3   125  U2P125     -0.2176
      2  C5'       29.9580   44.1320    7.8140 C.3   125  U2P125      0.2142
      3  C4'       29.7720   43.9900    6.2870 C.3   125  U2P125      0.1828
      4  O4'       30.8190   43.1020    5.7800 O.3   125  U2P125     -0.3319
      5  C1'       30.2830   42.3440    4.6760 C.3   125  U2P125      0.2373
      6  N1        30.2060   40.9060    5.0540 N.am  125  U2P125     -0.1767
      7  C6        30.2830   40.4680    6.4010 C.2   125  U2P125      0.0929
      8  C5        30.1960   39.1110    6.7030 C.2   125  U2P125      0.1242
      9  C4        30.0460   38.1860    5.6650 C.1   125  U2P125      0.2182
     10  O4        29.9740   36.9820    5.8920 O.2   125  U2P125     -0.2085
     11  N3        29.9590   38.6210    4.3440 N.2   125  U2P125     -0.2452
     12  C2        30.0550   39.9750    4.0280 C.1   125  U2P125      0.2845
     13  O2        29.9900   40.3510    2.8550 O.2   125  U2P125     -0.1918
     14  C2'       28.8880   42.8990    4.4080 C.3   125  U2P125      0.2063
     15  O2'       29.0380   44.0040    3.5050 O.3   125  U2P125     -0.2656
     16  P         27.8270   44.3730    2.5090 P.3   125  U2P125      0.5327
     17  O1P       26.5810   44.6030    3.2610 O.3   125  U2P125     -0.1145
     18  O2P       28.3320   45.6690    1.6570 O.3   125  U2P125     -0.1145
     19  O3P       27.7220   43.1760    1.4520 O.2   125  U2P125     -0.2224
     20  C3'       28.4680   43.3410    5.8050 C.3   125  U2P125      0.2133
     21  O3'       27.4020   44.2980    5.7440 O.3   125  U2P125     -0.2176
@<TRIPOS>BOND
     1    19    16    2
     2    18    16    1
     3    16    17    1
     4    16    15    1
     5    13    12    2
     6    15    14    1
     7    12    11    2
     8    12     6   am
     9    11     9    2
    10    14     5    1
    11    14    20    1
    12     5     6    1
    13     5     4    1
    14     6     7    1
    15     9    10    2
    16     9     8    1
    17    21    20    1
    18     4     3    1
    19    20     3    1
    20     3     2    1
    21     7     8    2
    22     2     1    1
