@<TRIPOS>MOLECULE
3djp_UA3_A_1.pdb
 21 22 0 0 0
SMALL
GASTEIGER

@<TRIPOS>ATOM
      1  N1        29.8500   39.5820    6.6920 N.am  125  UA3125     -0.1766
      2  C2        29.5960   38.5630    5.7440 C.1   125  UA3125      0.2845
      3  O2        29.4950   37.3800    6.1200 O.2   125  UA3125     -0.1918
      4  N3        29.4910   38.8800    4.4460 N.2   125  UA3125     -0.2452
      5  C4        29.6270   40.1420    4.0100 C.1   125  UA3125      0.2182
      6  O4        29.5410   40.3830    2.7830 O.2   125  UA3125     -0.2085
      7  C5        29.8570   41.1750    4.9190 C.2   125  UA3125      0.1242
      8  C6        29.9470   40.8560    6.2740 C.2   125  UA3125      0.0929
      9  O5'       30.7980   42.6090    9.0280 O.3   125  UA3125     -0.2176
     10  C5'       30.6840   41.9340   10.2880 C.3   125  UA3125      0.2141
     11  C4'       30.2010   40.4960   10.1070 C.3   125  UA3125      0.1802
     12  O4'       29.4660   40.4010    8.8850 O.3   125  UA3125     -0.3319
     13  C3'       31.3140   39.4540   10.0530 C.3   125  UA3125      0.1903
     14  O3'       31.1090   38.4530   11.0250 O.3   125  UA3125     -0.2674
     15  C2'       31.1200   38.6360    8.7970 C.3   125  UA3125      0.2293
     16  O2'       32.3370   38.5620    8.0840 O.3   125  UA3125     -0.2158
     17  C1'       29.8890   39.2580    8.1270 C.3   125  UA3125      0.2400
     18  O3P       32.2810   39.8300   12.9660 O.3   125  UA3125     -0.1145
     19  P         32.2010   38.2390   12.1790 P.3   125  UA3125      0.5327
     20  O1P       33.6240   37.8620   11.5530 O.2   125  UA3125     -0.2224
     21  O2P       31.7100   36.9470   13.2920 O.3   125  UA3125     -0.1145
@<TRIPOS>BOND
     1     6     5    2
     2     5     4    2
     3     5     7    1
     4     4     2    2
     5     7     8    2
     6     2     3    2
     7     2     1   am
     8     8     1    1
     9     1    17    1
    10    16    15    1
    11    17    15    1
    12    17    12    1
    13    15    13    1
    14    12    11    1
    15     9    10    1
    16    13    11    1
    17    13    14    1
    18    11    10    1
    19    14    19    1
    20    20    19    2
    21    19    18    1
    22    19    21    1
