@<TRIPOS>MOLECULE
3djq_UDP_A_1.pdb
 25 26 0 0 0
SMALL
GASTEIGER

@<TRIPOS>ATOM
      1  N1        29.7440   39.5150    6.6750 N.am  125  UDP125     -0.1766
      2  C2        29.5600   38.5460    5.7010 C.1   125  UDP125      0.2845
      3  N3        29.4210   38.9070    4.3720 N.2   125  UDP125     -0.2452
      4  C4        29.4610   40.2310    3.9890 C.1   125  UDP125      0.2182
      5  C5        29.6350   41.2120    4.9650 C.2   125  UDP125      0.1242
      6  C6        29.7110   40.8400    6.3090 C.2   125  UDP125      0.0929
      7  O2        29.5330   37.3600    6.0100 O.2   125  UDP125     -0.1918
      8  O4        29.3350   40.5240    2.7970 O.2   125  UDP125     -0.2085
      9  C1'       29.8760   39.1140    8.1010 C.3   125  UDP125      0.2401
     10  C2'       31.3200   38.8960    8.5430 C.3   125  UDP125      0.2319
     11  O2'       31.4590   37.5900    9.0710 O.3   125  UDP125     -0.2157
     12  C3'       31.5760   39.9600    9.5980 C.3   125  UDP125      0.2158
     13  C4'       30.2050   40.5130    9.9520 C.3   125  UDP125      0.1799
     14  O4'       29.3050   40.1040    8.9350 O.3   125  UDP125     -0.3320
     15  O3'       32.1860   39.4280   10.7510 O.3   125  UDP125     -0.2175
     16  C5'       30.2340   42.0330   10.1230 C.3   125  UDP125      0.1813
     17  O5'       29.6140   42.7130    9.0500 O.3   125  UDP125     -0.3111
     18  PA        30.2710   44.0450    8.4120 P.3   125  UDP125      0.2231
     19  O1A       30.1030   44.0570    6.9400 O.2   125  UDP125     -0.5169
     20  O2A       31.7130   44.1540    8.7480 O.3   125  UDP125     -0.4370
     21  O3A       29.4130   45.2640    9.0200 O.3   125  UDP125     -0.2261
     22  PB        29.4210   45.6410   10.5870 P.3   125  UDP125      0.5373
     23  O1B       28.5390   44.6880   11.3020 O.3   125  UDP125     -0.1143
     24  O2B       28.8940   47.0180   10.7320 O.2   125  UDP125     -0.2221
     25  O3B       30.7910   45.5620   11.1420 O.3   125  UDP125     -0.1143
@<TRIPOS>BOND
     1     8     4    2
     2     4     3    2
     3     4     5    1
     4     3     2    2
     5     5     6    2
     6     2     7    2
     7     2     1   am
     8     6     1    1
     9     1     9    1
    10    19    18    2
    11     9    10    1
    12     9    14    1
    13    18    20    1
    14    18    21    1
    15    18    17    1
    16    10    11    1
    17    10    12    1
    18    14    13    1
    19    21    22    1
    20    17    16    1
    21    12    13    1
    22    12    15    1
    23    13    16    1
    24    22    24    2
    25    22    25    1
    26    22    23    1
