@<TRIPOS>MOLECULE
3djv_C3P_A_1.pdb
 21 22 0 0 0
SMALL
GASTEIGER

@<TRIPOS>ATOM
      1  P         32.0930   38.1280   12.1670 P.3   125  C3P125      0.5327
      2  O1P       32.9580   39.3740   12.1560 O.3   125  C3P125     -0.1145
      3  O2P       32.8480   36.8280   12.0200 O.2   125  C3P125     -0.2224
      4  O3P       31.0490   38.1190   13.2580 O.3   125  C3P125     -0.1145
      5  O5'       31.2960   42.2590    8.9820 O.3   125  C3P125     -0.2176
      6  C5'       30.9030   41.5590   10.1730 C.3   125  C3P125      0.2141
      7  C4'       30.3010   40.1870    9.8600 C.3   125  C3P125      0.1802
      8  O4'       29.6400   40.1940    8.5890 O.3   125  C3P125     -0.3320
      9  C3'       31.3530   39.0760    9.7820 C.3   125  C3P125      0.1903
     10  O3'       31.1870   38.1560   10.8380 O.3   125  C3P125     -0.2674
     11  C2'       31.0940   38.3500    8.4750 C.3   125  C3P125      0.2293
     12  O2'       32.3320   37.8720    7.9670 O.3   125  C3P125     -0.2158
     13  C1'       30.5630   39.5450    7.7110 C.3   125  C3P125      0.2399
     14  N1        30.1230   39.5120    6.3130 N.am  125  C3P125     -0.1778
     15  C2        29.7620   38.3900    5.5080 C.1   125  C3P125      0.2756
     16  N3        29.4220   38.6270    4.2200 N.2   125  C3P125     -0.3024
     17  C4        29.4280   39.8770    3.6870 C.2   125  C3P125      0.2346
     18  C5        29.7910   40.9650    4.4590 C.2   125  C3P125      0.0687
     19  C6        30.1350   40.7390    5.7740 C.2   125  C3P125      0.0836
     20  O2        29.7370   37.2070    5.9270 O.2   125  C3P125     -0.1925
     21  N4        29.0840   40.0930    2.3980 N.pl3 125  C3P125     -0.0921
@<TRIPOS>BOND
     1    21    17    1
     2    17    16    2
     3    17    18    1
     4    16    15    2
     5    18    19    2
     6    15    20    2
     7    15    14   am
     8    19    14    1
     9    14    13    1
    10    13    11    1
    11    13     8    1
    12    12    11    1
    13    11     9    1
    14     8     7    1
    15     5     6    1
    16     9     7    1
    17     9    10    1
    18     7     6    1
    19    10     1    1
    20     3     1    2
    21     2     1    1
    22     1     4    1
