@<TRIPOS>MOLECULE
3djx_C5P_A_1.pdb
 21 22 0 0 0
SMALL
GASTEIGER

@<TRIPOS>ATOM
      1  O3P       30.2780   44.4680    6.9150 O.2   125  C5P125     -0.2224
      2  P         30.6270   44.0450    8.2880 P.3   125  C5P125      0.5327
      3  O1P       32.0470   44.4880    8.5460 O.3   125  C5P125     -0.1145
      4  O2P       29.5690   44.4670    9.2930 O.3   125  C5P125     -0.1145
      5  O5'       30.6200   42.4180    8.3830 O.3   125  C5P125     -0.2675
      6  C5'       30.8370   41.7730    9.6460 C.3   125  C5P125      0.1859
      7  C4'       30.7870   40.2390    9.6050 C.3   125  C5P125      0.1801
      8  O4'       29.6540   39.7590    8.8570 O.3   125  C5P125     -0.3320
      9  C3'       32.0360   39.6140    8.9990 C.3   125  C5P125      0.2158
     10  O3'       32.8850   39.0930   10.0230 O.3   125  C5P125     -0.2175
     11  C2'       31.5320   38.4190    8.2310 C.3   125  C5P125      0.2319
     12  O2'       31.5570   37.2970    9.1000 O.3   125  C5P125     -0.2157
     13  C1'       30.0790   38.7310    7.9430 C.3   125  C5P125      0.2400
     14  N1        29.8790   39.1710    6.5640 N.am  125  C5P125     -0.1778
     15  C2        29.7560   38.2130    5.5380 C.1   125  C5P125      0.2756
     16  N3        29.5500   38.5950    4.2640 N.2   125  C5P125     -0.3024
     17  C4        29.4510   39.9020    3.9270 C.2   125  C5P125      0.2346
     18  C5        29.5610   40.8690    4.9160 C.2   125  C5P125      0.0687
     19  C6        29.7730   40.4830    6.2350 C.2   125  C5P125      0.0836
     20  O2        29.8730   37.0180    5.8190 O.2   125  C5P125     -0.1925
     21  N4        29.2410   40.2600    2.6340 N.pl3 125  C5P125     -0.0921
@<TRIPOS>BOND
     1    21    17    1
     2    17    16    2
     3    17    18    1
     4    16    15    2
     5    18    19    2
     6    15    20    2
     7    15    14   am
     8    19    14    1
     9    14    13    1
    10     1     2    2
    11    13    11    1
    12    13     8    1
    13    11     9    1
    14    11    12    1
    15     2     5    1
    16     2     3    1
    17     2     4    1
    18     5     6    1
    19     8     7    1
    20     9     7    1
    21     9    10    1
    22     7     6    1
