@<TRIPOS>MOLECULE
3djy_FUL_A_1.pdb
 10 10 0 0 0
SMALL
GASTEIGER

@<TRIPOS>ATOM
      1  C1         6.5340  -16.1690  -32.8610 C.3   534  FUL534      0.1776
      2  C2         6.6960  -16.6820  -31.4420 C.3   534  FUL534      0.2141
      3  O2         7.0040  -18.0550  -31.3830 O.3   534  FUL534     -0.2176
      4  C3         7.8350  -15.8640  -30.8890 C.3   534  FUL534      0.2172
      5  O3         8.2000  -16.3760  -29.6380 O.3   534  FUL534     -0.2175
      6  C4         7.2820  -14.4600  -30.7880 C.3   534  FUL534      0.2116
      7  O4         6.0190  -14.5320  -30.1760 O.3   534  FUL534     -0.2177
      8  C5         7.0380  -13.9390  -32.1900 C.3   534  FUL534      0.1483
      9  C6         6.5040  -12.5070  -32.1510 C.3   534  FUL534      0.0349
     10  O5         6.1240  -14.8100  -32.8410 O.3   534  FUL534     -0.3508
@<TRIPOS>BOND
     1     1    10    1
     2     1     2    1
     3    10     8    1
     4     8     9    1
     5     8     6    1
     6     2     3    1
     7     2     4    1
     8     4     6    1
     9     4     5    1
    10     6     7    1
