@<TRIPOS>MOLECULE
3dk1_G05_B_1.pdb
 41 44 0 0 0
SMALL
GASTEIGER

@<TRIPOS>ATOM
      1  C2        20.8680   27.7330   14.8850 C.ar  401  G05401      0.1388
      2  C2        11.7080   18.2340   19.9360 C.3   401  G05401      0.0358
      3  O39       21.4580   28.9590   14.7130 O.3   401  G05401     -0.4714
      4  C40       22.8290   28.9460   15.0250 C.3   401  G05401      0.2525
      5  C3        21.4340   26.6140   15.4840 C.ar  401  G05401      0.0383
      6  C4        20.6410   25.5190   15.7310 C.ar  401  G05401      0.0230
      7  C5        19.2830   25.5310   15.4250 C.ar  401  G05401      0.1224
      8  C6        18.7090   26.6500   14.8530 C.ar  401  G05401      0.0230
      9  C7        19.5250   27.7590   14.6000 C.ar  401  G05401      0.0383
     10  S8        18.2990   24.1590   15.9000 S.O2  401  G05401      0.0634
     11  O9        17.1840   24.0540   14.9470 O.2   401  G05401     -0.1528
     12  O10       19.1870   23.0200   16.0500 O.2   401  G05401     -0.1528
     13  N11       17.6260   24.4540   17.3920 N.3   401  G05401     -0.1529
     14  C12       18.5710   24.7340   18.4620 C.3   401  G05401      0.0958
     15  C13       18.2970   24.0360   19.8010 C.3   401  G05401      0.0178
     16  C14       18.3460   22.5130   19.6590 C.3   401  G05401      0.0015
     17  C15       19.3290   24.5420   20.8460 C.3   401  G05401      0.0015
     18  C16       16.3340   25.1440   17.4410 C.3   401  G05401      0.1304
     19  C17       15.2320   24.2270   17.9790 C.3   401  G05401      0.1898
     20  O18       14.0600   25.0110   18.2740 O.3   401  G05401     -0.2197
     21  C19       14.8660   23.0850   17.0340 C.3   401  G05401      0.1347
     22  N20       13.9520   22.1820   17.7540 N.am  401  G05401     -0.1675
     23  C21       14.2950   20.9940   18.1590 C.2   401  G05401      0.4210
     24  O22       15.4020   20.4420   18.0020 O.2   401  G05401     -0.2246
     25  O23       13.3030   20.3560   18.8090 O.3   401  G05401     -0.4372
     26  C24       13.5610   18.9970   19.2350 C.3   401  G05401      0.1731
     27  C25       12.3380   18.6100   20.0800 C.3   401  G05401      0.0463
     28  C26       11.3020   18.0090   19.1070 C.3   401  G05401      0.1425
     29  O27       10.6550   19.1440   18.4210 O.3   401  G05401     -0.3511
     30  C28        9.9330   18.7060   17.2580 C.3   401  G05401      0.1741
     31  C29       10.9550   18.1230   16.2780 C.3   401  G05401      0.1741
     32  O30       11.5180   16.9510   16.8810 O.3   401  G05401     -0.3510
     33  C31       12.1490   17.2850   18.1360 C.3   401  G05401      0.1459
     34  C41       13.4480   18.0590   18.0260 C.3   401  G05401      0.0757
     35  C32       14.1440   23.5310   15.7810 C.3   401  G05401      0.0508
     36  C33       12.5080   21.8350   14.8170 C.ar  401  G05401     -0.0042
     37  C34       12.2340   20.6820   14.0940 C.ar  401  G05401     -0.0003
     38  C35       13.2230   20.0520   13.3500 C.ar  401  G05401     -0.0000
     39  C36       14.5000   20.6090   13.3780 C.ar  401  G05401     -0.0003
     40  C37       14.7820   21.7640   14.1240 C.ar  401  G05401     -0.0042
     41  C38       13.7850   22.3820   14.8560 C.ar  401  G05401     -0.0204
@<TRIPOS>BOND
     1    38    39   ar
     2    38    37   ar
     3    39    40   ar
     4    37    36   ar
     5    40    41   ar
     6     9     8   ar
     7     9     1   ar
     8     3     1    1
     9     3     4    1
    10    36    41   ar
    11     8     7   ar
    12    41    35    1
    13     1     5   ar
    14    11    10    2
    15     7     6   ar
    16     7    10    1
    17     5     6   ar
    18    35    21    1
    19    10    12    2
    20    10    13    1
    21    31    32    1
    22    31    30    1
    23    32    33    1
    24    21    22    1
    25    21    19    1
    26    30    29    1
    27    13    18    1
    28    13    14    1
    29    18    19    1
    30    22    23   am
    31    19    20    1
    32    24    23    2
    33    34    33    1
    34    34    26    1
    35    33    28    1
    36    23    25    1
    37    29    28    1
    38    14    15    1
    39    25    26    1
    40    28     2    1
    41    26    27    1
    42    16    15    1
    43    15    17    1
    44     2    27    1
