@<TRIPOS>MOLECULE
3dk3_SX7_A_1.pdb
 28 31 0 0 0
SMALL
GASTEIGER

@<TRIPOS>ATOM
      1  O1       -44.4950   80.2030   58.2880 O.2     1  SX71       -0.2699
      2  C7       -34.7250   79.7850   60.1110 C.2     1  SX71        0.1117
      3  C6       -35.7340   80.3170   60.8890 C.2     1  SX71        0.0466
      4  C1       -32.1570   80.9990   62.1820 C.3     1  SX71        0.0284
      5  N1       -34.5320   81.3940   62.8900 N.ar    1  SX71       -0.2508
      6  C5       -35.5560   81.3060   61.9800 C.ar    1  SX71        0.0816
      7  C4       -36.4350   82.3210   62.2980 C.ar    1  SX71        0.0412
      8  C3       -35.8570   82.9700   63.3990 C.ar    1  SX71        0.1217
      9  C2       -33.3440   80.5590   63.0210 C.3     1  SX71        0.1275
     10  C19      -43.9660   79.1270   58.5740 C.2     1  SX71        0.2504
     11  N6       -44.2230   77.9310   57.8810 N.am    1  SX71       -0.2725
     12  C21      -43.8840   76.5980   58.3680 C.3     1  SX71        0.1152
     13  C20      -44.5020   78.0050   56.4550 C.3     1  SX71        0.1152
     14  C17      -43.0230   79.1440   59.7230 C.ar    1  SX71        0.0703
     15  C16      -43.4960   79.2170   61.0500 C.ar    1  SX71        0.0934
     16  N5       -44.8700   79.2760   61.3670 N.pl3   1  SX71       -0.1279
     17  C15      -42.5540   79.2330   62.0910 C.ar    1  SX71        0.0182
     18  C14      -41.1740   79.1730   61.8200 C.ar    1  SX71        0.0014
     19  C18      -41.6430   79.0880   59.4530 C.ar    1  SX71        0.0059
     20  C13      -40.6970   79.0950   60.4930 C.ar    1  SX71        0.0018
     21  C10      -39.2630   79.0360   60.1670 C.2     1  SX71        0.0206
     22  C9       -38.7790   78.2020   59.1440 C.2     1  SX71        0.1095
     23  N4       -37.4890   78.0670   58.7430 N.2     1  SX71       -0.1922
     24  C11      -38.3150   79.8230   60.8480 C.2     1  SX71        0.0117
     25  C12      -36.9570   79.7260   60.4760 C.2     1  SX71        0.0654
     26  C8       -36.6430   78.8460   59.4450 C.1     1  SX71        0.0353
     27  N3       -35.2940   78.8930   59.2430 N.2     1  SX71       -0.1922
     28  N2       -34.7050   82.4100   63.7680 N.ar    1  SX71       -0.1677
@<TRIPOS>BOND
     1    13    11    1
     2    11    12    1
     3    11    10   am
     4     1    10    2
     5    10    14    1
     6    23    22    1
     7    23    26    2
     8    22    21    2
     9    27    26    2
    10    27     2    1
    11    26    25    1
    12    19    14   ar
    13    19    20   ar
    14    14    15   ar
    15     2     3    2
    16    21    20    1
    17    21    24    1
    18    25    24    2
    19    25     3    1
    20    20    18   ar
    21     3     6    1
    22    15    16    1
    23    15    17   ar
    24    18    17   ar
    25     6     7   ar
    26     6     5   ar
    27     4     9    1
    28     7     8   ar
    29     5     9    1
    30     5    28   ar
    31     8    28   ar
