@<TRIPOS>MOLECULE
3dk4_NDP_A_1.pdb
 48 52 0 0 0
SMALL
GASTEIGER

@<TRIPOS>ATOM
      1  PA        28.1310   17.6580   11.7620 P.3   480  NDP480      0.2189
      2  O1A       28.2560   18.8010   10.7140 O.2   480  NDP480     -0.5170
      3  O2A       26.7210   17.1110   11.8330 O.3   480  NDP480     -0.4371
      4  O5B       29.1700   16.6240   11.3350 O.3   480  NDP480     -0.3112
      5  C5B       29.0260   15.7610   10.2080 C.3   480  NDP480      0.1813
      6  C4B       30.3120   15.8450    9.4150 C.3   480  NDP480      0.1820
      7  O4B       30.3960   14.6790    8.5490 O.3   480  NDP480     -0.3136
      8  C3B       30.4360   17.0610    8.4830 C.3   480  NDP480      0.2157
      9  O3B       31.0410   18.1190    9.1780 O.3   480  NDP480     -0.2175
     10  C2B       31.3060   16.5060    7.3660 C.3   480  NDP480      0.2314
     11  O2B       32.7170   16.5140    7.6700 O.3   480  NDP480     -0.2630
     12  C1B       30.8040   15.0790    7.2490 C.3   480  NDP480      0.3158
     13  N9A       29.6970   14.8880    6.3320 N.pl3 480  NDP480     -0.1439
     14  C8A       28.7100   15.7520    5.9660 C.3   480  NDP480      0.3377
     15  N7A       27.9460   15.3030    4.9830 N.2   480  NDP480     -0.2095
     16  C5A       28.5490   14.1120    4.6380 C.2   480  NDP480      0.2526
     17  C6A       28.1780   13.1360    3.7120 C.2   480  NDP480      0.4393
     18  N6A       27.1740   13.3260    2.8350 N.pl3 480  NDP480      0.2180
     19  N1A       28.9700   12.0330    3.6500 N.2   480  NDP480      0.0021
     20  C2A       29.9920   11.8950    4.4890 C.3   480  NDP480      0.5254
     21  N3A       30.4090   12.7460    5.4470 N.2   480  NDP480     -0.0055
     22  C4A       29.6220   13.8360    5.4570 C.2   480  NDP480      0.3518
     23  O3        28.5810   18.2130   13.0840 O.3   480  NDP480     -0.2703
     24  PN        29.7310   18.6020   14.1470 P.3   480  NDP480      0.2189
     25  O1N       29.9860   17.3390   14.9080 O.3   480  NDP480     -0.4371
     26  O2N       30.8370   19.1950   13.3620 O.2   480  NDP480     -0.5170
     27  O5D       29.0440   19.7090   14.9360 O.3   480  NDP480     -0.3112
     28  C5D       27.9640   19.5990   15.8690 C.3   480  NDP480      0.1813
     29  C4D       28.0540   20.6660   16.9540 C.3   480  NDP480      0.1799
     30  O4D       29.3510   20.5550   17.6130 O.3   480  NDP480     -0.3327
     31  C3D       28.0500   22.0990   16.4640 C.3   480  NDP480      0.2158
     32  O3D       26.7500   22.5710   16.1220 O.3   480  NDP480     -0.2175
     33  C2D       28.6850   22.8320   17.6320 C.3   480  NDP480      0.2309
     34  O2D       27.6980   22.9990   18.6350 O.3   480  NDP480     -0.2158
     35  C1D       29.7810   21.8440   18.0260 C.3   480  NDP480      0.2263
     36  N1N       31.1000   22.1030   17.3840 N.pl3 480  NDP480     -0.2787
     37  C2N       31.9870   22.8790   18.0970 C.3   480  NDP480      0.1244
     38  C3N       33.1230   23.3560   17.5020 C.2   480  NDP480      0.0544
     39  C7N       34.0940   24.2370   18.2440 C.2   480  NDP480      0.2818
     40  O7N       33.7440   24.8290   19.2670 O.2   480  NDP480     -0.2670
     41  N7N       35.3120   24.3260   17.6870 N.am  480  NDP480     -0.0839
     42  C4N       33.4090   23.0710   16.1560 C.2   480  NDP480      0.0033
     43  C5N       32.5010   22.2850   15.4490 C.2   480  NDP480      0.0157
     44  C6N       31.3320   21.8440   16.0770 C.2   480  NDP480      0.0633
     45  P2B       33.8770   16.5170    6.6100 P.3   480  NDP480      0.5328
     46  O1X       35.2090   16.3490    7.3090 O.3   480  NDP480     -0.1145
     47  O2X       33.6950   17.8510    5.9130 O.3   480  NDP480     -0.1145
     48  O3X       33.6090   15.3740    5.6510 O.2   480  NDP480     -0.2224
@<TRIPOS>BOND
     1    18    17    1
     2    19    17    2
     3    19    20    1
     4    17    16    1
     5    20    21    1
     6    16    15    2
     7    16    22    1
     8    15    14    1
     9    21    22    2
    10    22    13    1
    11    48    45    2
    12    47    45    1
    13    14    13    1
    14    13    12    1
    15    45    46    1
    16    45    11    1
    17    12    10    1
    18    12     7    1
    19    10    11    1
    20    10     8    1
    21     8     9    1
    22     8     6    1
    23     7     6    1
    24     6     5    1
    25     5     4    1
    26     2     1    2
    27     4     1    1
    28     1     3    1
    29     1    23    1
    30    23    24    1
    31    26    24    2
    32    24    25    1
    33    24    27    1
    34    27    28    1
    35    43    44    2
    36    43    42    1
    37    28    29    1
    38    44    36    1
    39    32    31    1
    40    42    38    2
    41    31    29    1
    42    31    33    1
    43    29    30    1
    44    36    35    1
    45    36    37    1
    46    38    37    1
    47    38    39    1
    48    30    35    1
    49    33    35    1
    50    33    34    1
    51    41    39   am
    52    39    40    2
