@<TRIPOS>MOLECULE
3dk4_GSH_A_1.pdb
 20 19 0 0 0
SMALL
GASTEIGER

@<TRIPOS>ATOM
      1  N1        20.0830   21.0920   35.5180 N.3   481  GSH481     -0.1208
      2  CA1       20.6820   21.7350   34.3310 C.3   481  GSH481      0.1948
      3  C1        20.2980   23.2390   34.3810 C.2   481  GSH481      0.3819
      4  O11       19.6220   23.6370   35.3200 O.co2 481  GSH481     -0.2441
      5  O12       20.7390   23.9320   33.4100 O.co2 481  GSH481     -0.2441
      6  CB1       20.1310   21.1250   33.0560 C.3   481  GSH481      0.0402
      7  CG1       20.6320   19.6220   32.8640 C.3   481  GSH481      0.0889
      8  CD1       20.0980   19.1520   31.5580 C.2   481  GSH481      0.2418
      9  OE1       20.6270   19.4430   30.4650 O.2   481  GSH481     -0.2733
     10  N2        18.9640   18.4050   31.5960 N.am  481  GSH481     -0.1968
     11  CA2       18.2680   17.9260   30.3940 C.3   481  GSH481      0.1843
     12  C2        17.0410   18.8320   30.0390 C.2   481  GSH481      0.2627
     13  O2        16.2550   18.5150   29.0700 O.2   481  GSH481     -0.2714
     14  CB2       17.7420   16.5020   30.5730 C.3   481  GSH481      0.0997
     15  SG2       19.0610   15.2630   30.8610 S.3   481  GSH481     -0.0797
     16  N3        16.7660   19.7940   30.8780 N.am  481  GSH481     -0.1917
     17  CA3       15.5330   20.7960   30.4310 C.3   481  GSH481      0.2285
     18  C3        15.1680   21.3780   31.8920 C.2   481  GSH481      0.3865
     19  O31       14.1060   21.9790   32.0580 O.co2 481  GSH481     -0.2437
     20  O32       16.1340   21.2090   32.7950 O.co2 481  GSH481     -0.2437
@<TRIPOS>BOND
     1    13    12    2
     2    12    11    1
     3    12    16   am
     4    11    14    1
     5    11    10    1
     6    17    16    1
     7    17    18    1
     8     9     8    2
     9    14    15    1
    10     8    10   am
    11     8     7    1
    12    18    19   ar
    13    18    20   ar
    14     7     6    1
    15     6     2    1
    16     5     3   ar
    17     2     3    1
    18     2     1    1
    19     3     4   ar
