@<TRIPOS>MOLECULE
3dk6_SX7_A_1.pdb
 28 31 0 0 0
SMALL
GASTEIGER

@<TRIPOS>ATOM
      1  O1       -42.7360   79.1850   63.7490 O.2     1  SX71       -0.2699
      2  C7       -34.5210   79.9500   60.2650 C.2     1  SX71        0.1117
      3  C6       -35.6520   80.5760   60.7450 C.2     1  SX71        0.0466
      4  C1       -32.6200   83.5490   60.5520 C.3     1  SX71        0.0284
      5  N1       -34.9680   83.0110   61.2440 N.ar    1  SX71       -0.2508
      6  C5       -35.6540   81.8480   61.5080 C.ar    1  SX71        0.0816
      7  C4       -36.3780   82.0820   62.6570 C.ar    1  SX71        0.0412
      8  C3       -36.0650   83.4030   63.0130 C.ar    1  SX71        0.1217
      9  C2       -34.0630   83.3110   60.1420 C.3     1  SX71        0.1275
     10  C19      -43.0630   79.7750   62.7160 C.2     1  SX71        0.2504
     11  N6       -43.9340   80.8770   62.6820 N.am    1  SX71       -0.2725
     12  C21      -43.7460   82.0440   61.8220 C.3     1  SX71        0.1152
     13  C20      -44.8320   81.0850   63.8090 C.3     1  SX71        0.1152
     14  C17      -42.4760   79.2580   61.4560 C.ar    1  SX71        0.0703
     15  C16      -43.3000   78.7440   60.4360 C.ar    1  SX71        0.0934
     16  N5       -44.7040   78.6890   60.5430 N.pl3   1  SX71       -0.1279
     17  C15      -42.6880   78.2680   59.2680 C.ar    1  SX71        0.0182
     18  C14      -41.2900   78.3030   59.1250 C.ar    1  SX71        0.0014
     19  C18      -41.0740   79.2920   61.3100 C.ar    1  SX71        0.0059
     20  C13      -40.4550   78.8230   60.1360 C.ar    1  SX71        0.0018
     21  C10      -38.9860   78.8450   59.9950 C.2     1  SX71        0.0206
     22  C9       -38.3140   77.8160   59.3180 C.2     1  SX71        0.1095
     23  N4       -36.9760   77.6930   59.1210 N.2     1  SX71       -0.1922
     24  C11      -38.1810   79.8640   60.5480 C.2     1  SX71        0.0117
     25  C12      -36.7800   79.7930   60.3770 C.2     1  SX71        0.0654
     26  C8       -36.2790   78.7040   59.6680 C.1     1  SX71        0.0353
     27  N3       -34.9200   78.8150   59.6140 N.2     1  SX71       -0.1922
     28  N2       -35.2130   83.9750   62.1620 N.ar    1  SX71       -0.1677
@<TRIPOS>BOND
     1    23    22    1
     2    23    26    2
     3    18    17   ar
     4    18    20   ar
     5    17    15   ar
     6    22    21    2
     7    27    26    2
     8    27     2    1
     9    26    25    1
    10    21    20    1
    11    21    24    1
    12    20    19   ar
    13     9     4    1
    14     9     5    1
    15     2     3    2
    16    25    24    2
    17    25     3    1
    18    15    16    1
    19    15    14   ar
    20     3     6    1
    21     5     6   ar
    22     5    28   ar
    23    19    14   ar
    24    14    10    1
    25     6     7   ar
    26    12    11    1
    27    28     8   ar
    28     7     8   ar
    29    11    10   am
    30    11    13    1
    31    10     1    2
