@<TRIPOS>MOLECULE
3dk7_SX7_A_1.pdb
 28 31 0 0 0
SMALL
GASTEIGER

@<TRIPOS>ATOM
      1  O1       -61.3070   80.8420  110.5160 O.2     1  SX71       -0.2699
      2  C7       -71.0490   80.6320  108.5840 C.2     1  SX71        0.1117
      3  C6       -70.0190   81.1250  107.8120 C.2     1  SX71        0.0466
      4  C1       -73.7050   82.1830  106.1290 C.3     1  SX71        0.0284
      5  N1       -71.2130   82.2260  105.8190 N.ar    1  SX71       -0.2508
      6  C5       -70.1700   82.1000  106.7030 C.ar    1  SX71        0.0816
      7  C4       -69.2530   83.0660  106.3430 C.ar    1  SX71        0.0412
      8  C3       -69.8280   83.7230  105.2440 C.ar    1  SX71        0.1217
      9  C2       -72.4370   81.4370  105.7500 C.3     1  SX71        0.1275
     10  C19      -61.8650   79.7730  110.2530 C.2     1  SX71        0.2504
     11  N6       -61.6530   78.5900  110.9800 N.am    1  SX71       -0.2725
     12  C21      -61.9560   77.2480  110.4910 C.3     1  SX71        0.1152
     13  C20      -61.4700   78.6870  112.4200 C.3     1  SX71        0.1152
     14  C17      -62.7960   79.7820  109.0940 C.ar    1  SX71        0.0703
     15  C16      -62.3150   79.8090  107.7670 C.ar    1  SX71        0.0934
     16  N5       -60.9420   79.8290  107.4500 N.pl3   1  SX71       -0.1279
     17  C15      -63.2490   79.8240  106.7200 C.ar    1  SX71        0.0182
     18  C14      -64.6290   79.8030  106.9850 C.ar    1  SX71        0.0014
     19  C18      -64.1770   79.7650  109.3570 C.ar    1  SX71        0.0059
     20  C13      -65.1130   79.7710  108.3090 C.ar    1  SX71        0.0018
     21  C10      -66.5470   79.7550  108.6200 C.2     1  SX71        0.0206
     22  C9       -67.0640   78.9550  109.6510 C.2     1  SX71        0.1095
     23  N4       -68.3640   78.8660  110.0360 N.2     1  SX71       -0.1922
     24  C11      -67.4600   80.5550  107.9050 C.2     1  SX71        0.0117
     25  C12      -68.8220   80.5060  108.2580 C.2     1  SX71        0.0654
     26  C8       -69.1740   79.6560  109.3050 C.1     1  SX71        0.0353
     27  N3       -70.5230   79.7480  109.4880 N.2     1  SX71       -0.1922
     28  N2       -71.0160   83.2150  104.9160 N.ar    1  SX71       -0.1677
@<TRIPOS>BOND
     1    28     8   ar
     2    28     5   ar
     3     8     7   ar
     4     9     5    1
     5     9     4    1
     6     5     6   ar
     7     7     6   ar
     8     6     3    1
     9    17    18   ar
    10    17    15   ar
    11    18    20   ar
    12    16    15    1
    13    15    14   ar
    14     3    25    1
    15     3     2    2
    16    24    25    2
    17    24    21    1
    18    25    26    1
    19    20    21    1
    20    20    19   ar
    21     2    27    1
    22    21    22    2
    23    14    19   ar
    24    14    10    1
    25    26    27    2
    26    26    23    2
    27    22    23    1
    28    10     1    2
    29    10    11   am
    30    12    11    1
    31    11    13    1
