@<TRIPOS>MOLECULE
3dk8_GSH_A_1.pdb
 20 19 0 0 0
SMALL
GASTEIGER

@<TRIPOS>ATOM
      1  N1        20.0310   20.9360   35.4430 N.3   481  GSH481     -0.1208
      2  CA1       20.5530   21.5900   34.2270 C.3   481  GSH481      0.1948
      3  C1        20.1590   23.0920   34.2900 C.2   481  GSH481      0.3819
      4  O11       19.3980   23.4570   35.2230 O.co2 481  GSH481     -0.2441
      5  O12       20.5620   23.8660   33.4180 O.co2 481  GSH481     -0.2441
      6  CB1       20.0210   20.9670   33.0060 C.3   481  GSH481      0.0402
      7  CG1       20.3900   19.4780   32.8240 C.3   481  GSH481      0.0889
      8  CD1       19.9860   19.0980   31.4580 C.2   481  GSH481      0.2418
      9  OE1       20.5420   19.4810   30.4410 O.2   481  GSH481     -0.2733
     10  N2        18.8610   18.2850   31.3900 N.am  481  GSH481     -0.1968
     11  CA2       18.2080   17.9970   30.0900 C.3   481  GSH481      0.1843
     12  C2        17.0370   18.9700   29.8450 C.2   481  GSH481      0.2627
     13  O2        16.5230   18.8770   28.7080 O.2   481  GSH481     -0.2714
     14  CB2       17.7740   16.5530   30.0320 C.3   481  GSH481      0.0997
     15  SG2       18.9160   15.2990   30.8680 S.3   481  GSH481     -0.0797
     16  N3        16.6470   19.7770   30.7360 N.am  481  GSH481     -0.1917
     17  CA3       15.4920   20.7230   30.5550 C.3   481  GSH481      0.2285
     18  C3        15.2200   21.3810   31.9910 C.2   481  GSH481      0.3865
     19  O31       14.1490   22.0320   32.0730 O.co2 481  GSH481     -0.2437
     20  O32       16.1300   21.1980   32.8140 O.co2 481  GSH481     -0.2437
@<TRIPOS>BOND
     1    13    12    2
     2    12    11    1
     3    12    16   am
     4    14    11    1
     5    14    15    1
     6    11    10    1
     7     9     8    2
     8    17    16    1
     9    17    18    1
    10    10     8   am
    11     8     7    1
    12    18    19   ar
    13    18    20   ar
    14     7     6    1
    15     6     2    1
    16     5     3   ar
    17     2     3    1
    18     2     1    1
    19     3     4   ar
