@<TRIPOS>MOLECULE
3dkc_ATP_A_1.pdb
 31 33 0 0 0
SMALL
GASTEIGER

@<TRIPOS>ATOM
      1  PG        12.8740   27.7640   21.2910 P.3     1  ATP1        0.5373
      2  O1G       12.1870   28.1860   22.5850 O.3     1  ATP1       -0.1143
      3  O2G       14.3650   27.6900   21.3370 O.3     1  ATP1       -0.1143
      4  O3G       12.2070   26.5200   20.6960 O.2     1  ATP1       -0.2221
      5  PB        13.3910   30.2590   19.9060 P.3     1  ATP1        0.2277
      6  O1B       14.7630   29.8250   19.5100 O.3     1  ATP1       -0.4368
      7  O2B       12.6100   31.1430   18.9690 O.2     1  ATP1       -0.5168
      8  O3B       12.5110   28.9460   20.2480 O.3     1  ATP1       -0.2258
      9  PA        14.7720   31.3270   22.2420 P.3     1  ATP1        0.2189
     10  O1A       15.7930   30.2310   22.0520 O.2     1  ATP1       -0.5170
     11  O2A       14.2420   31.5550   23.6300 O.3     1  ATP1       -0.4371
     12  O3A       13.4660   31.0310   21.3370 O.3     1  ATP1       -0.2700
     13  O5'       15.4700   32.6210   21.6410 O.3     1  ATP1       -0.3112
     14  C5'       14.7710   33.8810   21.6090 C.3     1  ATP1        0.1813
     15  C4'       15.4240   34.8390   20.6240 C.3     1  ATP1        0.1821
     16  O4'       16.8200   34.9590   20.8870 O.3     1  ATP1       -0.3135
     17  C3'       15.3190   34.2940   19.2020 C.3     1  ATP1        0.2184
     18  O3'       15.1710   35.4150   18.3130 O.3     1  ATP1       -0.2174
     19  C2'       16.6560   33.6330   18.9830 C.3     1  ATP1        0.2570
     20  O2'       17.0480   33.4970   17.6070 O.3     1  ATP1       -0.2130
     21  C1'       17.5750   34.5770   19.7350 C.3     1  ATP1        0.3186
     22  N9        18.8250   33.9390   20.1540 N.pl3   1  ATP1       -0.1439
     23  C8        18.9740   32.8050   20.8740 C.3     1  ATP1        0.3377
     24  N7        20.2920   32.5460   21.0470 N.2     1  ATP1       -0.2095
     25  C5        21.0000   33.5140   20.4500 C.2     1  ATP1        0.2526
     26  C6        22.4320   33.8180   20.2470 C.2     1  ATP1        0.4393
     27  N6        23.4130   33.0140   20.7560 N.pl3   1  ATP1        0.2180
     28  N1        22.7300   34.9440   19.5340 N.2     1  ATP1        0.0021
     29  C2        21.7840   35.7590   19.0250 C.3     1  ATP1        0.5254
     30  N3        20.4630   35.5270   19.1610 N.2     1  ATP1       -0.0055
     31  C4        20.0290   34.4440   19.8610 C.2     1  ATP1        0.3518
@<TRIPOS>BOND
     1    20    19    1
     2    18    17    1
     3     7     5    2
     4    19    17    1
     5    19    21    1
     6    29    30    1
     7    29    28    1
     8    30    31    2
     9    17    15    1
    10     6     5    1
    11    28    26    2
    12    21    22    1
    13    21    16    1
    14    31    22    1
    15    31    25    1
    16     5     8    1
    17     5    12    1
    18    22    23    1
    19    26    25    1
    20    26    27    1
    21     8     1    1
    22    25    24    2
    23    15    16    1
    24    15    14    1
    25     4     1    2
    26    23    24    1
    27     1     3    1
    28     1     2    1
    29    12     9    1
    30    14    13    1
    31    13     9    1
    32    10     9    2
    33     9    11    1
