@<TRIPOS>MOLECULE
3dkd_GDP_A_1.pdb
 28 30 0 0 0
SMALL
GASTEIGER

@<TRIPOS>ATOM
      1  PB       -15.3490   50.5590   44.6210 P.3   143  GDP143      0.5373
      2  O1B      -14.7290   51.9050   44.3160 O.2   143  GDP143     -0.2221
      3  O2B      -14.3160   49.4610   44.5240 O.3   143  GDP143     -0.1143
      4  O3B      -15.9810   50.5320   45.9850 O.3   143  GDP143     -0.1143
      5  O3A      -16.4460   50.1500   43.4960 O.3   143  GDP143     -0.2261
      6  PA       -17.4810   51.0330   42.6070 P.3   143  GDP143      0.2231
      7  O1A      -17.1730   52.5080   42.6170 O.3   143  GDP143     -0.4370
      8  O2A      -17.4630   50.4400   41.2150 O.2   143  GDP143     -0.5169
      9  O5'      -18.8980   50.7180   43.2830 O.3   143  GDP143     -0.3111
     10  C5'      -19.3100   51.4050   44.4630 C.3   143  GDP143      0.1813
     11  C4'      -20.0010   50.4320   45.3950 C.3   143  GDP143      0.1799
     12  O4'      -21.1730   49.8950   44.7600 O.3   143  GDP143     -0.3326
     13  C3'      -19.1190   49.2330   45.7130 C.3   143  GDP143      0.2158
     14  O3'      -18.3110   49.4300   46.8790 O.3   143  GDP143     -0.2175
     15  C2'      -20.1020   48.1010   45.9010 C.3   143  GDP143      0.2310
     16  O2'      -20.4680   47.9640   47.2720 O.3   143  GDP143     -0.2158
     17  C1'      -21.3080   48.5090   45.0770 C.3   143  GDP143      0.2293
     18  N9       -21.2460   47.7110   43.8340 N.pl3 143  GDP143     -0.2354
     19  C8       -20.4960   47.9830   42.7480 C.3   143  GDP143      0.2246
     20  N7       -20.6610   47.0390   41.7880 N.2   143  GDP143     -0.2322
     21  C5       -21.5420   46.1450   42.2690 C.2   143  GDP143      0.2182
     22  C6       -22.1820   44.9060   41.7730 C.1   143  GDP143      0.2372
     23  O6       -21.9060   44.4680   40.6300 O.2   143  GDP143     -0.2069
     24  N1       -23.0410   44.2760   42.5900 N.2   143  GDP143     -0.2485
     25  C2       -23.3510   44.7340   43.8260 C.1   143  GDP143      0.2531
     26  N2       -24.2270   44.0500   44.5940 N.pl3 143  GDP143     -0.0226
     27  N3       -22.8090   45.8660   44.3450 N.2   143  GDP143     -0.3074
     28  C4       -21.9240   46.5910   43.6180 C.2   143  GDP143      0.2300
@<TRIPOS>BOND
     1    23    22    2
     2     8     6    2
     3    22    21    1
     4    22    24    2
     5    20    21    2
     6    20    19    1
     7    21    28    1
     8    24    25    2
     9     6     7    1
    10     6     9    1
    11     6     5    1
    12    19    18    1
    13     9    10    1
    14     5     1    1
    15    28    18    1
    16    28    27    2
    17    25    27    2
    18    25    26    1
    19    18    17    1
    20     2     1    2
    21    10    11    1
    22     3     1    1
    23     1     4    1
    24    12    17    1
    25    12    11    1
    26    17    15    1
    27    11    13    1
    28    13    15    1
    29    13    14    1
    30    15    16    1
