@<TRIPOS>MOLECULE
3dkf_SX8_A_1.pdb
 26 30 0 0 0
SMALL
GASTEIGER

@<TRIPOS>ATOM
      1  C7        16.1770   16.6930  139.1080 C.ar    1  SX81        0.0423
      2  C6        15.3490   15.8170  139.6870 C.ar    1  SX81        0.0242
      3  C1        11.5950   12.4340  141.7610 C.3     1  SX81        0.1538
      4  N1        12.7910   12.6200  140.9690 N.ar    1  SX81       -0.2473
      5  C5        15.4570   14.3870  139.2780 C.ar    1  SX81        0.1045
      6  C4        14.4450   12.0770  139.7750 C.ar    1  SX81        0.1232
      7  C3        14.5110   13.4900  139.8990 C.ar    1  SX81        0.0590
      8  C2        13.3970   13.7970  140.6670 C.ar    1  SX81        0.0982
      9  N2        13.4100   11.5550  140.4360 N.ar    1  SX81       -0.1675
     10  N7        16.2740   13.9050  138.3740 N.ar    1  SX81       -0.1619
     11  N6        17.0770   14.8770  137.8370 N.ar    1  SX81       -0.1859
     12  C8        17.0800   16.2320  138.1310 C.ar    1  SX81        0.1872
     13  C9        18.0420   14.7460  136.8870 C.ar    1  SX81        0.2171
     14  N4        18.5820   15.9090  136.6090 N.ar    1  SX81       -0.1200
     15  N3        17.9680   16.8550  137.3940 N.ar    1  SX81       -0.1264
     16  S1        18.4230   13.2250  136.1540 S.3     1  SX81       -0.0470
     17  C10       19.1740   12.3010  137.4730 C.ar    1  SX81        0.0324
     18  C18       18.5560   11.1600  138.0010 C.ar    1  SX81        0.0081
     19  C17       19.2000   10.4400  139.0340 C.ar    1  SX81        0.0182
     20  C13       20.4710   10.8540  139.5240 C.ar    1  SX81        0.0813
     21  C12       21.0540   11.9920  138.9760 C.ar    1  SX81        0.0196
     22  C11       20.4240   12.7060  137.9480 C.ar    1  SX81        0.0081
     23  C16       18.6280    9.2970  139.6090 C.ar    1  SX81        0.0031
     24  C15       19.3080    8.6210  140.6270 C.ar    1  SX81        0.0207
     25  C14       20.5410    9.0990  141.0410 C.ar    1  SX81        0.0988
     26  N5        21.1250   10.1970  140.5150 N.ar    1  SX81       -0.2438
@<TRIPOS>BOND
     1    16    13    1
     2    16    17    1
     3    14    13   ar
     4    14    15   ar
     5    13    11   ar
     6    15    12   ar
     7    17    22   ar
     8    17    18   ar
     9    11    12   ar
    10    11    10   ar
    11    22    21   ar
    12    18    19   ar
    13    12     1   ar
    14    10     5   ar
    15    21    20   ar
    16    19    20   ar
    17    19    23   ar
    18     1     2   ar
    19     5     2   ar
    20     5     7    1
    21    20    26   ar
    22    23    24   ar
    23     6     7   ar
    24     6     9   ar
    25     7     8   ar
    26     9     4   ar
    27    26    25   ar
    28    24    25   ar
    29     8     4   ar
    30     4     3    1
