@<TRIPOS>MOLECULE
3dkg_SX8_A_1.pdb
 26 30 0 0 0
SMALL
GASTEIGER

@<TRIPOS>ATOM
      1  C7        16.1870   16.5270   60.1180 C.ar    1  SX81        0.0423
      2  C6        15.3670   15.6630   60.7380 C.ar    1  SX81        0.0242
      3  C1        11.6460   12.1020   62.8620 C.3     1  SX81        0.1538
      4  N1        12.8660   12.3510   62.1220 N.ar    1  SX81       -0.2473
      5  C5        15.4430   14.2210   60.3410 C.ar    1  SX81        0.1045
      6  C4        14.6700   11.8950   61.1400 C.ar    1  SX81        0.1232
      7  C3        14.5330   13.3040   61.0180 C.ar    1  SX81        0.0590
      8  C2        13.3360   13.5550   61.6710 C.ar    1  SX81        0.0982
      9  N2        13.6660   11.3240   61.8060 N.ar    1  SX81       -0.1675
     10  N7        16.2420   13.7300   59.4300 N.ar    1  SX81       -0.1619
     11  N6        17.0620   14.6850   58.8530 N.ar    1  SX81       -0.1859
     12  C8        17.0690   16.0540   59.1200 C.ar    1  SX81        0.1872
     13  C9        18.0170   14.5340   57.8720 C.ar    1  SX81        0.2171
     14  N4        18.5470   15.7090   57.5700 N.ar    1  SX81       -0.1200
     15  N3        17.9340   16.6740   58.3420 N.ar    1  SX81       -0.1264
     16  S1        18.4010   13.0120   57.1090 S.3     1  SX81       -0.0470
     17  C10       19.3050   12.1180   58.3550 C.ar    1  SX81        0.0324
     18  C18       18.6930   11.0310   58.9870 C.ar    1  SX81        0.0081
     19  C17       19.4020   10.3110   59.9720 C.ar    1  SX81        0.0182
     20  C13       20.7340   10.6720   60.3160 C.ar    1  SX81        0.0813
     21  C12       21.3290   11.7570   59.6640 C.ar    1  SX81        0.0196
     22  C11       20.6250   12.4810   58.6820 C.ar    1  SX81        0.0081
     23  C16       18.8220    9.2190   60.6460 C.ar    1  SX81        0.0031
     24  C15       19.5430    8.5210   61.6170 C.ar    1  SX81        0.0207
     25  C14       20.8300    8.9410   61.8790 C.ar    1  SX81        0.0988
     26  N5        21.4290    9.9810   61.2490 N.ar    1  SX81       -0.2438
@<TRIPOS>BOND
     1    16    13    1
     2    16    17    1
     3    14    13   ar
     4    14    15   ar
     5    13    11   ar
     6    15    12   ar
     7    17    22   ar
     8    17    18   ar
     9    22    21   ar
    10    11    12   ar
    11    11    10   ar
    12    18    19   ar
    13    12     1   ar
    14    10     5   ar
    15    21    20   ar
    16    19    20   ar
    17    19    23   ar
    18     1     2   ar
    19    20    26   ar
    20     5     2   ar
    21     5     7    1
    22    23    24   ar
    23     7     6   ar
    24     7     8   ar
    25     6     9   ar
    26    26    25   ar
    27    24    25   ar
    28     8     4   ar
    29     9     4   ar
    30     4     3    1
