@<TRIPOS>MOLECULE
3dkj_PRP_A_1.pdb
 22 22 0 0 0
SMALL
GASTEIGER

@<TRIPOS>ATOM
      1  C1        10.8970   18.9080   10.1140 C.3   501  PRP501      0.2742
      2  C2        10.4530   18.6390    8.6980 C.3   501  PRP501      0.2408
      3  C3         9.1120   17.9020    8.9310 C.3   501  PRP501      0.2167
      4  C4         9.3120   17.1420   10.2580 C.3   501  PRP501      0.1808
      5  C5         9.3810   15.5860   10.3320 C.3   501  PRP501      0.1859
      6  O1        10.1880   20.0700   10.6020 O.3   501  PRP501     -0.2857
      7  O2        10.5060   19.8810    7.9210 O.3   501  PRP501     -0.2149
      8  O3         8.0600   18.8880    9.0900 O.3   501  PRP501     -0.2175
      9  O4        10.5330   17.7010   10.7860 O.3   501  PRP501     -0.3255
     10  O5         9.6870   15.1350   11.6990 O.3   501  PRP501     -0.2675
     11  P          8.7310   14.4310   12.8590 P.3   501  PRP501      0.5327
     12  O1P        9.2410   13.0410   12.9170 O.3   501  PRP501     -0.1145
     13  O2P        8.9340   14.9090   14.3040 O.3   501  PRP501     -0.1145
     14  O3P        7.3230   14.5250   12.3050 O.2   501  PRP501     -0.2224
     15  PA        10.5360   20.9280   11.9670 P.3   501  PRP501      0.2249
     16  O1A       11.6860   20.2680   12.6250 O.3   501  PRP501     -0.4370
     17  O2A       10.5910   22.3590   11.5240 O.2   501  PRP501     -0.5169
     18  O3A        9.1860   20.6770   12.7980 O.3   501  PRP501     -0.2260
     19  PB         7.7780   21.3520   12.3730 P.3   501  PRP501      0.5373
     20  O1B        7.9360   22.8150   12.6640 O.3   501  PRP501     -0.1143
     21  O2B        6.7140   20.6570   13.2200 O.3   501  PRP501     -0.1143
     22  O3B        7.5220   21.0350   10.9060 O.2   501  PRP501     -0.2221
@<TRIPOS>BOND
     1     7     2    1
     2     2     3    1
     3     2     1    1
     4     3     8    1
     5     3     4    1
     6     1     6    1
     7     1     9    1
     8     4     5    1
     9     4     9    1
    10     5    10    1
    11     6    15    1
    12    22    19    2
    13    17    15    2
    14    10    11    1
    15    15    16    1
    16    15    18    1
    17    14    11    2
    18    19    20    1
    19    19    18    1
    20    19    21    1
    21    11    12    1
    22    11    13    1
