@<TRIPOS>MOLECULE
3dkk_FUL_A_1.pdb
 10 10 0 0 0
SMALL
GASTEIGER

@<TRIPOS>ATOM
      1  C1         6.4970   16.3700   32.1320 C.3   534  FUL534      0.1776
      2  C2         6.9260   17.1490   30.9060 C.3   534  FUL534      0.2141
      3  O2         7.0670   18.5190   31.1870 O.3   534  FUL534     -0.2176
      4  C3         8.2390   16.5010   30.4850 C.3   534  FUL534      0.2172
      5  O3         8.8610   17.1490   29.3690 O.3   534  FUL534     -0.2175
      6  C4         8.0140   14.9880   30.2690 C.3   534  FUL534      0.2116
      7  O4         7.6190   14.6870   28.9340 O.3   534  FUL534     -0.2177
      8  C5         7.0770   14.3340   31.3140 C.3   534  FUL534      0.1483
      9  C6         6.5720   12.9480   30.9290 C.3   534  FUL534      0.0349
     10  O5         5.9840   15.1670   31.6270 O.3   534  FUL534     -0.3508
@<TRIPOS>BOND
     1     7     6    1
     2     5     4    1
     3     6     4    1
     4     6     8    1
     5     4     2    1
     6     2     3    1
     7     2     1    1
     8     9     8    1
     9     8    10    1
    10    10     1    1
