@<TRIPOS>MOLECULE
3dkl_PRP_B_1.pdb
 22 22 0 0 0
SMALL
GASTEIGER

@<TRIPOS>ATOM
      1  C1        11.2870   18.9150    9.9130 C.3   503  PRP503      0.2742
      2  C2        10.8710   18.6210    8.4830 C.3   503  PRP503      0.2408
      3  C3         9.5180   17.9350    8.6470 C.3   503  PRP503      0.2167
      4  C4         9.6520   17.2390    9.9990 C.3   503  PRP503      0.1808
      5  C5         9.9100   15.7220    9.8780 C.3   503  PRP503      0.1859
      6  O1        10.6230   20.1310   10.3380 O.3   503  PRP503     -0.2857
      7  O2        10.8580   19.8400    7.7160 O.3   503  PRP503     -0.2149
      8  O3         8.4180   18.8590    8.7680 O.3   503  PRP503     -0.2175
      9  O4        10.8340   17.7620   10.6300 O.3   503  PRP503     -0.3255
     10  O5        10.1100   15.2540   11.2250 O.3   503  PRP503     -0.2675
     11  P          8.8300   14.6780   12.0390 P.3   503  PRP503      0.5327
     12  O1P        9.5420   14.2680   13.3120 O.3   503  PRP503     -0.1145
     13  O2P        7.8480   15.8240   12.1610 O.3   503  PRP503     -0.1145
     14  O3P        8.3770   13.5400   11.2060 O.2   503  PRP503     -0.2224
     15  PA        10.2420   20.5040   11.8730 P.3   503  PRP503      0.2249
     16  O1A        9.1530   19.6120   12.3990 O.2   503  PRP503     -0.5169
     17  O2A       11.5620   20.5460   12.5450 O.3   503  PRP503     -0.4370
     18  O3A        9.5700   21.9730   11.7640 O.3   503  PRP503     -0.2260
     19  PB         8.0840   22.3790   11.2590 P.3   503  PRP503      0.5373
     20  O1B        8.0490   21.9130    9.8480 O.2   503  PRP503     -0.2221
     21  O2B        8.0190   23.8800   11.3940 O.3   503  PRP503     -0.1143
     22  O3B        7.1610   21.6850   12.2380 O.3   503  PRP503     -0.1143
@<TRIPOS>BOND
     1     7     2    1
     2     2     3    1
     3     2     1    1
     4     3     8    1
     5     3     4    1
     6    20    19    2
     7     5     4    1
     8     5    10    1
     9     1     6    1
    10     1     9    1
    11     4     9    1
    12     6    15    1
    13    14    11    2
    14    10    11    1
    15    19    21    1
    16    19    18    1
    17    19    22    1
    18    18    15    1
    19    15    16    2
    20    15    17    1
    21    11    13    1
    22    11    12    1
