@<TRIPOS>MOLECULE
3dko_IHZ_A_1.pdb
 30 32 0 0 0
SMALL
GASTEIGER

@<TRIPOS>ATOM
      1  FAE      -15.9510   11.2950   -5.1960 F     1001  IHZ1001    -0.1659
      2  CBD      -16.3060   10.1290   -4.6470 C.3   1001  IHZ1001     0.4186
      3  FAF      -16.0390   10.1160   -3.3310 F     1001  IHZ1001    -0.1659
      4  FAG      -15.5910    9.1590   -5.2190 F     1001  IHZ1001    -0.1659
      5  CBB      -17.8040    9.8570   -4.9210 C.ar  1001  IHZ1001     0.0727
      6  CAP      -18.2820    9.9430   -6.2300 C.ar  1001  IHZ1001     0.0205
      7  CAK      -18.6750    9.5010   -3.8810 C.ar  1001  IHZ1001     0.0039
      8  CAH      -20.0140    9.2470   -4.1630 C.ar  1001  IHZ1001     0.0013
      9  CAI      -20.4770    9.3510   -5.4790 C.ar  1001  IHZ1001     0.0166
     10  CAX      -19.6270    9.6990   -6.5300 C.ar  1001  IHZ1001     0.0736
     11  NAS      -20.1320    9.7850   -7.7900 N.am  1001  IHZ1001    -0.1755
     12  CAV      -19.4570    9.6040   -8.9480 C.2   1001  IHZ1001     0.2690
     13  OAD      -18.2530    9.3590   -9.0340 O.2   1001  IHZ1001    -0.2680
     14  CAZ      -20.2660    9.7540  -10.2500 C.ar  1001  IHZ1001     0.0567
     15  CAQ      -19.6350   10.2930  -11.3760 C.ar  1001  IHZ1001     0.0208
     16  CAL      -21.6020    9.3580  -10.3370 C.ar  1001  IHZ1001     0.0043
     17  CAJ      -22.2690    9.5230  -11.5520 C.ar  1001  IHZ1001    -0.0028
     18  CAW      -21.6290   10.0680  -12.6750 C.ar  1001  IHZ1001    -0.0066
     19  CAA      -22.4420   10.2240  -13.9650 C.3   1001  IHZ1001     0.0324
     20  CBC      -20.2840   10.4490  -12.6080 C.ar  1001  IHZ1001     0.0667
     21  NAT      -19.5920   11.0090  -13.6400 N.pl3 1001  IHZ1001    -0.2112
     22  CAY      -19.3240   10.5320  -14.8820 C.ar  1001  IHZ1001     0.0897
     23  CAO      -19.8650    9.3380  -15.3760 C.ar  1001  IHZ1001     0.0243
     24  CAM      -18.4650   11.2690  -15.7250 C.ar  1001  IHZ1001     0.1153
     25  NAR      -18.1760   10.8530  -16.9590 N.ar  1001  IHZ1001    -0.2408
     26  CAN      -18.6830    9.7150  -17.4430 C.ar  1001  IHZ1001     0.1036
     27  CBA      -19.5510    8.9200  -16.6740 C.ar  1001  IHZ1001     0.0771
     28  CAU      -20.1540    7.5920  -17.1990 C.2   1001  IHZ1001     0.2857
     29  OAC      -21.0380    7.0160  -16.5620 O.2   1001  IHZ1001    -0.2666
     30  NAB      -19.6630    7.1230  -18.3510 N.am  1001  IHZ1001    -0.0837
@<TRIPOS>BOND
     1    30    28   am
     2    26    25   ar
     3    26    27   ar
     4    28    27    1
     5    28    29    2
     6    25    24   ar
     7    27    23   ar
     8    24    22   ar
     9    23    22   ar
    10    22    21    1
    11    19    18    1
    12    21    20    1
    13    18    20   ar
    14    18    17   ar
    15    20    15   ar
    16    17    16   ar
    17    15    14   ar
    18    16    14   ar
    19    14    12    1
    20    13    12    2
    21    12    11   am
    22    11    10    1
    23    10     6   ar
    24    10     9   ar
    25     6     5   ar
    26     9     8   ar
    27     4     2    1
    28     1     2    1
    29     5     2    1
    30     5     7   ar
    31     2     3    1
    32     8     7   ar
