@<TRIPOS>MOLECULE
3dkp_ADP_A_1.pdb
 27 29 0 0 0
SMALL
GASTEIGER

@<TRIPOS>ATOM
      1  PB        10.6810   -7.8790   19.1660 P.3   402  ADP402      0.5373
      2  O1B       11.1530   -6.5580   19.6370 O.3   402  ADP402     -0.1143
      3  O2B        9.2270   -7.8070   18.5410 O.2   402  ADP402     -0.2221
      4  O3B       10.7020   -9.0580   20.2810 O.3   402  ADP402     -0.1143
      5  PA        13.0530   -8.0610   17.5970 P.3   402  ADP402      0.2231
      6  O1A       13.1800   -6.6440   17.1380 O.2   402  ADP402     -0.5169
      7  O2A       13.9530   -8.3170   18.8810 O.3   402  ADP402     -0.4370
      8  O3A       11.5410   -8.5230   17.9470 O.3   402  ADP402     -0.2261
      9  O5'       13.4500   -9.0650   16.4450 O.3   402  ADP402     -0.3111
     10  C5'       13.5720  -10.4650   16.7910 C.3   402  ADP402      0.1813
     11  C4'       14.4050  -11.2410   15.7520 C.3   402  ADP402      0.1821
     12  O4'       13.7610  -11.0910   14.4690 O.3   402  ADP402     -0.3135
     13  C3'       15.7650  -10.5370   15.6670 C.3   402  ADP402      0.2184
     14  O3'       16.8000  -11.5380   15.6460 O.3   402  ADP402     -0.2174
     15  C2'       15.7010   -9.7920   14.3420 C.3   402  ADP402      0.2570
     16  O2'       16.9670   -9.8590   13.7260 O.3   402  ADP402     -0.2130
     17  C1'       14.7760  -10.6480   13.5310 C.3   402  ADP402      0.3186
     18  N9        14.0930   -9.8620   12.4550 N.pl3 402  ADP402     -0.1439
     19  C8        13.6100   -8.6090   12.5020 C.3   402  ADP402      0.3377
     20  N7        13.0680   -8.3090   11.3240 N.2   402  ADP402     -0.2095
     21  C5        13.1970   -9.4000   10.5430 C.2   402  ADP402      0.2526
     22  C6        12.8390   -9.7040    9.2390 C.2   402  ADP402      0.4393
     23  N6        12.1840   -8.8120    8.4540 N.pl3 402  ADP402      0.2180
     24  N1        13.1390  -10.9280    8.7780 N.2   402  ADP402      0.0021
     25  C2        13.7620  -11.8440    9.5100 C.3   402  ADP402      0.5254
     26  N3        14.1260  -11.5740   10.7480 N.2   402  ADP402     -0.0055
     27  C4        13.8460  -10.3720   11.2710 C.2   402  ADP402      0.3518
@<TRIPOS>BOND
     1    23    22    1
     2    24    22    2
     3    24    25    1
     4    22    21    1
     5    25    26    1
     6    21    27    1
     7    21    20    2
     8    26    27    2
     9    27    18    1
    10    20    19    1
    11    18    19    1
    12    18    17    1
    13    17    15    1
    14    17    12    1
    15    16    15    1
    16    15    13    1
    17    12    11    1
    18    14    13    1
    19    13    11    1
    20    11    10    1
    21     9    10    1
    22     9     5    1
    23     6     5    2
    24     5     8    1
    25     5     7    1
    26     8     1    1
    27     3     1    2
    28     1     2    1
    29     1     4    1
