@<TRIPOS>MOLECULE
3dl5_UMP_A_1.pdb
 20 21 0 0 0
SMALL
GASTEIGER

@<TRIPOS>ATOM
      1  N1       -87.6540  116.2940  128.8790 N.am  603  UMP603     -0.2018
      2  C2       -88.4100  115.1950  128.4490 C.1   603  UMP603      0.2802
      3  N3       -89.1850  115.2810  127.2860 N.2   603  UMP603     -0.2497
      4  C4       -89.0600  116.3760  126.4230 C.1   603  UMP603      0.1941
      5  C5       -88.0290  117.4650  126.7170 C.3   603  UMP603      0.1579
      6  C6       -87.7800  117.6120  128.2180 C.3   603  UMP603      0.1249
      7  O2       -88.4790  114.1940  129.1600 O.2   603  UMP603     -0.1922
      8  O4       -89.7780  116.4660  125.4280 O.2   603  UMP603     -0.2133
      9  C1'      -86.9100  116.2150  130.1560 C.3   603  UMP603      0.2048
     10  C2'      -85.7790  115.1890  130.1190 C.3   603  UMP603      0.0871
     11  C3'      -85.0480  115.6540  131.3750 C.3   603  UMP603      0.1857
     12  C4'      -85.0260  117.1630  131.1180 C.3   603  UMP603      0.1774
     13  O3'      -85.8310  115.3630  132.5360 O.3   603  UMP603     -0.2203
     14  O4'      -86.2290  117.4600  130.3860 O.3   603  UMP603     -0.3342
     15  C5'      -83.8290  117.4840  130.2210 C.3   603  UMP603      0.1858
     16  O5'      -82.6210  117.2460  130.9450 O.3   603  UMP603     -0.2675
     17  P        -81.2310  117.0020  130.1750 P.3   603  UMP603      0.5327
     18  OP1      -80.9790  117.9550  129.0710 O.2   603  UMP603     -0.2224
     19  OP2      -80.0940  117.0500  131.3130 O.3   603  UMP603     -0.1145
     20  OP3      -81.2870  115.4810  129.6550 O.3   603  UMP603     -0.1145
@<TRIPOS>BOND
     1     8     4    2
     2     4     5    1
     3     4     3    2
     4     5     6    1
     5     3     2    2
     6     6     1    1
     7     2     1   am
     8     2     7    2
     9     1     9    1
    10    18    17    2
    11    20    17    1
    12    10     9    1
    13    10    11    1
    14     9    14    1
    15    17    16    1
    16    17    19    1
    17    15    16    1
    18    15    12    1
    19    14    12    1
    20    12    11    1
    21    11    13    1
