@<TRIPOS>MOLECULE
3dl5_DHF_A_1.pdb
 32 34 0 0 0
SMALL
GASTEIGER

@<TRIPOS>ATOM
      1  N1      -123.2090   91.8590  125.2940 N.2   605  DHF605     -0.2672
      2  C2      -122.4860   92.7070  124.5550 C.1   605  DHF605      0.2609
      3  NA2     -121.1600   92.7540  124.7230 N.pl3 605  DHF605     -0.0220
      4  N3      -123.0610   93.5110  123.6520 N.2   605  DHF605     -0.2466
      5  C4      -124.3840   93.4800  123.4720 C.1   605  DHF605      0.2569
      6  O4      -124.9280   94.2140  122.6380 O.2   605  DHF605     -0.2052
      7  C4A     -125.1500   92.6190  124.2070 C.2   605  DHF605      0.2988
      8  N5      -126.4730   92.6040  123.9980 N.2   605  DHF605     -0.3839
      9  C6      -127.2660   91.7780  124.6910 C.2   605  DHF605      0.1356
     10  C7      -126.6920   90.8480  125.7280 C.3   605  DHF605      0.1931
     11  N8      -125.2440   90.9470  125.8710 N.2   605  DHF605     -0.1992
     12  C8A     -124.5350   91.8010  125.1330 C.1   605  DHF605      0.1401
     13  C9      -128.7460   91.7670  124.4390 C.3   605  DHF605      0.1683
     14  N10     -128.9830   92.2690  123.1060 N.pl3 605  DHF605     -0.2303
     15  C11     -128.0490   90.2550  119.6170 C.ar  605  DHF605      0.0551
     16  C12     -128.6140   91.5090  119.5840 C.ar  605  DHF605      0.0059
     17  C13     -128.9260   92.1640  120.7630 C.ar  605  DHF605      0.0162
     18  C14     -128.6600   91.5870  121.9880 C.ar  605  DHF605      0.0658
     19  C15     -128.0800   90.3380  122.0290 C.ar  605  DHF605      0.0162
     20  C16     -127.7710   89.6830  120.8450 C.ar  605  DHF605      0.0059
     21  C       -127.6800   89.5580  118.3470 C.2   605  DHF605      0.2652
     22  O       -128.2990   89.7520  117.3300 O.2   605  DHF605     -0.2684
     23  N       -126.6140   88.7770  118.4180 N.am  605  DHF605     -0.1918
     24  CA      -125.9800   87.9980  117.3710 C.3   605  DHF605      0.1986
     25  CB      -126.2910   88.4990  115.9820 C.3   605  DHF605      0.0451
     26  CG      -125.5670   89.8140  115.7680 C.3   605  DHF605      0.1164
     27  CD      -124.4160   89.6750  114.8220 C.2   605  DHF605      0.3649
     28  OE1     -123.9500   88.5540  114.5960 O.co2 605  DHF605     -0.2457
     29  OE2     -123.9720   90.7060  114.2990 O.co2 605  DHF605     -0.2457
     30  CT      -125.9350   86.5210  117.5180 C.2   605  DHF605      0.3842
     31  O1      -126.2190   85.8180  116.5360 O.co2 605  DHF605     -0.2437
     32  O2      -125.5790   86.0550  118.6110 O.co2 605  DHF605     -0.2437
@<TRIPOS>BOND
     1    29    27   ar
     2    28    27   ar
     3    27    26    1
     4    26    25    1
     5    25    24    1
     6    31    30   ar
     7    22    21    2
     8    24    30    1
     9    24    23    1
    10    30    32   ar
    11    21    23   am
    12    21    15    1
    13    16    15   ar
    14    16    17   ar
    15    15    20   ar
    16    17    18   ar
    17    20    19   ar
    18    18    19   ar
    19    18    14    1
    20     6     5    2
    21    14    13    1
    22     5     4    2
    23     5     7    1
    24     4     2    2
    25     8     7    2
    26     8     9    2
    27     7    12    1
    28    13     9    1
    29     2     3    1
    30     2     1    2
    31     9    10    1
    32    12     1    2
    33    12    11    2
    34    10    11    1
