@<TRIPOS>MOLECULE
3dl5_NDP_A_1.pdb
 48 52 0 0 0
SMALL
GASTEIGER

@<TRIPOS>ATOM
      1  PA      -134.3620   92.2460  132.3440 P.3   606  NDP606      0.2189
      2  O1A     -133.6370   92.0420  133.6170 O.3   606  NDP606     -0.4371
      3  O2A     -133.7060   91.8590  131.0740 O.2   606  NDP606     -0.5170
      4  O5B     -135.7710   91.4850  132.4330 O.3   606  NDP606     -0.3112
      5  C5B     -136.6900   91.8460  133.4650 C.3   606  NDP606      0.1813
      6  C4B     -137.7530   90.7520  133.5720 C.3   606  NDP606      0.1820
      7  O4B     -137.1340   89.4610  133.7090 O.3   606  NDP606     -0.3136
      8  C3B     -138.7110   90.8790  134.7570 C.3   606  NDP606      0.2157
      9  O3B     -139.7660   91.7940  134.4480 O.3   606  NDP606     -0.2175
     10  C2B     -139.2630   89.4550  134.7510 C.3   606  NDP606      0.2314
     11  O2B     -140.1600   89.2360  133.6600 O.3   606  NDP606     -0.2630
     12  C1B     -137.9740   88.6570  134.5570 C.3   606  NDP606      0.3158
     13  N9A     -137.3360   88.5050  135.8830 N.pl3 606  NDP606     -0.1439
     14  C8A     -136.3130   89.1970  136.3820 C.3   606  NDP606      0.3377
     15  N7A     -136.0610   88.7860  137.6250 N.2   606  NDP606     -0.2095
     16  C5A     -136.9270   87.8230  137.9200 C.2   606  NDP606      0.2526
     17  C6A     -137.1590   87.0230  139.0340 C.2   606  NDP606      0.4393
     18  N6A     -136.4010   87.1410  140.1210 N.pl3 606  NDP606      0.2180
     19  N1A     -138.1480   86.1180  138.9850 N.2   606  NDP606      0.0021
     20  C2A     -138.8970   85.9720  137.9070 C.3   606  NDP606      0.5254
     21  N3A     -138.7050   86.7140  136.8300 N.2   606  NDP606     -0.0055
     22  C4A     -137.7380   87.6400  136.8090 C.2   606  NDP606      0.3518
     23  O3      -134.8430   93.7800  132.2250 O.3   606  NDP606     -0.2703
     24  PN      -133.9110   95.0250  132.6370 P.3   606  NDP606      0.2189
     25  O1N     -133.1740   94.7190  133.8840 O.3   606  NDP606     -0.4371
     26  O2N     -134.7230   96.2620  132.6060 O.2   606  NDP606     -0.5170
     27  O5D     -132.8610   95.0680  131.4150 O.3   606  NDP606     -0.3112
     28  C5D     -133.2930   95.4210  130.0970 C.3   606  NDP606      0.1813
     29  C4D     -132.4830   96.6060  129.5660 C.3   606  NDP606      0.1799
     30  O4D     -131.1130   96.1600  129.5630 O.3   606  NDP606     -0.3327
     31  C3D     -132.8380   96.9440  128.1160 C.3   606  NDP606      0.2158
     32  O3D     -132.7370   98.3480  127.8670 O.3   606  NDP606     -0.2175
     33  C2D     -131.7790   96.1670  127.3350 C.3   606  NDP606      0.2309
     34  O2D     -131.5210   96.7810  126.0710 O.3   606  NDP606     -0.2158
     35  C1D     -130.5660   96.3450  128.2470 C.3   606  NDP606      0.2263
     36  N1N     -129.5170   95.3320  127.9890 N.pl3 606  NDP606     -0.2787
     37  C2N     -128.1860   95.6920  127.7380 C.3   606  NDP606      0.1244
     38  C3N     -127.2210   94.7100  127.5460 C.2   606  NDP606      0.0544
     39  C7N     -125.7650   95.1040  127.2940 C.2   606  NDP606      0.2818
     40  O7N     -124.8700   94.2610  127.3000 O.2   606  NDP606     -0.2670
     41  N7N     -125.5590   96.4020  127.0920 N.am  606  NDP606     -0.0839
     42  C4N     -127.5720   93.3660  127.6000 C.2   606  NDP606      0.0033
     43  C5N     -128.8910   93.0010  127.8460 C.2   606  NDP606      0.0157
     44  C6N     -129.8610   93.9770  128.0400 C.2   606  NDP606      0.0633
     45  P2B     -141.7300   89.0760  133.9600 P.3   606  NDP606      0.5328
     46  O1X     -142.3810   88.1160  133.0440 O.2   606  NDP606     -0.2224
     47  O2X     -141.8540   88.6590  135.5060 O.3   606  NDP606     -0.1145
     48  O3X     -142.3270   90.5650  133.8460 O.3   606  NDP606     -0.1145
@<TRIPOS>BOND
     1    34    33    1
     2    41    39   am
     3    39    40    2
     4    39    38    1
     5    33    31    1
     6    33    35    1
     7    38    42    2
     8    38    37    1
     9    42    43    1
    10    37    36    1
    11    43    44    2
    12    32    31    1
    13    36    44    1
    14    36    35    1
    15    31    29    1
    16    35    30    1
    17    30    29    1
    18    29    28    1
    19    28    27    1
    20     3     1    2
    21    27    24    1
    22    23     1    1
    23    23    24    1
    24     1     4    1
    25     1     2    1
    26     4     5    1
    27    26    24    2
    28    24    25    1
    29    46    45    2
    30     5     6    1
    31     6     7    1
    32     6     8    1
    33    11    45    1
    34    11    10    1
    35     7    12    1
    36    48    45    1
    37    45    47    1
    38     9     8    1
    39    12    10    1
    40    12    13    1
    41    10     8    1
    42    13    14    1
    43    13    22    1
    44    14    15    1
    45    22    21    2
    46    22    16    1
    47    21    20    1
    48    15    16    2
    49    20    19    1
    50    16    17    1
    51    19    17    2
    52    17    18    1
