@<TRIPOS>MOLECULE
3dl6_NDP_A_1.pdb
 48 52 0 0 0
SMALL
GASTEIGER

@<TRIPOS>ATOM
      1  PA      -135.3830   92.3280  132.9050 P.3   606  NDP606      0.2189
      2  O1A     -135.1750   92.6400  131.4430 O.2   606  NDP606     -0.5170
      3  O2A     -134.6090   91.2050  133.5540 O.3   606  NDP606     -0.4371
      4  O5B     -136.9530   92.0610  133.1440 O.3   606  NDP606     -0.3112
      5  C5B     -137.3880   91.1680  134.1670 C.3   606  NDP606      0.1813
      6  C4B     -138.7810   90.6490  133.8300 C.3   606  NDP606      0.1820
      7  O4B     -138.9160   89.3070  134.3050 O.3   606  NDP606     -0.3136
      8  C3B     -139.8540   91.4920  134.5050 C.3   606  NDP606      0.2157
      9  O3B     -140.7460   92.0140  133.5140 O.3   606  NDP606     -0.2175
     10  C2B     -140.6130   90.5540  135.4270 C.3   606  NDP606      0.2314
     11  O2B     -141.9700   90.4660  134.9980 O.3   606  NDP606     -0.2630
     12  C1B     -139.9470   89.1910  135.2900 C.3   606  NDP606      0.3158
     13  N9A     -139.3440   88.8050  136.5910 N.pl3 606  NDP606     -0.1439
     14  C8A     -138.3250   89.4300  137.1980 C.3   606  NDP606      0.3377
     15  N7A     -138.0490   88.7980  138.3610 N.2   606  NDP606     -0.2095
     16  C5A     -138.9090   87.7660  138.4770 C.2   606  NDP606      0.2526
     17  C6A     -139.0990   86.7870  139.4410 C.2   606  NDP606      0.4393
     18  N6A     -138.3170   86.7530  140.5470 N.pl3 606  NDP606      0.2180
     19  N1A     -140.0720   85.8670  139.2640 N.2   606  NDP606      0.0021
     20  C2A     -140.8480   85.8970  138.1720 C.3   606  NDP606      0.5254
     21  N3A     -140.6850   86.8330  137.2260 N.2   606  NDP606     -0.0055
     22  C4A     -139.7230   87.7770  137.3580 C.2   606  NDP606      0.3518
     23  O3      -135.1220   93.6730  133.7500 O.3   606  NDP606     -0.2703
     24  PN      -135.7200   95.0830  133.2520 P.3   606  NDP606      0.2189
     25  O1N     -135.1860   96.1680  134.1550 O.3   606  NDP606     -0.4371
     26  O2N     -137.2100   94.9240  133.0650 O.2   606  NDP606     -0.5170
     27  O5D     -135.0460   95.2580  131.8010 O.3   606  NDP606     -0.3112
     28  C5D     -133.6950   95.6980  131.6780 C.3   606  NDP606      0.1813
     29  C4D     -133.6080   96.7800  130.6090 C.3   606  NDP606      0.1799
     30  O4D     -132.2370   97.0030  130.2670 O.3   606  NDP606     -0.3327
     31  C3D     -134.3420   96.3590  129.3430 C.3   606  NDP606      0.2158
     32  O3D     -135.3740   97.3080  129.0510 O.3   606  NDP606     -0.2175
     33  C2D     -133.3110   96.3760  128.2290 C.3   606  NDP606      0.2309
     34  O2D     -133.6830   97.3520  127.2500 O.3   606  NDP606     -0.2158
     35  C1D     -131.9930   96.7810  128.8750 C.3   606  NDP606      0.2263
     36  N1N     -131.0180   95.7000  128.7150 N.pl3 606  NDP606     -0.2787
     37  C2N     -129.7190   95.9960  128.5820 C.3   606  NDP606      0.1244
     38  C3N     -128.7740   94.9890  128.4290 C.2   606  NDP606      0.0544
     39  C7N     -127.3210   95.3330  128.2810 C.2   606  NDP606      0.2818
     40  O7N     -126.4770   94.5220  128.6250 O.2   606  NDP606     -0.2670
     41  N7N     -126.9910   96.5190  127.7770 N.am  606  NDP606     -0.0839
     42  C4N     -129.1830   93.6630  128.4150 C.2   606  NDP606      0.0033
     43  C5N     -130.5350   93.3820  128.5550 C.2   606  NDP606      0.0157
     44  C6N     -131.4380   94.4280  128.7040 C.2   606  NDP606      0.0633
     45  P2B     -142.9090   89.2560  135.4940 P.3   606  NDP606      0.5328
     46  O1X     -143.8030   88.9800  134.3090 O.2   606  NDP606     -0.2224
     47  O2X     -141.9360   88.1460  135.8120 O.3   606  NDP606     -0.1145
     48  O3X     -143.6250   89.8200  136.6980 O.3   606  NDP606     -0.1145
@<TRIPOS>BOND
     1    34    33    1
     2    41    39   am
     3    33    35    1
     4    33    31    1
     5    39    38    1
     6    39    40    2
     7    42    38    2
     8    42    43    1
     9    38    37    1
    10    43    44    2
    11    37    36    1
    12    44    36    1
    13    36    35    1
    14    35    30    1
    15    32    31    1
    16    31    29    1
    17    30    29    1
    18    29    28    1
    19     2     1    2
    20    28    27    1
    21    27    24    1
    22     1     4    1
    23     1     3    1
    24     1    23    1
    25    26    24    2
    26     4     5    1
    27    24    23    1
    28    24    25    1
    29     9     8    1
    30     6     5    1
    31     6     7    1
    32     6     8    1
    33     7    12    1
    34    46    45    2
    35     8    10    1
    36    11    10    1
    37    11    45    1
    38    12    10    1
    39    12    13    1
    40    45    47    1
    41    45    48    1
    42    13    14    1
    43    13    22    1
    44    14    15    1
    45    21    22    2
    46    21    20    1
    47    22    16    1
    48    20    19    1
    49    15    16    2
    50    16    17    1
    51    19    17    2
    52    17    18    1
