@<TRIPOS>MOLECULE
3dl6_DHF_A_1.pdb
 32 34 0 0 0
SMALL
GASTEIGER

@<TRIPOS>ATOM
      1  N1      -125.0800   91.7270  126.3140 N.2   605  DHF605     -0.2672
      2  C2      -124.0860   92.4510  125.7530 C.1   605  DHF605      0.2609
      3  NA2     -122.8080   92.2700  126.1670 N.pl3 605  DHF605     -0.0220
      4  N3      -124.3520   93.3530  124.7830 N.2   605  DHF605     -0.2466
      5  C4      -125.6190   93.5460  124.3580 C.1   605  DHF605      0.2569
      6  O4      -125.8600   94.3810  123.4600 O.2   605  DHF605     -0.2052
      7  C4A     -126.6530   92.8110  124.9230 C.2   605  DHF605      0.2988
      8  N5      -127.9200   93.0010  124.5010 N.2   605  DHF605     -0.3839
      9  C6      -128.9510   92.3070  125.0260 C.2   605  DHF605      0.1356
     10  C7      -128.7410   91.2790  126.1140 C.3   605  DHF605      0.1931
     11  N8      -127.3340   91.1530  126.4950 N.2   605  DHF605     -0.1992
     12  C8A     -126.3600   91.8890  125.9180 C.1   605  DHF605      0.1401
     13  C9      -130.3500   92.5630  124.5130 C.3   605  DHF605      0.1683
     14  N10     -130.9050   91.3270  123.9820 N.pl3 605  DHF605     -0.2303
     15  C11     -129.7190   89.9540  120.2670 C.ar  605  DHF605      0.0551
     16  C12     -130.6480   89.2350  121.0090 C.ar  605  DHF605      0.0059
     17  C13     -131.0470   89.6960  122.2580 C.ar  605  DHF605      0.0162
     18  C14     -130.5160   90.8770  122.7650 C.ar  605  DHF605      0.0658
     19  C15     -129.5870   91.5960  122.0220 C.ar  605  DHF605      0.0162
     20  C16     -129.1880   91.1340  120.7730 C.ar  605  DHF605      0.0059
     21  C       -129.2880   89.4560  118.9190 C.2   605  DHF605      0.2652
     22  O       -129.6830   90.0280  117.9160 O.2   605  DHF605     -0.2684
     23  N       -128.4850   88.3980  118.8530 N.am  605  DHF605     -0.1918
     24  CA      -128.0380   87.8750  117.5700 C.3   605  DHF605      0.1986
     25  CB      -126.8790   88.7760  117.1590 C.3   605  DHF605      0.0451
     26  CG      -127.1770   89.4820  115.8420 C.3   605  DHF605      0.1164
     27  CD      -126.0020   90.3500  115.4590 C.2   605  DHF605      0.3649
     28  OE1     -124.9480   89.7940  115.0820 O.co2 605  DHF605     -0.2457
     29  OE2     -126.1280   91.5910  115.5340 O.co2 605  DHF605     -0.2457
     30  CT      -127.5550   86.4600  117.6890 C.2   605  DHF605      0.3842
     31  O1      -127.3430   85.8130  116.6410 O.co2 605  DHF605     -0.2437
     32  O2      -127.3820   85.9830  118.8310 O.co2 605  DHF605     -0.2437
@<TRIPOS>BOND
     1    28    27   ar
     2    27    29   ar
     3    27    26    1
     4    26    25    1
     5    31    30   ar
     6    25    24    1
     7    24    30    1
     8    24    23    1
     9    30    32   ar
    10    22    21    2
    11    23    21   am
    12    21    15    1
    13    15    20   ar
    14    15    16   ar
    15    20    19   ar
    16    16    17   ar
    17    19    18   ar
    18    17    18   ar
    19    18    14    1
    20     6     5    2
    21    14    13    1
    22     5     4    2
    23     5     7    1
    24     8     7    2
    25     8     9    2
    26    13     9    1
    27     4     2    2
    28     7    12    1
    29     9    10    1
    30     2     3    1
    31     2     1    2
    32    12     1    2
    33    12    11    2
    34    10    11    1
