@<TRIPOS>MOLECULE
3dl6_UMP_A_1.pdb
 20 21 0 0 0
SMALL
GASTEIGER

@<TRIPOS>ATOM
      1  N1       -89.2140  115.9960  129.7960 N.am  603  UMP603     -0.2018
      2  C2       -89.9520  114.8690  129.4150 C.1   603  UMP603      0.2802
      3  N3       -90.5270  114.7750  128.1420 N.2   603  UMP603     -0.2497
      4  C4       -90.3810  115.8060  127.2060 C.1   603  UMP603      0.1941
      5  C5       -89.5700  117.0580  127.5490 C.3   603  UMP603      0.1579
      6  C6       -89.4040  117.2660  129.0570 C.3   603  UMP603      0.1249
      7  O2       -90.0560  113.9290  130.1970 O.2   603  UMP603     -0.1922
      8  O4       -90.8770  115.6740  126.0880 O.2   603  UMP603     -0.2133
      9  C1'      -88.5050  115.9960  131.0990 C.3   603  UMP603      0.2048
     10  C2'      -87.5410  114.8250  131.3030 C.3   603  UMP603      0.0871
     11  C3'      -86.7020  115.3850  132.4520 C.3   603  UMP603      0.1857
     12  C4'      -86.5110  116.8280  131.9830 C.3   603  UMP603      0.1774
     13  O3'      -87.4400  115.3930  133.6770 O.3   603  UMP603     -0.2203
     14  O4'      -87.6330  117.1330  131.1470 O.3   603  UMP603     -0.3342
     15  C5'      -85.2820  116.9910  131.0920 C.3   603  UMP603      0.1858
     16  O5'      -84.1330  117.0760  131.9300 O.3   603  UMP603     -0.2675
     17  P        -82.6570  116.9650  131.3080 P.3   603  UMP603      0.5327
     18  OP1      -82.2600  118.1380  130.5000 O.3   603  UMP603     -0.1145
     19  OP2      -81.6890  116.7190  132.5670 O.3   603  UMP603     -0.1145
     20  OP3      -82.6500  115.6090  130.4470 O.2   603  UMP603     -0.2224
@<TRIPOS>BOND
     1     8     4    2
     2     4     5    1
     3     4     3    2
     4     5     6    1
     5     3     2    2
     6     6     1    1
     7     2     1   am
     8     2     7    2
     9     1     9    1
    10    20    17    2
    11    18    17    1
    12    15    16    1
    13    15    12    1
    14     9    14    1
    15     9    10    1
    16    14    12    1
    17    10    11    1
    18    17    16    1
    19    17    19    1
    20    12    11    1
    21    11    13    1
