@<TRIPOS>MOLECULE
3dl9_V2H_A_1.pdb
 30 32 0 0 0
SMALL
GASTEIGER

@<TRIPOS>ATOM
      1  O30      -46.6730    8.9040  -24.9440 O.3   602  V2H602     -0.2182
      2  CAN      -45.7130    8.1100  -24.2330 C.3   602  V2H602      0.1765
      3  CAO      -44.9170    9.0210  -23.2910 C.3   602  V2H602      0.0707
      4  CAZ      -44.0250    8.3040  -22.2590 C.3   602  V2H602      0.1592
      5  OAG      -42.8460    7.7780  -22.8660 O.3   602  V2H602     -0.2227
      6  CAT      -46.3700    7.0080  -23.4430 C.2   602  V2H602      0.0039
      7  CAA      -47.6510    6.7020  -23.5540 C.2   602  V2H602     -0.0024
      8  CAU      -45.4640    6.3100  -22.5490 C.2   602  V2H602     -0.0213
      9  CAS      -44.7900    7.1950  -21.5430 C.3   602  V2H602      0.0591
     10  CAH      -45.1630    4.9860  -22.5840 C.2   602  V2H602     -0.0051
     11  CAI      -45.7330    3.9970  -23.5210 C.2   602  V2H602     -0.0088
     12  CAV      -45.3350    2.6950  -23.5430 C.2   602  V2H602     -0.0446
     13  CAM      -44.2520    2.1550  -22.6220 C.3   602  V2H602      0.0220
     14  CAL      -44.4510    0.6970  -22.1950 C.3   602  V2H602      0.0044
     15  CAR      -45.0670   -0.2260  -23.2410 C.3   602  V2H602      0.0006
     16  CBC      -46.3240    0.3870  -23.8120 C.3   602  V2H602      0.0038
     17  CBA      -45.8940    1.6800  -24.5110 C.3   602  V2H602      0.0183
     18  CAF      -47.3320    0.6200  -22.6770 C.3   602  V2H602      0.0003
     19  CBB      -46.9040   -0.4110  -25.0020 C.3   602  V2H602      0.0043
     20  CAQ      -47.6870    0.6760  -25.7730 C.3   602  V2H602      0.0007
     21  CAP      -47.1360    2.0380  -25.3200 C.3   602  V2H602      0.0040
     22  CAY      -47.7350   -1.6910  -24.6950 C.3   602  V2H602      0.0217
     23  CAE      -46.8680   -2.8820  -24.2830 C.3   602  V2H602      0.0047
     24  CAK      -48.5990   -2.0850  -25.8880 C.2   602  V2H602     -0.0310
     25  CAJ      -48.0660   -2.3770  -27.0740 C.2   602  V2H602     -0.0310
     26  CAX      -48.9770   -2.7690  -28.2410 C.3   602  V2H602      0.0217
     27  CAD      -48.7630   -4.2260  -28.6410 C.3   602  V2H602      0.0047
     28  CAW      -48.8110   -1.8350  -29.4640 C.3   602  V2H602      0.0040
     29  CAB      -49.6710   -2.3230  -30.6400 C.3   602  V2H602      0.0003
     30  CAC      -47.3540   -1.6460  -29.8940 C.3   602  V2H602      0.0003
@<TRIPOS>BOND
     1    29    28    1
     2    30    28    1
     3    28    26    1
     4    27    26    1
     5    26    25    1
     6    25    24    2
     7    24    22    1
     8    20    21    1
     9    20    19    1
    10    21    17    1
    11    19    22    1
    12    19    16    1
    13     1     2    1
    14    22    23    1
    15    17    16    1
    16    17    12    1
    17     2     6    1
    18     2     3    1
    19    16    15    1
    20    16    18    1
    21     7     6    2
    22    12    11    2
    23    12    13    1
    24    11    10    1
    25     6     8    1
    26     3     4    1
    27    15    14    1
    28     5     4    1
    29    13    14    1
    30    10     8    2
    31     8     9    1
    32     4     9    1
