@<TRIPOS>MOLECULE
3dl9_HEM_A_1.pdb
 43 50 0 0 0
SMALL
GASTEIGER

@<TRIPOS>ATOM
      1 FE        -53.9120   -1.2390  -33.1440 Fe    601  HEM601      0.0000
      2  CHA      -55.4690   -1.9050  -30.1910 C.2   601  HEM601      0.0000
      3  CHB      -53.1760   -4.5750  -33.5440 C.2   601  HEM601      0.0000
      4  CHC      -52.8830   -0.6590  -36.3060 C.2   601  HEM601      0.0000
      5  CHD      -53.7840    2.0660  -32.4220 C.2   601  HEM601      0.0000
      6  NA       -54.2870   -2.9290  -32.0730 N.ar  601  HEM601      0.0000
      7  C1A      -54.9190   -2.9910  -30.8440 C.ar  601  HEM601      0.0000
      8  C2A      -54.8990   -4.3750  -30.3950 C.ar  601  HEM601      0.0000
      9  C3A      -54.2640   -5.0910  -31.3230 C.ar  601  HEM601      0.0000
     10  C4A      -53.8640   -4.2010  -32.4000 C.ar  601  HEM601      0.0000
     11  CMA      -54.0000   -6.6180  -31.2650 C.3   601  HEM601      0.0000
     12  CAA      -55.4550   -4.9800  -29.0800 C.3   601  HEM601      0.0000
     13  CBA      -56.8420   -4.4930  -28.6830 C.3   601  HEM601      0.0000
     14  CGA      -57.2020   -5.1420  -27.3700 C.2   601  HEM601      0.0000
     15  O1A      -57.2470   -4.4110  -26.3460 O.co2 601  HEM601      0.0000
     16  O2A      -57.4410   -6.3830  -27.3400 O.co2 601  HEM601      0.0000
     17  NB       -53.1310   -2.4140  -34.6360 N.2   601  HEM601      0.0000
     18  C1B      -52.9500   -3.7790  -34.6340 C.2   601  HEM601      0.0000
     19  C2B      -52.5060   -4.1940  -35.9570 C.2   601  HEM601      0.0000
     20  C3B      -52.4300   -3.0920  -36.7150 C.2   601  HEM601      0.0000
     21  C4B      -52.8260   -1.9640  -35.8960 C.2   601  HEM601      0.0000
     22  CMB      -52.1860   -5.6380  -36.3960 C.3   601  HEM601      0.0000
     23  CAB      -52.0170   -2.9640  -38.2010 C.2   601  HEM601      0.0000
     24  CBB      -51.6640   -4.0260  -38.9170 C.2   601  HEM601      0.0000
     25  NC       -53.3770    0.3720  -34.1410 N.ar  601  HEM601      0.0000
     26  C1C      -53.0810    0.4210  -35.4850 C.ar  601  HEM601      0.0000
     27  C2C      -53.0140    1.8080  -35.8970 C.ar  601  HEM601      0.0000
     28  C3C      -53.2600    2.5600  -34.8180 C.ar  601  HEM601      0.0000
     29  C4C      -53.4950    1.6700  -33.7030 C.ar  601  HEM601      0.0000
     30  CMC      -52.7080    2.2770  -37.3370 C.3   601  HEM601      0.0000
     31  CAC      -53.3180    4.0980  -34.7000 C.2   601  HEM601      0.0000
     32  CBC      -53.0960    4.8770  -35.7490 C.2   601  HEM601      0.0000
     33  ND       -54.5380   -0.0880  -31.5520 N.2   601  HEM601      0.0000
     34  C1D      -54.3590    1.2870  -31.4600 C.2   601  HEM601      0.0000
     35  C2D      -54.8740    1.7580  -30.1990 C.2   601  HEM601      0.0000
     36  C3D      -55.4070    0.5050  -29.5060 C.2   601  HEM601      0.0000
     37  C4D      -55.1520   -0.5870  -30.4120 C.2   601  HEM601      0.0000
     38  CMD      -54.8910    3.2120  -29.6730 C.3   601  HEM601      0.0000
     39  CAD      -56.0770    0.4310  -28.1250 C.3   601  HEM601      0.0000
     40  CBD      -57.5640    0.7120  -28.2950 C.3   601  HEM601      0.0000
     41  CGD      -58.2660    0.6980  -26.9600 C.2   601  HEM601      0.0000
     42  O1D      -59.5050    0.9040  -26.9340 O.co2 601  HEM601      0.0000
     43  O2D      -57.6000    0.4740  -25.9200 O.co2 601  HEM601      0.0000
@<TRIPOS>BOND
     1    24    23    2
     2    23    20    1
     3    30    27    1
     4    20    19    2
     5    20    21    1
     6    22    19    1
     7     4    21    2
     8     4    26    1
     9    19    18    1
    10    27    26   ar
    11    27    28   ar
    12    21    17    1
    13    32    31    2
    14    26    25   ar
    15    28    31    1
    16    28    29   ar
    17    17    18    2
    18    17     1    1
    19    18     3    1
    20    25    29   ar
    21    25     1    1
    22    29     5    1
    23     3    10    2
    24     1     6    1
    25     1    33    1
    26     5    34    2
    27    10     6   ar
    28    10     9   ar
    29     6     7   ar
    30    33    34    1
    31    33    37    2
    32    34    35    1
    33     9    11    1
    34     9     8   ar
    35     7     8   ar
    36     7     2    2
    37    37     2    1
    38    37    36    1
    39     8    12    1
    40    35    38    1
    41    35    36    2
    42    36    39    1
    43    12    13    1
    44    13    14    1
    45    40    39    1
    46    40    41    1
    47    14    16   ar
    48    14    15   ar
    49    41    42   ar
    50    41    43   ar
