@<TRIPOS>MOLECULE
3dla_ONL_A_1.pdb
 10 9 0 0 0
SMALL
GASTEIGER

@<TRIPOS>ATOM
      1  N        101.4370   54.5790   54.1420 N.3   800  ONL800     -0.1208
      2  CA       102.8110   55.0610   54.4580 C.3   800  ONL800      0.1948
      3  C        103.7040   55.0420   53.2380 C.2   800  ONL800      0.3819
      4  O        104.7090   54.2980   53.1840 O.co2 800  ONL800     -0.2441
      5  OXT      103.4450   55.7840   52.2740 O.co2 800  ONL800     -0.2441
      6  CB       103.3780   54.2420   55.6120 C.3   800  ONL800      0.0384
      7  CG       102.2760   53.7350   56.5450 C.3   800  ONL800      0.0666
      8  CD       101.8130   54.8460   57.4540 C.2   800  ONL800      0.1511
      9  OD       100.6580   55.2870   57.4510 O.2   800  ONL800     -0.2960
     10  CE       102.8560   55.3790   58.3680 C.3   800  ONL800      0.0722
@<TRIPOS>BOND
     1     5     3   ar
     2     4     3   ar
     3     3     2    1
     4     1     2    1
     5     2     6    1
     6     6     7    1
     7     7     8    1
     8     9     8    2
     9     8    10    1
