@<TRIPOS>MOLECULE
3dla_NXX_A_1.pdb
 44 48 0 0 0
SMALL
GASTEIGER

@<TRIPOS>ATOM
      1  O7N      155.1570   75.7270   65.9380 O.co2 680  NXX680     -0.2405
      2  C7N      154.2690   76.5890   66.1940 C.2   680  NXX680      0.3890
      3  O8N      153.0570   76.3970   65.9080 O.co2 680  NXX680     -0.2405
      4  C3N      154.6510   77.9050   66.8420 C.2   680  NXX680      0.0940
      5  C4N      155.1100   78.9430   66.0330 C.2   680  NXX680      0.0050
      6  C5N      155.4550   80.1580   66.5980 C.2   680  NXX680     -0.0044
      7  C6N      155.3290   80.3000   67.9750 C.3   680  NXX680      0.1195
      8  C2N      154.5530   78.1120   68.2280 C.2   680  NXX680      0.0699
      9  N1N      154.8870   79.2980   68.7740 N.pl3 680  NXX680     -0.2787
     10  C1M      154.7810   79.4980   70.2430 C.3   680  NXX680      0.2263
     11  C2M      156.1030   80.0370   70.7750 C.3   680  NXX680      0.2309
     12  O2M      156.3180   79.5910   72.1200 O.3   680  NXX680     -0.2158
     13  C3M      155.8900   81.5390   70.7010 C.3   680  NXX680      0.2158
     14  O3M      156.7520   82.2630   71.5770 O.3   680  NXX680     -0.2175
     15  O4M      153.7860   80.4820   70.6090 O.3   680  NXX680     -0.3327
     16  C4M      154.4140   81.6970   71.0380 C.3   680  NXX680      0.1799
     17  C5M      153.8260   82.9150   70.3420 C.3   680  NXX680      0.1813
     18  O5M      154.1210   84.0340   71.1780 O.3   680  NXX680     -0.3112
     19  PN       153.1550   85.3070   71.3650 P.3   680  NXX680      0.2189
     20  O1N      151.7420   84.8390   71.1050 O.2   680  NXX680     -0.5170
     21  O2N      153.4270   85.9090   72.7260 O.3   680  NXX680     -0.4371
     22  O3A      153.7630   86.3050   70.2170 O.3   680  NXX680     -0.2703
     23  PA       153.1940   86.8670   68.7910 P.3   680  NXX680      0.2189
     24  O1A      154.2520   87.6980   68.1090 O.3   680  NXX680     -0.4371
     25  O2A      152.6100   85.7670   67.9600 O.2   680  NXX680     -0.5170
     26  O5B      152.0280   87.8750   69.2520 O.3   680  NXX680     -0.3112
     27  C5B      152.2670   88.8270   70.2740 C.3   680  NXX680      0.1813
     28  C4B      152.5180   90.1540   69.5670 C.3   680  NXX680      0.1821
     29  C3B      153.1890   91.1710   70.4790 C.3   680  NXX680      0.2184
     30  O3B      153.8210   92.1490   69.6340 O.3   680  NXX680     -0.2174
     31  C2B      152.0270   91.7910   71.2230 C.3   680  NXX680      0.2570
     32  O2P      152.3600   93.1150   71.6440 O.3   680  NXX680     -0.2130
     33  C1B      150.9560   91.8150   70.1310 C.3   680  NXX680      0.3186
     34  O4B      151.2830   90.7640   69.1880 O.3   680  NXX680     -0.3135
     35  N9A      149.5370   91.6980   70.5950 N.pl3 680  NXX680     -0.1439
     36  C8A      149.0320   90.9910   71.6320 C.3   680  NXX680      0.3377
     37  N7A      147.6870   91.1540   71.6560 N.2   680  NXX680     -0.2095
     38  C5A      147.3560   91.9810   70.6160 C.2   680  NXX680      0.2526
     39  C4A      148.5320   92.3080   69.9500 C.2   680  NXX680      0.3518
     40  C6A      146.1590   92.5210   70.1130 C.2   680  NXX680      0.4393
     41  N6A      144.9670   92.2370   70.7020 N.pl3 680  NXX680      0.2180
     42  N1A      146.1940   93.3290   69.0100 N.2   680  NXX680      0.0021
     43  C2A      147.3460   93.6240   68.3830 C.3   680  NXX680      0.5254
     44  N3A      148.5010   93.1220   68.8490 N.2   680  NXX680     -0.0055
@<TRIPOS>BOND
     1     3     2   ar
     2     1     2   ar
     3     5     6    2
     4     5     4    1
     5     2     4    1
     6     6     7    1
     7     4     8    2
     8    25    23    2
     9     7     9    1
    10    24    23    1
    11     8     9    1
    12    43    44    1
    13    43    42    1
    14     9    10    1
    15    23    26    1
    16    23    22    1
    17    44    39    2
    18    42    40    2
    19    34    28    1
    20    34    33    1
    21    26    27    1
    22    28    27    1
    23    28    29    1
    24    30    29    1
    25    39    35    1
    26    39    38    1
    27    40    38    1
    28    40    41    1
    29    33    35    1
    30    33    31    1
    31    22    19    1
    32    10    15    1
    33    10    11    1
    34    17    16    1
    35    17    18    1
    36    29    31    1
    37    35    36    1
    38    15    16    1
    39    38    37    2
    40    13    11    1
    41    13    16    1
    42    13    14    1
    43    11    12    1
    44    20    19    2
    45    18    19    1
    46    31    32    1
    47    19    21    1
    48    36    37    1
