@<TRIPOS>MOLECULE
3dlc_SAM_A_1.pdb
 27 29 0 0 0
SMALL
GASTEIGER

@<TRIPOS>ATOM
      1  N          2.1180    7.4490   16.7900 N.3   220  SAM220     -0.1208
      2  CA         1.8070    7.9520   18.1530 C.3   220  SAM220      0.1952
      3  C          2.5560    9.2300   18.4130 C.2   220  SAM220      0.3819
      4  O          3.5310    9.5020   17.7090 O.co2 220  SAM220     -0.2441
      5  OXT        2.2020    9.9310   19.3540 O.co2 220  SAM220     -0.2441
      6  CB         2.1020    6.8880   19.1930 C.3   220  SAM220      0.0414
      7  CG         3.5310    6.4650   19.3100 C.3   220  SAM220      0.0503
      8  SD         3.6750    5.1970   20.5850 S.3   220  SAM220     -0.1761
      9  CE         5.3400    5.6000   21.0370 C.3   220  SAM220      0.0590
     10  C5'        3.8510    3.6050   19.6200 C.3   220  SAM220      0.0806
     11  C4'        2.5530    2.8800   19.1540 C.3   220  SAM220      0.1622
     12  O4'        2.6950    1.7830   18.1930 O.3   220  SAM220     -0.3153
     13  C3'        1.6570    2.3820   20.3160 C.3   220  SAM220      0.2168
     14  O3'        0.4270    3.0340   20.2330 O.3   220  SAM220     -0.2175
     15  C2'        1.5450    0.8800   20.0470 C.3   220  SAM220      0.2569
     16  O2'        0.3890    0.2310   20.5260 O.3   220  SAM220     -0.2130
     17  C1'        1.7140    0.8070   18.5200 C.3   220  SAM220      0.3185
     18  N9         2.2090   -0.4890   18.0290 N.pl3 220  SAM220     -0.1439
     19  C8         3.3500   -1.1370   18.4400 C.3   220  SAM220      0.3377
     20  N7         3.5450   -2.2650   17.7160 N.2   220  SAM220     -0.2095
     21  C5         2.4940   -2.3510   16.8410 C.2   220  SAM220      0.2526
     22  C6         2.1280   -3.2970   15.8800 C.2   220  SAM220      0.4393
     23  N6         2.7850   -4.4500   15.6570 N.pl3 220  SAM220      0.2180
     24  N1         1.0300   -3.0300   15.1390 N.2   220  SAM220      0.0021
     25  C2         0.2760   -1.9000   15.3540 C.3   220  SAM220      0.5254
     26  N3         0.5570   -0.9820   16.3220 N.2   220  SAM220     -0.0055
     27  C4         1.6660   -1.2320   17.0150 C.2   220  SAM220      0.3518
@<TRIPOS>BOND
     1    24    25    1
     2    24    22    2
     3    25    26    1
     4    23    22    1
     5    22    21    1
     6    26    27    2
     7     1     2    1
     8    21    27    1
     9    21    20    2
    10    27    18    1
    11     4     3   ar
    12    20    19    1
    13    18    19    1
    14    18    17    1
    15     2     3    1
    16     2     6    1
    17    12    17    1
    18    12    11    1
    19     3     5   ar
    20    17    15    1
    21    11    10    1
    22    11    13    1
    23     6     7    1
    24     7     8    1
    25    10     8    1
    26    15    13    1
    27    15    16    1
    28    14    13    1
    29     8     9    1
