@<TRIPOS>MOLECULE
3dle_GFA_A_1.pdb
 26 28 0 0 0
SMALL
GASTEIGER

@<TRIPOS>ATOM
      1  O2        -2.6020  -34.3710   22.1100 O.3   999  GFA999     -0.4655
      2 CL1        -0.0010  -38.7750   25.0220 Cl    999  GFA999     -0.0822
      3  O3        -5.3860  -35.2920   20.1350 O.2   999  GFA999     -0.2689
      4  O1        -3.4760  -33.6450   24.5010 O.2   999  GFA999     -0.2865
      5  N1        -5.2280  -34.6150   22.3950 N.am  999  GFA999     -0.1761
      6  C12       -1.4180  -36.5570   22.0810 C.ar  999  GFA999      0.0379
      7  C8        -1.9200  -35.3920   24.2070 C.ar  999  GFA999      0.0737
      8  C9        -1.2870  -36.4570   24.9180 C.ar  999  GFA999      0.0176
      9  C6        -1.9460  -33.7280   26.2230 C.ar  999  GFA999      0.0391
     10  C7        -2.5130  -34.2280   24.9460 C.2   999  GFA999      0.1985
     11  C13       -1.9720  -35.4630   22.7710 C.ar  999  GFA999      0.1423
     12  C1        -0.5980  -33.2770   26.3160 C.ar  999  GFA999      0.0032
     13  C10       -0.7530  -37.5160   24.1870 C.ar  999  GFA999      0.0580
     14  C21       -7.1950  -36.1260   22.5850 C.ar  999  GFA999      0.0166
     15  C14       -3.2820  -34.5360   20.8840 C.3   999  GFA999      0.2915
     16  C16       -6.4280  -35.0140   22.9900 C.ar  999  GFA999      0.0735
     17  C4        -2.2490  -33.1750   28.5830 C.ar  999  GFA999      0.0001
     18  C15       -4.7390  -34.8530   21.1050 C.2   999  GFA999      0.2901
     19  C11       -0.8060  -37.5870   22.8000 C.ar  999  GFA999      0.0145
     20  C20       -8.3920  -36.4380   23.2630 C.ar  999  GFA999      0.0013
     21  C17       -6.8620  -34.2300   24.0630 C.ar  999  GFA999      0.0166
     22  C5        -2.7540  -33.6700   27.3690 C.ar  999  GFA999      0.0032
     23  C18       -8.0440  -34.5450   24.7250 C.ar  999  GFA999      0.0013
     24  C3        -0.9170  -32.7380   28.6450 C.ar  999  GFA999      0.0000
     25  C19       -8.8070  -35.6510   24.3220 C.ar  999  GFA999      0.0001
     26  C2        -0.1000  -32.7870   27.5320 C.ar  999  GFA999      0.0001
@<TRIPOS>BOND
     1     3    18    2
     2    15    18    1
     3    15     1    1
     4    18     5   am
     5     6    11   ar
     6     6    19   ar
     7     1    11    1
     8     5    16    1
     9    14    16   ar
    10    14    20   ar
    11    11     7   ar
    12    19    13   ar
    13    16    21   ar
    14    20    25   ar
    15    21    23   ar
    16    13     8   ar
    17    13     2    1
    18     7     8   ar
    19     7    10    1
    20    25    23   ar
    21     4    10    2
    22    10     9    1
    23     9    12   ar
    24     9    22   ar
    25    12    26   ar
    26    22    17   ar
    27    26    24   ar
    28    17    24   ar
