@<TRIPOS>MOLECULE
3dlg_GWE_A_1.pdb
 36 38 0 0 0
SMALL
GASTEIGER

@<TRIPOS>ATOM
      1  C1        -2.2200  -34.5680   22.6750 C.ar  999  GWE999      0.1423
      2  C2        -2.0730  -34.7650   24.1690 C.ar  999  GWE999      0.0737
      3  C3        -1.4380  -35.8950   24.6240 C.ar  999  GWE999      0.0176
      4  C4        -0.8960  -36.9120   23.6970 C.ar  999  GWE999      0.0580
      5  C5        -1.0150  -36.7470   22.3540 C.ar  999  GWE999      0.0145
      6  C6        -1.7010  -35.5320   21.8160 C.ar  999  GWE999      0.0379
      7 CL1        -0.1270  -38.3100   24.3560 Cl    999  GWE999     -0.0822
      8  C7        -2.5910  -33.7100   25.1100 C.2   999  GWE999      0.1986
      9  O1        -3.6990  -33.2310   24.9080 O.2   999  GWE999     -0.2865
     10  C8        -1.8050  -33.1720   26.3070 C.ar  999  GWE999      0.0412
     11  C9        -2.4920  -32.5710   27.4000 C.ar  999  GWE999      0.0328
     12  C10       -1.7480  -32.0440   28.4980 C.ar  999  GWE999      0.1402
     13  C11       -0.3350  -32.1340   28.5110 C.ar  999  GWE999      0.0335
     14  C12        0.3490  -32.7340   27.4280 C.ar  999  GWE999      0.0738
     15  C13       -0.3860  -33.2440   26.3480 C.ar  999  GWE999      0.0072
     16  C14        1.8720  -32.8340   27.3960 C.3   999  GWE999      0.4186
     17  F1         2.3880  -32.8460   28.6480 F     999  GWE999     -0.1659
     18  F2         2.3620  -31.7660   26.7130 F     999  GWE999     -0.1659
     19  F3         2.2640  -33.9720   26.7610 F     999  GWE999     -0.1659
     20  F4        -2.3680  -31.4460   29.5050 F     999  GWE999     -0.2042
     21  O2        -2.8890  -33.4480   22.2500 O.3   999  GWE999     -0.4655
     22  C15       -3.4180  -33.3300   20.8920 C.3   999  GWE999      0.2915
     23  C16       -4.8230  -33.8910   20.9670 C.2   999  GWE999      0.2901
     24  O3        -5.3200  -34.3120   19.9230 O.2   999  GWE999     -0.2689
     25  N1        -5.4690  -33.9000   22.1940 N.am  999  GWE999     -0.1764
     26  C17       -6.5500  -34.6590   22.5850 C.ar  999  GWE999      0.0696
     27  C18       -7.3090  -34.1940   23.8040 C.ar  999  GWE999     -0.0052
     28  C19       -8.3760  -34.9060   24.2260 C.ar  999  GWE999      0.0170
     29  C20       -8.8180  -36.1480   23.5130 C.ar  999  GWE999      0.1248
     30  C21       -8.1470  -36.5710   22.4270 C.ar  999  GWE999      0.0213
     31  C22       -6.9760  -35.8020   21.9460 C.ar  999  GWE999      0.0176
     32  C23       -6.9060  -32.9740   24.5910 C.3   999  GWE999      0.0324
     33  S1       -10.2090  -37.0580   24.1140 S.O2  999  GWE999      0.0935
     34  N2        -9.6790  -38.4760   24.7240 N.3   999  GWE999      0.0392
     35  O4       -10.8490  -36.3100   25.1730 O.2   999  GWE999     -0.1503
     36  O5       -11.1470  -37.3220   23.0200 O.2   999  GWE999     -0.1503
@<TRIPOS>BOND
     1    24    23    2
     2    22    23    1
     3    22    21    1
     4    23    25   am
     5     6     5   ar
     6     6     1   ar
     7    31    30   ar
     8    31    26   ar
     9    25    26    1
    10    21     1    1
    11     5     4   ar
    12    30    29   ar
    13    26    27   ar
    14     1     2   ar
    15    36    33    2
    16    29    33    1
    17    29    28   ar
    18     4     7    1
    19     4     3   ar
    20    27    28   ar
    21    27    32    1
    22    33    34    1
    23    33    35    2
    24     2     3   ar
    25     2     8    1
    26     9     8    2
    27     8    10    1
    28    10    15   ar
    29    10    11   ar
    30    15    14   ar
    31    18    16    1
    32    19    16    1
    33    16    14    1
    34    16    17    1
    35    11    12   ar
    36    14    13   ar
    37    12    13   ar
    38    12    20    1
