@<TRIPOS>MOLECULE
3dln_GLU_A_1.pdb
 10 9 0 0 0
SMALL
GASTEIGER

@<TRIPOS>ATOM
      1  N         20.8060   20.6780   13.3580 N.3   374  GLU374     -0.1208
      2  CA        20.5700   19.3760   14.0530 C.3   374  GLU374      0.1949
      3  C         19.0780   19.0650   14.1280 C.2   374  GLU374      0.3819
      4  O         18.7220   18.0340   14.7270 O.co2 374  GLU374     -0.2441
      5  CB        21.1630   19.4190   15.4660 C.3   374  GLU374      0.0424
      6  CG        22.6820   19.3170   15.5080 C.3   374  GLU374      0.1161
      7  CD        23.1860   17.9140   15.2380 C.2   374  GLU374      0.3649
      8  OE1       24.3900   17.7610   14.9340 O.co2 374  GLU374     -0.2457
      9  OE2       22.3870   16.9570   15.3430 O.co2 374  GLU374     -0.2457
     10  OXT       18.2850   19.8640   13.5810 O.co2 374  GLU374     -0.2441
@<TRIPOS>BOND
     1     1     2    1
     2    10     3   ar
     3     2     3    1
     4     2     5    1
     5     3     4   ar
     6     8     7   ar
     7     7     9   ar
     8     7     6    1
     9     5     6    1
