@<TRIPOS>MOLECULE
3dlp_174_X_1.pdb
 10 10 0 0 0
SMALL
GASTEIGER

@<TRIPOS>ATOM
      1 CL4       -12.9840  -46.5650   -7.5280 Cl    909  174909     -0.0822
      2  C4       -11.4250  -47.1340   -8.2200 C.ar  909  174909      0.0577
      3  C5       -11.4180  -48.3520   -8.9010 C.ar  909  174909      0.0116
      4  C6       -10.2460  -48.8320   -9.4600 C.ar  909  174909      0.0074
      5  C3       -10.2480  -46.3900   -8.0900 C.ar  909  174909      0.0116
      6  C2        -9.0620  -46.8780   -8.6480 C.ar  909  174909      0.0074
      7  C1        -9.0680  -48.0980   -9.3350 C.ar  909  174909      0.0798
      8  C         -7.8280  -48.6630   -9.9660 C.2   909  174909      0.3878
      9  O1        -6.7330  -48.0630   -9.8430 O.co2 909  174909     -0.2406
     10  O2        -7.9400  -49.7270  -10.6220 O.co2 909  174909     -0.2406
@<TRIPOS>BOND
     1    10     8   ar
     2     8     9   ar
     3     8     7    1
     4     4     7   ar
     5     4     3   ar
     6     7     6   ar
     7     3     2   ar
     8     6     5   ar
     9     2     5   ar
    10     2     1    1
