@<TRIPOS>MOLECULE
3dlz_AMP_A_1.pdb
 23 25 0 0 0
SMALL
GASTEIGER

@<TRIPOS>ATOM
      1  P         21.1710    1.5480   11.5400 P.3   902  AMP902      0.5327
      2  O1P       21.3840    0.8380   12.8580 O.3   902  AMP902     -0.1145
      3  O2P       20.0330    2.5680   11.7550 O.3   902  AMP902     -0.1145
      4  O3P       22.4640    1.9020   10.9440 O.2   902  AMP902     -0.2224
      5  O5'       20.6190    0.2730   10.6420 O.3   902  AMP902     -0.2675
      6  C5'       21.4600   -0.7870   10.2710 C.3   902  AMP902      0.1860
      7  C4'       21.1910   -1.2200    8.8520 C.3   902  AMP902      0.1823
      8  O4'       19.8180   -1.6150    8.7010 O.3   902  AMP902     -0.3135
      9  C3'       21.4060   -0.1240    7.7890 C.3   902  AMP902      0.2184
     10  O3'       22.7530   -0.0770    7.3570 O.3   902  AMP902     -0.2174
     11  C2'       20.5210   -0.6020    6.6670 C.3   902  AMP902      0.2570
     12  O2'       21.1680   -1.6350    5.9010 O.3   902  AMP902     -0.2130
     13  C1'       19.3380   -1.1860    7.4550 C.3   902  AMP902      0.3186
     14  N9        18.2710   -0.1690    7.6730 N.pl3 902  AMP902     -0.1439
     15  C8        18.0410    0.5770    8.7600 C.3   902  AMP902      0.3377
     16  N7        16.9870    1.3580    8.5610 N.2   902  AMP902     -0.2095
     17  C5        16.5370    1.1410    7.3260 C.2   902  AMP902      0.2526
     18  C6        15.4290    1.6760    6.5140 C.2   902  AMP902      0.4393
     19  N6        14.6210    2.6260    6.9880 N.pl3 902  AMP902      0.2180
     20  N1        15.2910    1.1790    5.2660 N.2   902  AMP902      0.0021
     21  C2        16.1130    0.2080    4.7970 C.3   902  AMP902      0.5254
     22  N3        17.1540   -0.3140    5.4560 N.2   902  AMP902     -0.0055
     23  C4        17.3870    0.1260    6.7330 C.2   902  AMP902      0.3518
@<TRIPOS>BOND
     1    21    20    1
     2    21    22    1
     3    20    18    2
     4    22    23    2
     5    12    11    1
     6    18    19    1
     7    18    17    1
     8    11    13    1
     9    11     9    1
    10    23    17    1
    11    23    14    1
    12    17    16    2
    13    10     9    1
    14    13    14    1
    15    13     8    1
    16    14    15    1
    17     9     7    1
    18    16    15    1
    19     8     7    1
    20     7     6    1
    21     6     5    1
    22     5     1    1
    23     4     1    2
    24     1     3    1
    25     1     2    1
