@<TRIPOS>MOLECULE
3dm0_GLC_A_1.pdb
 11 11 0 0 0
SMALL
GASTEIGER

@<TRIPOS>ATOM
      1  C1        60.0130   25.0550   60.8460 C.3   671  GLC671      0.1777
      2  C2        58.5600   25.0800   60.4150 C.3   671  GLC671      0.2141
      3  C3        58.4370   24.4010   59.0460 C.3   671  GLC671      0.2173
      4  C4        59.3120   25.1690   58.0460 C.3   671  GLC671      0.2142
      5  C5        60.7600   25.2000   58.5440 C.3   671  GLC671      0.1810
      6  C6        61.6340   26.0790   57.6680 C.3   671  GLC671      0.2141
      7  O2        57.7710   24.4130   61.3820 O.3   671  GLC671     -0.2176
      8  O3        57.0840   24.4120   58.6250 O.3   671  GLC671     -0.2175
      9  O4        59.2560   24.5740   56.7530 O.3   671  GLC671     -0.2176
     10  O5        60.8160   25.7400   59.8860 O.3   671  GLC671     -0.3481
     11  O6        62.7730   26.5660   58.3690 O.3   671  GLC671     -0.2176
@<TRIPOS>BOND
     1     9     4    1
     2     6    11    1
     3     6     5    1
     4     4     5    1
     5     4     3    1
     6     5    10    1
     7     8     3    1
     8     3     2    1
     9    10     1    1
    10     2     1    1
    11     2     7    1
