@<TRIPOS>MOLECULE
3dm2_GWE_A_1.pdb
 36 38 0 0 0
SMALL
GASTEIGER

@<TRIPOS>ATOM
      1  C1        -2.6000  -34.2170   22.1050 C.ar  999  GWE999      0.1423
      2  C2        -2.3800  -34.3670   23.5990 C.ar  999  GWE999      0.0737
      3  C3        -1.7840  -35.4980   24.0720 C.ar  999  GWE999      0.0176
      4  C4        -1.3440  -36.5850   23.1700 C.ar  999  GWE999      0.0580
      5  C5        -1.5300  -36.4660   21.8310 C.ar  999  GWE999      0.0145
      6  C6        -2.1810  -35.2380   21.2700 C.ar  999  GWE999      0.0379
      7 CL1        -0.6230  -38.0200   23.8690 Cl    999  GWE999     -0.0822
      8  C7        -2.8280  -33.2820   24.5150 C.2   999  GWE999      0.1986
      9  O1        -3.9130  -32.7450   24.3080 O.2   999  GWE999     -0.2865
     10  C8        -2.0220  -32.7910   25.7150 C.ar  999  GWE999      0.0412
     11  C9        -2.7180  -32.2860   26.8520 C.ar  999  GWE999      0.0328
     12  C10       -2.0040  -31.8470   27.9890 C.ar  999  GWE999      0.1402
     13  C11       -0.5940  -31.9150   28.0130 C.ar  999  GWE999      0.0335
     14  C12        0.1060  -32.4210   26.8940 C.ar  999  GWE999      0.0738
     15  C13       -0.6040  -32.8510   25.7580 C.ar  999  GWE999      0.0072
     16  C14        1.6120  -32.5920   26.9020 C.3   999  GWE999      0.4186
     17  F1         2.1990  -32.0550   28.0110 F     999  GWE999     -0.1659
     18  F2         2.1190  -31.9940   25.7820 F     999  GWE999     -0.1659
     19  F3         1.8990  -33.9210   26.8740 F     999  GWE999     -0.1659
     20  F4        -2.6620  -31.3950   29.0430 F     999  GWE999     -0.2042
     21  O2        -3.2270  -33.0660   21.6730 O.3   999  GWE999     -0.4655
     22  C15       -3.6770  -32.8720   20.3060 C.3   999  GWE999      0.2915
     23  C16       -5.0780  -33.4300   20.2850 C.2   999  GWE999      0.2901
     24  O3        -5.4490  -33.9310   19.2340 O.2   999  GWE999     -0.2689
     25  N1        -5.8610  -33.3400   21.4360 N.am  999  GWE999     -0.1764
     26  C17       -6.8850  -34.1800   21.8820 C.ar  999  GWE999      0.0696
     27  C18       -7.6210  -33.7650   23.1540 C.ar  999  GWE999     -0.0052
     28  C19       -8.6260  -34.5520   23.6380 C.ar  999  GWE999      0.0170
     29  C20       -9.0280  -35.8220   22.9440 C.ar  999  GWE999      0.1248
     30  C21       -8.3760  -36.1970   21.8100 C.ar  999  GWE999      0.0213
     31  C22       -7.2730  -35.3500   21.2640 C.ar  999  GWE999      0.0176
     32  C23       -7.2810  -32.4910   23.9040 C.3   999  GWE999      0.0324
     33  S1       -10.3600  -36.8150   23.6110 S.O2  999  GWE999      0.0935
     34  N2        -9.8040  -38.3020   24.0030 N.3   999  GWE999      0.0392
     35  O4       -10.8690  -36.1820   24.8090 O.2   999  GWE999     -0.1503
     36  O5       -11.4210  -36.9710   22.6230 O.2   999  GWE999     -0.1503
@<TRIPOS>BOND
     1    24    23    2
     2    23    22    1
     3    23    25   am
     4    22    21    1
     5    31    30   ar
     6    31    26   ar
     7     6     5   ar
     8     6     1   ar
     9    25    26    1
    10    21     1    1
    11    30    29   ar
    12     5     4   ar
    13    26    27   ar
    14     1     2   ar
    15    36    33    2
    16    29    33    1
    17    29    28   ar
    18    27    28   ar
    19    27    32    1
    20     4     7    1
    21     4     3   ar
    22     2     3   ar
    23     2     8    1
    24    33    34    1
    25    33    35    2
    26     9     8    2
    27     8    10    1
    28    10    15   ar
    29    10    11   ar
    30    15    14   ar
    31    18    16    1
    32    11    12   ar
    33    19    16    1
    34    14    16    1
    35    14    13   ar
    36    16    17    1
    37    12    13   ar
    38    12    20    1
