@<TRIPOS>MOLECULE
3dm5_GDP_A_1.pdb
 28 30 0 0 0
SMALL
GASTEIGER

@<TRIPOS>ATOM
      1  PB        23.5300  -42.9350   47.1360 P.3   501  GDP501      0.5373
      2  O1B       22.0710  -42.8540   46.8440 O.3   501  GDP501     -0.1143
      3  O2B       23.7360  -42.6800   48.6090 O.3   501  GDP501     -0.1143
      4  O3B       24.2710  -41.9250   46.2950 O.2   501  GDP501     -0.2221
      5  O3A       24.0970  -44.4340   46.9500 O.3   501  GDP501     -0.2261
      6  PA        23.9750  -45.3800   45.6580 P.3   501  GDP501      0.2231
      7  O1A       24.8980  -46.5570   45.7690 O.3   501  GDP501     -0.4370
      8  O2A       24.2320  -44.6410   44.3760 O.2   501  GDP501     -0.5169
      9  O5'       22.4660  -45.9190   45.7860 O.3   501  GDP501     -0.3111
     10  C5'       22.1750  -46.7340   46.9150 C.3   501  GDP501      0.1813
     11  C4'       21.6300  -48.0980   46.4820 C.3   501  GDP501      0.1799
     12  O4'       20.5820  -48.0170   45.4880 O.3   501  GDP501     -0.3326
     13  C3'       22.7290  -48.9670   45.8960 C.3   501  GDP501      0.2158
     14  O3'       22.5450  -50.2570   46.4870 O.3   501  GDP501     -0.2175
     15  C2'       22.4390  -48.9780   44.4060 C.3   501  GDP501      0.2310
     16  O2'       22.7730  -50.2030   43.7950 O.3   501  GDP501     -0.2158
     17  C1'       20.9360  -48.8530   44.3720 C.3   501  GDP501      0.2293
     18  N9        20.4060  -48.2710   43.1290 N.pl3 501  GDP501     -0.2354
     19  C8        20.6610  -47.0720   42.5790 C.3   501  GDP501      0.2246
     20  N7        19.9260  -46.9010   41.4460 N.2   501  GDP501     -0.2322
     21  C5        19.1750  -48.0070   41.2820 C.2   501  GDP501      0.2182
     22  C6        18.1720  -48.5190   40.3110 C.1   501  GDP501      0.2372
     23  O6        17.7980  -47.8480   39.3200 O.2   501  GDP501     -0.2069
     24  N1        17.6660  -49.7390   40.5290 N.2   501  GDP501     -0.2485
     25  C2        18.0160  -50.4950   41.5840 C.1   501  GDP501      0.2531
     26  N2        17.4510  -51.7120   41.7310 N.pl3 501  GDP501     -0.0226
     27  N3        18.9100  -50.0970   42.5090 N.2   501  GDP501     -0.3074
     28  C4        19.5040  -48.8960   42.4010 C.2   501  GDP501      0.2300
@<TRIPOS>BOND
     1    23    22    2
     2    22    24    2
     3    22    21    1
     4    24    25    2
     5    21    20    2
     6    21    28    1
     7    20    19    1
     8    25    26    1
     9    25    27    2
    10    28    27    2
    11    28    18    1
    12    19    18    1
    13    18    17    1
    14    16    15    1
    15    17    15    1
    16    17    12    1
    17     8     6    2
    18    15    13    1
    19    12    11    1
    20     6     7    1
    21     6     9    1
    22     6     5    1
    23     9    10    1
    24    13    11    1
    25    13    14    1
    26     4     1    2
    27    11    10    1
    28     2     1    1
    29     5     1    1
    30     1     3    1
