@<TRIPOS>MOLECULE
3dmf_SAM_A_1.pdb
 27 29 0 0 0
SMALL
GASTEIGER

@<TRIPOS>ATOM
      1  N         24.1720   58.7360   22.1480 N.3   388  SAM388     -0.1208
      2  CA        23.7150   57.4510   21.5290 C.3   388  SAM388      0.1952
      3  C         23.3390   56.4590   22.6250 C.2   388  SAM388      0.3819
      4  O         23.7130   56.7000   23.7680 O.co2 388  SAM388     -0.2441
      5  OXT       22.7060   55.4530   22.3410 O.co2 388  SAM388     -0.2441
      6  CB        24.7840   56.8000   20.6480 C.3   388  SAM388      0.0414
      7  CG        26.0990   56.4750   21.3730 C.3   388  SAM388      0.0503
      8  SD        27.2940   55.5660   20.3460 S.3   388  SAM388     -0.1761
      9  CE        28.3210   54.7750   21.6150 C.3   388  SAM388      0.0590
     10  C5'       28.4460   56.8540   19.7960 C.3   388  SAM388      0.0806
     11  C4'       27.9020   57.6920   18.6340 C.3   388  SAM388      0.1622
     12  O4'       28.9760   58.5450   18.2270 O.3   388  SAM388     -0.3153
     13  C3'       27.4210   56.8890   17.4100 C.3   388  SAM388      0.2168
     14  O3'       26.1010   57.2400   17.1050 O.3   388  SAM388     -0.2175
     15  C2'       28.4190   57.3310   16.3350 C.3   388  SAM388      0.2569
     16  O2'       27.9580   57.2510   14.9830 O.3   388  SAM388     -0.2130
     17  C1'       28.7870   58.7170   16.8360 C.3   388  SAM388      0.3185
     18  N9        30.0200   59.2420   16.2290 N.pl3 388  SAM388     -0.1439
     19  C8        31.1310   58.5600   15.7840 C.3   388  SAM388      0.3377
     20  N7        32.0270   59.4690   15.2990 N.2   388  SAM388     -0.2095
     21  C5        31.4810   60.7060   15.4210 C.2   388  SAM388      0.2526
     22  C6        31.9210   61.9810   15.0700 C.2   388  SAM388      0.4393
     23  N6        33.0800   62.2250   14.4500 N.pl3 388  SAM388      0.2180
     24  N1        31.0920   63.0390   15.3630 N.2   388  SAM388      0.0021
     25  C2        29.8580   62.8880   15.9370 C.3   388  SAM388      0.5254
     26  N3        29.3790   61.6260   16.2640 N.2   388  SAM388     -0.0055
     27  C4        30.2220   60.5710   16.0080 C.2   388  SAM388      0.3518
@<TRIPOS>BOND
     1    23    22    1
     2    16    15    1
     3    22    24    2
     4    22    21    1
     5    20    21    2
     6    20    19    1
     7    24    25    1
     8    21    27    1
     9    19    18    1
    10    25    26    1
    11    27    18    1
    12    27    26    2
    13    18    17    1
    14    15    17    1
    15    15    13    1
    16    17    12    1
    17    14    13    1
    18    13    11    1
    19    12    11    1
    20    11    10    1
    21    10     8    1
    22     8     7    1
    23     8     9    1
    24     6     7    1
    25     6     2    1
    26     2     1    1
    27     2     3    1
    28     5     3   ar
    29     3     4   ar
