@<TRIPOS>MOLECULE
3dmg_SAH_A_1.pdb
 26 28 0 0 0
SMALL
GASTEIGER

@<TRIPOS>ATOM
      1  N         24.4110   58.5370   22.1500 N.3   388  SAH388     -0.1208
      2  CA        23.9430   57.2440   21.5450 C.3   388  SAH388      0.1952
      3  CB        25.0240   56.5870   20.6770 C.3   388  SAH388      0.0422
      4  CG        26.3630   56.3690   21.3700 C.3   388  SAH388      0.0597
      5  SD        27.5270   55.3700   20.4040 S.3   388  SAH388     -0.1375
      6  C         23.5470   56.2700   22.6440 C.2   388  SAH388      0.3819
      7  O         23.9260   56.5550   23.7860 O.co2 388  SAH388     -0.2441
      8  OXT       22.9140   55.2570   22.3510 O.co2 388  SAH388     -0.2441
      9  C5'       28.6820   56.6530   19.8120 C.3   388  SAH388      0.0899
     10  C4'       28.1090   57.4810   18.6590 C.3   388  SAH388      0.1630
     11  O4'       29.1730   58.3580   18.2920 O.3   388  SAH388     -0.3153
     12  C3'       27.6470   56.6850   17.4200 C.3   388  SAH388      0.2168
     13  O3'       26.3000   56.9950   17.1050 O.3   388  SAH388     -0.2175
     14  C2'       28.6570   57.1680   16.3730 C.3   388  SAH388      0.2569
     15  O2'       28.1790   57.1150   15.0480 O.3   388  SAH388     -0.2130
     16  C1'       29.0040   58.5450   16.9110 C.3   388  SAH388      0.3185
     17  N9        30.2010   59.0920   16.2910 N.pl3 388  SAH388     -0.1439
     18  C8        31.3110   58.4020   15.8620 C.3   388  SAH388      0.3377
     19  N7        32.1830   59.3080   15.3500 N.2   388  SAH388     -0.2095
     20  C5        31.6400   60.5540   15.4710 C.2   388  SAH388      0.2526
     21  C6        32.0810   61.8220   15.0800 C.2   388  SAH388      0.4393
     22  N6        33.2600   62.0060   14.4480 N.pl3 388  SAH388      0.2180
     23  N1        31.2390   62.8830   15.3730 N.2   388  SAH388      0.0021
     24  C2        30.0090   62.7230   15.9730 C.3   388  SAH388      0.5254
     25  N3        29.5450   61.4640   16.3100 N.2   388  SAH388     -0.0055
     26  C4        30.3770   60.4140   16.0630 C.2   388  SAH388      0.3518
@<TRIPOS>BOND
     1    22    21    1
     2    15    14    1
     3    21    23    2
     4    21    20    1
     5    19    20    2
     6    19    18    1
     7    23    24    1
     8    20    26    1
     9    18    17    1
    10    24    25    1
    11    26    17    1
    12    26    25    2
    13    17    16    1
    14    14    16    1
    15    14    12    1
    16    16    11    1
    17    13    12    1
    18    12    10    1
    19    11    10    1
    20    10     9    1
    21     9     5    1
    22     5     4    1
    23     3     4    1
    24     3     2    1
    25     2     1    1
    26     2     6    1
    27     8     6   ar
    28     6     7   ar
