@<TRIPOS>MOLECULE
3dmh_SAM_A_1.pdb
 27 29 0 0 0
SMALL
GASTEIGER

@<TRIPOS>ATOM
      1  N         24.2830   57.6020   22.2200 N.3   384  SAM384     -0.1208
      2  CA        23.8480   56.2900   21.6280 C.3   384  SAM384      0.1952
      3  C         23.4650   55.3480   22.7490 C.2   384  SAM384      0.3819
      4  O         23.7950   55.6970   23.8910 O.co2 384  SAM384     -0.2441
      5  OXT       22.8870   54.2800   22.4870 O.co2 384  SAM384     -0.2441
      6  CB        24.9720   55.6460   20.8130 C.3   384  SAM384      0.0414
      7  CG        26.2620   55.3440   21.5800 C.3   384  SAM384      0.0503
      8  SD        27.4700   54.4700   20.5330 S.3   384  SAM384     -0.1761
      9  CE        28.5180   53.6670   21.7800 C.3   384  SAM384      0.0590
     10  C5'       28.6090   55.7490   19.9270 C.3   384  SAM384      0.0806
     11  C4'       28.0170   56.5560   18.7830 C.3   384  SAM384      0.1622
     12  O4'       29.0650   57.4270   18.3640 O.3   384  SAM384     -0.3153
     13  C3'       27.5710   55.7310   17.5680 C.3   384  SAM384      0.2168
     14  O3'       26.2180   55.9950   17.2200 O.3   384  SAM384     -0.2175
     15  C2'       28.5590   56.1540   16.4760 C.3   384  SAM384      0.2569
     16  O2'       28.0630   56.0930   15.1530 O.3   384  SAM384     -0.2130
     17  C1'       28.8860   57.5620   16.9680 C.3   384  SAM384      0.3185
     18  N9        30.0910   58.0810   16.3500 N.pl3 384  SAM384     -0.1439
     19  C8        31.2250   57.3930   15.9250 C.3   384  SAM384      0.3377
     20  N7        32.1230   58.2810   15.4320 N.2   384  SAM384     -0.2095
     21  C5        31.5560   59.5350   15.5240 C.2   384  SAM384      0.2526
     22  C6        31.9780   60.8140   15.1420 C.2   384  SAM384      0.4393
     23  N6        33.1560   61.0060   14.5330 N.pl3 384  SAM384      0.2180
     24  N1        31.1350   61.8710   15.3950 N.2   384  SAM384      0.0021
     25  C2        29.9060   61.6930   15.9900 C.3   384  SAM384      0.5254
     26  N3        29.4370   60.4280   16.3270 N.2   384  SAM384     -0.0055
     27  C4        30.2760   59.3930   16.0990 C.2   384  SAM384      0.3518
@<TRIPOS>BOND
     1    23    22    1
     2    22    24    2
     3    22    21    1
     4    16    15    1
     5    24    25    1
     6    20    21    2
     7    20    19    1
     8    21    27    1
     9    19    18    1
    10    25    26    1
    11    27    26    2
    12    27    18    1
    13    18    17    1
    14    15    17    1
    15    15    13    1
    16    17    12    1
    17    14    13    1
    18    13    11    1
    19    12    11    1
    20    11    10    1
    21    10     8    1
    22     8     7    1
    23     8     9    1
    24     6     7    1
    25     6     2    1
    26     2     1    1
    27     2     3    1
    28     5     3   ar
    29     3     4   ar
