@<TRIPOS>MOLECULE
3dmh_GMP_A_1.pdb
 18 20 0 0 0
SMALL
GASTEIGER

@<TRIPOS>ATOM
      1  C4'       29.2850   44.4910   27.1950 C.3   385  GMP385      0.1797
      2  O4'       29.7130   45.8590   27.1990 O.3   385  GMP385     -0.3326
      3  C3'       29.5470   43.9660   25.7930 C.3   385  GMP385      0.2158
      4  O3'       28.3160   44.0530   25.0640 O.3   385  GMP385     -0.2175
      5  C2'       30.5500   44.9490   25.2160 C.3   385  GMP385      0.2310
      6  O2'       30.4300   45.0510   23.7970 O.3   385  GMP385     -0.2158
      7  C1'       30.1460   46.2480   25.8920 C.3   385  GMP385      0.2293
      8  N9        31.2220   47.2460   26.0680 N.pl3 385  GMP385     -0.2354
      9  C8        32.5360   47.0370   26.2560 C.3   385  GMP385      0.2246
     10  N7        33.2070   48.2090   26.4020 N.2   385  GMP385     -0.2322
     11  C5        32.2970   49.2060   26.3290 C.2   385  GMP385      0.2182
     12  C6        32.3080   50.6910   26.3980 C.1   385  GMP385      0.2372
     13  O6        33.3720   51.3180   26.5830 O.2   385  GMP385     -0.2069
     14  N1        31.1330   51.3310   26.2550 N.2   385  GMP385     -0.2485
     15  C2        29.9580   50.6840   26.0550 C.1   385  GMP385      0.2531
     16  N2        28.7990   51.3710   25.9140 N.pl3 385  GMP385     -0.0226
     17  N3        29.8750   49.3260   25.9820 N.2   385  GMP385     -0.3074
     18  C4        30.9890   48.5630   26.1130 C.2   385  GMP385      0.2300
@<TRIPOS>BOND
     1     6     5    1
     2     4     3    1
     3     5     3    1
     4     5     7    1
     5     3     1    1
     6     7     8    1
     7     7     2    1
     8    16    15    1
     9    17    15    2
    10    17    18    2
    11    15    14    2
    12     8    18    1
    13     8     9    1
    14    18    11    1
    15    14    12    2
    16     9    10    1
    17    11    12    1
    18    11    10    2
    19    12    13    2
    20     1     2    1
