@<TRIPOS>MOLECULE
3dmi_HEM_A_1.pdb
 43 50 0 0 0
SMALL
GASTEIGER

@<TRIPOS>ATOM
      1 FE         13.1380   66.8650   26.7930 Fe    146  HEM146      0.0000
      2  CHA       11.9600   64.4780   28.8800 C.2   146  HEM146      0.0000
      3  CHB       11.3070   69.2260   28.4110 C.2   146  HEM146      0.0000
      4  CHC       14.8060   69.3080   25.0620 C.2   146  HEM146      0.0000
      5  CHD       14.5640   64.4850   24.7680 C.2   146  HEM146      0.0000
      6  NA        11.8880   66.8510   28.3490 N.2   146  HEM146      0.0000
      7  C1A       11.4800   65.7440   29.0510 C.2   146  HEM146      0.0000
      8  C2A       10.5020   66.1310   30.0380 C.2   146  HEM146      0.0000
      9  C3A       10.3280   67.4570   29.9280 C.2   146  HEM146      0.0000
     10  C4A       11.1980   67.9350   28.8700 C.2   146  HEM146      0.0000
     11  CMA        9.3700   68.3530   30.7530 C.3   146  HEM146      0.0000
     12  CAA        9.7860   65.1330   30.9860 C.3   146  HEM146      0.0000
     13  CBA        8.7540   64.3730   30.1170 C.3   146  HEM146      0.0000
     14  CGA        8.1910   63.1220   30.7630 C.2   146  HEM146      0.0000
     15  O1A        8.8400   62.5720   31.6860 O.co2 146  HEM146      0.0000
     16  O2A        7.0830   62.6610   30.3570 O.co2 146  HEM146      0.0000
     17  NB        13.0890   68.8930   26.7410 N.ar  146  HEM146      0.0000
     18  C1B       12.1980   69.6760   27.4550 C.ar  146  HEM146      0.0000
     19  C2B       12.3790   71.0520   27.0430 C.ar  146  HEM146      0.0000
     20  C3B       13.3520   71.0940   26.1130 C.ar  146  HEM146      0.0000
     21  C4B       13.8150   69.7340   25.9190 C.ar  146  HEM146      0.0000
     22  CMB       11.5560   72.2360   27.5920 C.3   146  HEM146      0.0000
     23  CAB       13.8850   72.3640   25.3990 C.3   146  HEM146      0.0000
     24  CBB       14.6410   73.1860   26.1780 C.3   146  HEM146      0.0000
     25  NC        14.4820   66.8680   25.2690 N.2   146  HEM146      0.0000
     26  C1C       14.9590   68.0070   24.6400 C.2   146  HEM146      0.0000
     27  C2C       15.6370   67.6090   23.4290 C.2   146  HEM146      0.0000
     28  C3C       15.5810   66.2720   23.3110 C.2   146  HEM146      0.0000
     29  C4C       14.8470   65.7880   24.4690 C.2   146  HEM146      0.0000
     30  CMC       16.3160   68.5820   22.4370 C.3   146  HEM146      0.0000
     31  CAC       16.1420   65.4440   22.1060 C.2   146  HEM146      0.0000
     32  CBC       17.4890   65.2640   22.0090 C.2   146  HEM146      0.0000
     33  ND        13.2270   64.8160   26.8070 N.ar  146  HEM146      0.0000
     34  C1D       13.9720   64.0350   25.9230 C.ar  146  HEM146      0.0000
     35  C2D       14.0110   62.6750   26.4220 C.ar  146  HEM146      0.0000
     36  C3D       13.2030   62.6870   27.7010 C.ar  146  HEM146      0.0000
     37  C4D       12.7510   64.0480   27.8620 C.ar  146  HEM146      0.0000
     38  CMD       14.7230   61.4510   25.8000 C.3   146  HEM146      0.0000
     39  CAD       12.9650   61.4930   28.6400 C.3   146  HEM146      0.0000
     40  CBD       14.1020   61.5000   29.6710 C.3   146  HEM146      0.0000
     41  CGD       14.0240   60.2630   30.5280 C.2   146  HEM146      0.0000
     42  O1D       13.2510   60.2490   31.5110 O.co2 146  HEM146      0.0000
     43  O2D       14.7420   59.2850   30.1900 O.co2 146  HEM146      0.0000
@<TRIPOS>BOND
     1    32    31    2
     2    31    28    1
     3    30    27    1
     4    28    27    2
     5    28    29    1
     6    27    26    1
     7    29     5    1
     8    29    25    2
     9    26     4    2
    10    26    25    1
    11     5    34    2
    12     4    21    1
    13    25     1    1
    14    23    20    1
    15    23    24    1
    16    38    35    1
    17    21    20   ar
    18    21    17   ar
    19    34    35   ar
    20    34    33   ar
    21    20    19   ar
    22    35    36   ar
    23    17     1    1
    24    17    18   ar
    25     1    33    1
    26     1     6    1
    27    33    37   ar
    28    19    18   ar
    29    19    22    1
    30    18     3    1
    31    36    37   ar
    32    36    39    1
    33    37     2    2
    34     6    10    1
    35     6     7    2
    36     3    10    2
    37    39    40    1
    38    10     9    1
    39     2     7    1
    40     7     8    1
    41    40    41    1
    42     9     8    2
    43     9    11    1
    44     8    12    1
    45    13    14    1
    46    13    12    1
    47    43    41   ar
    48    16    14   ar
    49    41    42   ar
    50    14    15   ar
