@<TRIPOS>MOLECULE
3dmj_GWE_A_1.pdb
 36 38 0 0 0
SMALL
GASTEIGER

@<TRIPOS>ATOM
      1  C1        -2.2430  -34.6580   22.5180 C.ar  999  GWE999      0.1423
      2  C2        -2.0950  -34.8120   24.0160 C.ar  999  GWE999      0.0737
      3  C3        -1.4290  -35.9030   24.4970 C.ar  999  GWE999      0.0176
      4  C4        -0.8480  -36.9180   23.5900 C.ar  999  GWE999      0.0580
      5  C5        -0.9730  -36.7900   22.2490 C.ar  999  GWE999      0.0145
      6  C6        -1.6970  -35.6190   21.6840 C.ar  999  GWE999      0.0379
      7 CL1         0.0140  -38.2490   24.2740 Cl    999  GWE999     -0.0822
      8  C7        -2.6360  -33.7300   24.9170 C.2   999  GWE999      0.1986
      9  O1        -3.7110  -33.2180   24.6420 O.2   999  GWE999     -0.2865
     10  C8        -1.9200  -33.1810   26.1430 C.ar  999  GWE999      0.0412
     11  C9        -2.6730  -32.6400   27.2270 C.ar  999  GWE999      0.0328
     12  C10       -2.0010  -32.0600   28.3400 C.ar  999  GWE999      0.1402
     13  C11       -0.5950  -32.0280   28.3800 C.ar  999  GWE999      0.0335
     14  C12        0.1490  -32.5750   27.3090 C.ar  999  GWE999      0.0738
     15  C13       -0.5140  -33.1380   26.2100 C.ar  999  GWE999      0.0072
     16  C14        1.6580  -32.6040   27.3110 C.3   999  GWE999      0.4186
     17  F1         2.1620  -32.4460   28.5500 F     999  GWE999     -0.1659
     18  F2         2.1060  -31.6040   26.5060 F     999  GWE999     -0.1659
     19  F3         2.0820  -33.8130   26.8320 F     999  GWE999     -0.1659
     20  F4        -2.6910  -31.5280   29.3360 F     999  GWE999     -0.2042
     21  O2        -2.9190  -33.5550   22.0690 O.3   999  GWE999     -0.4655
     22  C15       -3.3500  -33.4180   20.6910 C.3   999  GWE999      0.2915
     23  C16       -4.7660  -33.9220   20.7040 C.2   999  GWE999      0.2901
     24  O3        -5.2170  -34.3220   19.6450 O.2   999  GWE999     -0.2689
     25  N1        -5.4730  -33.9050   21.9120 N.am  999  GWE999     -0.1764
     26  C17       -6.5850  -34.6490   22.2850 C.ar  999  GWE999      0.0696
     27  C18       -7.3530  -34.2050   23.5120 C.ar  999  GWE999     -0.0052
     28  C19       -8.4360  -34.8990   23.8920 C.ar  999  GWE999      0.0170
     29  C20       -8.8910  -36.1020   23.1370 C.ar  999  GWE999      0.1248
     30  C21       -8.2230  -36.5060   22.0530 C.ar  999  GWE999      0.0213
     31  C22       -7.0300  -35.7580   21.6130 C.ar  999  GWE999      0.0176
     32  C23       -6.9440  -33.0170   24.3370 C.3   999  GWE999      0.0324
     33  S1       -10.3030  -36.9900   23.6870 S.O2  999  GWE999      0.0935
     34  N2       -11.2960  -37.2480   22.4210 N.3   999  GWE999      0.0392
     35  O4        -9.8820  -38.2690   24.2420 O.2   999  GWE999     -0.1503
     36  O5       -10.9880  -36.1900   24.6910 O.2   999  GWE999     -0.1503
@<TRIPOS>BOND
     1    24    23    2
     2    22    23    1
     3    22    21    1
     4    23    25   am
     5    31    30   ar
     6    31    26   ar
     7     6     5   ar
     8     6     1   ar
     9    25    26    1
    10    30    29   ar
    11    21     1    1
    12     5     4   ar
    13    26    27   ar
    14    34    33    1
    15     1     2   ar
    16    29    33    1
    17    29    28   ar
    18    27    28   ar
    19    27    32    1
    20     4     7    1
    21     4     3   ar
    22    33    35    2
    23    33    36    2
    24     2     3   ar
    25     2     8    1
    26     9     8    2
    27     8    10    1
    28    10    15   ar
    29    10    11   ar
    30    15    14   ar
    31    18    16    1
    32    19    16    1
    33    11    12   ar
    34    14    16    1
    35    14    13   ar
    36    16    17    1
    37    12    13   ar
    38    12    20    1
