@<TRIPOS>MOLECULE
3dmr_PGD_A_1.pdb
 47 52 0 0 0
SMALL
GASTEIGER

@<TRIPOS>ATOM
      1  PB         3.5990   48.6120   30.6890 P.3   782  PGD782      0.2189
      2  O1B        2.5260   48.8270   29.3550 O.2   782  PGD782     -0.5170
      3  O2B        4.1480   50.1100   31.3290 O.3   782  PGD782     -0.4371
      4  O3B        2.6910   47.9560   31.8480 O.3   782  PGD782     -0.2703
      5  O3A        1.2030   46.8640   33.7650 O.3   782  PGD782     -0.3109
      6  PA         2.1960   46.5240   32.3920 P.3   782  PGD782      0.2189
      7  O1A        1.3680   45.7040   31.1420 O.2   782  PGD782     -0.5170
      8  O2A        3.6480   45.6960   32.8570 O.3   782  PGD782     -0.4371
      9  O5'        4.9170   47.5330   30.4170 O.3   782  PGD782     -0.3112
     10  C5'        5.0500   47.1860   29.0930 C.3   782  PGD782      0.1813
     11  C4'        6.5440   47.0750   28.8110 C.3   782  PGD782      0.1799
     12  O4'        6.7620   46.3100   27.6590 O.3   782  PGD782     -0.3326
     13  C3'        7.1460   48.4540   28.6440 C.3   782  PGD782      0.2158
     14  O3'        8.2150   48.6150   29.5460 O.3   782  PGD782     -0.2175
     15  C2'        7.5150   48.4560   27.1810 C.3   782  PGD782      0.2310
     16  O2'        8.5960   49.2480   26.8560 O.3   782  PGD782     -0.2158
     17  C1'        7.7900   46.9790   26.9460 C.3   782  PGD782      0.2293
     18  N9         7.7460   46.5740   25.5470 N.pl3 782  PGD782     -0.2354
     19  C8         6.9040   47.0280   24.5850 C.3   782  PGD782      0.2246
     20  N7         6.9900   46.3040   23.4280 N.2   782  PGD782     -0.2322
     21  C5         7.7400   45.2320   23.7690 C.2   782  PGD782      0.2182
     22  C6         8.4130   44.3980   22.8720 C.1   782  PGD782      0.2372
     23  O6         7.9960   44.1120   21.7560 O.2   782  PGD782     -0.2069
     24  N1         9.5200   43.7410   23.3300 N.2   782  PGD782     -0.2485
     25  C2         9.8260   43.7800   24.6790 C.1   782  PGD782      0.2531
     26  N2        10.7610   42.8520   25.1900 N.pl3 782  PGD782     -0.0226
     27  N3         9.3100   44.7530   25.4860 N.2   782  PGD782     -0.3074
     28  C4         8.2030   45.4060   25.0350 C.2   782  PGD782      0.2300
     29  C10       -0.0750   47.2010   33.3570 C.3   782  PGD782      0.1837
     30  C11       -1.0290   46.8420   34.4870 C.3   782  PGD782      0.1762
     31  O11       -0.7900   47.7030   35.5730 O.3   782  PGD782     -0.3271
     32  C12       -2.4800   46.8990   34.0670 C.2   782  PGD782      0.0473
     33  S12       -2.9680   46.2440   32.4440 S.3   782  PGD782     -0.0526
     34  C13       -3.4440   47.2410   34.9640 C.2   782  PGD782      0.0449
     35  S13       -5.1680   47.4390   34.4690 S.3   782  PGD782     -0.0530
     36  C14       -3.0830   47.6370   36.3650 C.3   782  PGD782      0.1850
     37  N15       -3.4610   49.0140   36.6570 N.2   782  PGD782     -0.2411
     38  C16       -3.0960   49.5280   37.9500 C.2   782  PGD782      0.2467
     39  C17       -3.9230   50.3390   38.7350 C.1   782  PGD782      0.2441
     40  O17       -4.9430   50.8280   38.2850 O.2   782  PGD782     -0.2063
     41  N18       -3.4710   50.7800   39.9430 N.2   782  PGD782     -0.2474
     42  C19       -2.3870   50.1990   40.5290 C.1   782  PGD782      0.2608
     43  N19       -1.9370   50.5910   41.8130 N.pl3 782  PGD782     -0.0220
     44  N20       -1.5770   49.4120   39.7730 N.2   782  PGD782     -0.2682
     45  C21       -1.9900   48.9390   38.5730 C.1   782  PGD782      0.1293
     46  N22       -1.1650   48.0170   37.8590 N.2   782  PGD782     -0.1763
     47  C23       -1.6010   47.3350   36.6490 C.3   782  PGD782      0.2573
@<TRIPOS>BOND
     1    23    22    2
     2    22    24    2
     3    22    21    1
     4    24    25    2
     5    20    21    2
     6    20    19    1
     7    21    28    1
     8    19    18    1
     9    25    26    1
    10    25    27    2
    11    28    27    2
    12    28    18    1
    13    18    17    1
    14    16    15    1
    15    17    15    1
    16    17    12    1
    17    15    13    1
    18    12    11    1
    19    13    11    1
    20    13    14    1
    21    11    10    1
    22    10     9    1
    23     2     1    2
    24     9     1    1
    25     1     3    1
    26     1     4    1
    27     7     6    2
    28     4     6    1
    29     6     8    1
    30     6     5    1
    31    33    32    1
    32    29     5    1
    33    29    30    1
    34    32    30    1
    35    32    34    2
    36    35    34    1
    37    30    31    1
    38    34    36    1
    39    31    47    1
    40    36    47    1
    41    36    37    1
    42    47    46    1
    43    37    38    2
    44    46    45    2
    45    38    45    1
    46    38    39    1
    47    40    39    2
    48    45    44    2
    49    39    41    2
    50    44    42    2
    51    41    42    2
    52    42    43    1
