@<TRIPOS>MOLECULE
3dmt_NAD_A_1.pdb
 44 48 0 0 0
SMALL
GASTEIGER

@<TRIPOS>ATOM
      1  PA        -6.9530    3.5580   26.9540 P.3   360  NAD360      0.2189
      2  O1A       -6.9290    3.2750   28.4100 O.3   360  NAD360     -0.4371
      3  O2A       -5.7920    4.2000   26.2970 O.2   360  NAD360     -0.5170
      4  O5B       -8.3310    4.3740   26.5250 O.3   360  NAD360     -0.3112
      5  C5B       -9.5160    4.3610   27.3410 C.3   360  NAD360      0.1813
      6  C4B       -9.8640    5.7720   27.8180 C.3   360  NAD360      0.1821
      7  O4B      -11.1580    5.7000   28.4320 O.3   360  NAD360     -0.3135
      8  C3B       -8.9080    6.3600   28.8820 C.3   360  NAD360      0.2184
      9  O3B       -8.3000    7.5450   28.3340 O.3   360  NAD360     -0.2174
     10  C2B       -9.8240    6.6920   30.0820 C.3   360  NAD360      0.2570
     11  O2B       -9.5700    7.9790   30.6840 O.3   360  NAD360     -0.2130
     12  C1B      -11.2080    6.7110   29.4470 C.3   360  NAD360      0.3186
     13  N9A      -12.2720    6.2760   30.3720 N.pl3 360  NAD360     -0.1439
     14  C8A      -12.1810    5.3790   31.3670 C.3   360  NAD360      0.3377
     15  N7A      -13.3740    5.2570   31.9690 N.2   360  NAD360     -0.2095
     16  C5A      -14.2290    6.0740   31.3460 C.2   360  NAD360      0.2526
     17  C6A      -15.5850    6.3790   31.5090 C.2   360  NAD360      0.4393
     18  N6A      -16.3080    5.7990   32.4670 N.pl3 360  NAD360      0.2180
     19  N1A      -16.1520    7.2820   30.6840 N.2   360  NAD360      0.0021
     20  C2A      -15.4420    7.8790   29.7220 C.3   360  NAD360      0.5254
     21  N3A      -14.1530    7.6220   29.5350 N.2   360  NAD360     -0.0055
     22  C4A      -13.5250    6.7250   30.3290 C.2   360  NAD360      0.3518
     23  O3        -7.2010    2.1540   26.2440 O.3   360  NAD360     -0.2703
     24  PN        -7.1900    2.0170   24.6670 P.3   360  NAD360      0.2189
     25  O1N       -7.6550    3.2780   24.0320 O.2   360  NAD360     -0.5170
     26  O2N       -5.8640    1.4550   24.2980 O.3   360  NAD360     -0.4371
     27  O5D       -8.3040    0.9040   24.4690 O.3   360  NAD360     -0.3112
     28  C5D       -9.6740    1.0970   24.8510 C.3   360  NAD360      0.1813
     29  C4D      -10.4850   -0.0870   24.3160 C.3   360  NAD360      0.1799
     30  O4D       -9.9810   -0.3200   22.9700 O.3   360  NAD360     -0.3327
     31  C3D      -10.2210   -1.3670   25.1070 C.3   360  NAD360      0.2158
     32  O3D      -11.4460   -2.0910   25.1580 O.3   360  NAD360     -0.2175
     33  C2D       -9.1910   -2.1130   24.2400 C.3   360  NAD360      0.2309
     34  O2D       -9.2860   -3.5300   24.3600 O.3   360  NAD360     -0.2158
     35  C1D       -9.6090   -1.7060   22.8360 C.3   360  NAD360      0.2263
     36  N1N       -8.4810   -1.7550   21.8800 N.pl3 360  NAD360     -0.2787
     37  C2N       -7.2310   -1.2260   22.2090 C.3   360  NAD360      0.1244
     38  C3N       -6.1970   -1.2720   21.2820 C.2   360  NAD360      0.0544
     39  C7N       -4.8210   -0.7200   21.6130 C.2   360  NAD360      0.2818
     40  O7N       -3.8380   -1.2140   21.1000 O.2   360  NAD360     -0.2670
     41  N7N       -4.7680    0.2940   22.4710 N.am  360  NAD360     -0.0839
     42  C4N       -6.4050   -1.8600   20.0440 C.2   360  NAD360      0.0033
     43  C5N       -7.6420   -2.3840   19.7140 C.2   360  NAD360      0.0157
     44  C6N       -8.6760   -2.3290   20.6270 C.2   360  NAD360      0.0633
@<TRIPOS>BOND
     1    43    42    1
     2    43    44    2
     3    42    38    2
     4    44    36    1
     5    40    39    2
     6    38    39    1
     7    38    37    1
     8    39    41   am
     9    36    37    1
    10    36    35    1
    11    35    30    1
    12    35    33    1
    13    30    29    1
    14    25    24    2
    15    33    34    1
    16    33    31    1
    17    26    24    1
    18    29    28    1
    19    29    31    1
    20    27    24    1
    21    27    28    1
    22    24    23    1
    23    31    32    1
    24    23     1    1
    25     3     1    2
    26     4     1    1
    27     4     5    1
    28     1     2    1
    29     5     6    1
    30     6     7    1
    31     6     8    1
    32     9     8    1
    33     7    12    1
    34     8    10    1
    35    12    10    1
    36    12    13    1
    37    21    20    1
    38    21    22    2
    39    20    19    1
    40    10    11    1
    41    22    13    1
    42    22    16    1
    43    13    14    1
    44    19    17    2
    45    16    17    1
    46    16    15    2
    47    14    15    1
    48    17    18    1
