@<TRIPOS>MOLECULE
3dmz_HFB_A_1.pdb
 12 12 0 0 0
SMALL
GASTEIGER

@<TRIPOS>ATOM
      1  F6        28.0870    7.7590    1.3470 F     900  HFB900     -0.1993
      2  C6        27.5130    7.5190    2.5440 C.ar  900  HFB900      0.1993
      3  C1        27.0750    6.2380    2.8740 C.ar  900  HFB900      0.1993
      4  F1        27.2230    5.2200    2.0040 F     900  HFB900     -0.1993
      5  C5        27.3480    8.5620    3.4500 C.ar  900  HFB900      0.1993
      6  F5        27.7550    9.8110    3.1500 F     900  HFB900     -0.1993
      7  C4        26.7540    8.3250    4.6760 C.ar  900  HFB900      0.1993
      8  F4        26.6100    9.3510    5.5300 F     900  HFB900     -0.1993
      9  C3        26.3190    7.0460    5.0060 C.ar  900  HFB900      0.1993
     10  F3        25.7420    6.8000    6.1940 F     900  HFB900     -0.1993
     11  C2        26.4740    6.0040    4.1050 C.ar  900  HFB900      0.1993
     12  F2        26.0480    4.7690    4.4360 F     900  HFB900     -0.1993
@<TRIPOS>BOND
     1     1     2    1
     2     4     3    1
     3     2     3   ar
     4     2     5   ar
     5     3    11   ar
     6     6     5    1
     7     5     7   ar
     8    11    12    1
     9    11     9   ar
    10     7     9   ar
    11     7     8    1
    12     9    10    1
