@<TRIPOS>MOLECULE
3dn0_F5B_A_1.pdb
 11 11 0 0 0
SMALL
GASTEIGER

@<TRIPOS>ATOM
      1  F6        28.2660    7.7580    2.2340 F     900  F5B900     -0.2016
      2  C6        27.4700    7.2760    3.1990 C.ar  900  F5B900      0.1720
      3  C1        26.9080    6.0120    3.0800 C.ar  900  F5B900      0.1970
      4  F1        27.1560    5.2510    1.9990 F     900  F5B900     -0.1993
      5  C5        27.2030    8.0560    4.3210 C.ar  900  F5B900      0.0641
      6  C4        26.3750    7.5620    5.3240 C.ar  900  F5B900      0.1720
      7  F4        26.1170    8.3170    6.4060 F     900  F5B900     -0.2016
      8  C3        25.8150    6.2950    5.2020 C.ar  900  F5B900      0.1970
      9  F3        25.0150    5.8150    6.1720 F     900  F5B900     -0.1993
     10  C2        26.0800    5.5250    4.0790 C.ar  900  F5B900      0.1991
     11  F2        25.5460    4.2980    3.9550 F     900  F5B900     -0.1993
@<TRIPOS>BOND
     1     4     3    1
     2     1     2    1
     3     3     2   ar
     4     3    10   ar
     5     2     5   ar
     6    11    10    1
     7    10     8   ar
     8     5     6   ar
     9     8     6   ar
    10     8     9    1
    11     6     7    1
