@<TRIPOS>MOLECULE
3dn1_BCF_A_1.pdb
 12 12 0 0 0
SMALL
GASTEIGER

@<TRIPOS>ATOM
      1  F6        27.7750    7.5980    1.1130 F     900  BCF900     -0.2007
      2  C6        27.2620    7.3770    2.3340 C.ar  900  BCF900      0.1824
      3  C1        27.0120    8.4550    3.1660 C.ar  900  BCF900      0.1170
      4 CL1        27.3830   10.1100    2.5830 Cl    900  BCF900     -0.0774
      5  C5        26.9770    6.0880    2.7630 C.ar  900  BCF900      0.1978
      6  F5        27.2160    5.0370    1.9600 F     900  BCF900     -0.1993
      7  C4        26.4400    5.8830    4.0260 C.ar  900  BCF900      0.1992
      8  F4        26.1640    4.6340    4.4430 F     900  BCF900     -0.1993
      9  C3        26.1930    6.9640    4.8610 C.ar  900  BCF900      0.1978
     10  F3        25.6780    6.7510    6.0850 F     900  BCF900     -0.1993
     11  C2        26.4780    8.2540    4.4300 C.ar  900  BCF900      0.1824
     12  F2        26.2420    9.3100    5.2290 F     900  BCF900     -0.2007
@<TRIPOS>BOND
     1     1     2    1
     2     6     5    1
     3     2     5   ar
     4     2     3   ar
     5     4     3    1
     6     5     7   ar
     7     3    11   ar
     8     7     8    1
     9     7     9   ar
    10    11     9   ar
    11    11    12    1
    12     9    10    1
