@<TRIPOS>MOLECULE
3dn2_BBF_A_1.pdb
 12 12 0 0 0
SMALL
GASTEIGER

@<TRIPOS>ATOM
      1  F6        27.5380    5.5200    2.3310 F     900  BBF900     -0.2011
      2  C6        27.0150    6.0700    3.4410 C.ar  900  BBF900      0.1781
      3  C1        27.4430    7.3180    3.8670 C.ar  900  BBF900      0.0940
      4 BR1        28.7570    8.2620    2.9050 Br    900  BBF900     -0.0442
      5  C5        26.0490    5.3910    4.1700 C.ar  900  BBF900      0.1975
      6  F5        25.6310    4.1780    3.7710 F     900  BBF900     -0.1993
      7  C4        25.5200    5.9640    5.3170 C.ar  900  BBF900      0.1991
      8  F4        24.5840    5.3090    6.0210 F     900  BBF900     -0.1993
      9  C3        25.9540    7.2140    5.7340 C.ar  900  BBF900      0.1975
     10  F3        25.4500    7.7770    6.8420 F     900  BBF900     -0.1993
     11  C2        26.9160    7.8920    5.0090 C.ar  900  BBF900      0.1781
     12  F2        27.3380    9.1070    5.4050 F     900  BBF900     -0.2011
@<TRIPOS>BOND
     1     1     2    1
     2     4     3    1
     3     2     3   ar
     4     2     5   ar
     5     6     5    1
     6     3    11   ar
     7     5     7   ar
     8    11    12    1
     9    11     9   ar
    10     7     9   ar
    11     7     8    1
    12     9    10    1
