@<TRIPOS>MOLECULE
3dn3_IBF_A_1.pdb
 12 12 0 0 0
SMALL
GASTEIGER

@<TRIPOS>ATOM
      1  F6        27.4870    5.5840    2.3870 F     900  IBF900     -0.2012
      2  C6        26.8950    6.1440    3.4530 C.ar  900  IBF900      0.1772
      3  C1        27.2910    7.4160    3.8360 C.ar  900  IBF900      0.0895
      4  I1        28.7760    8.4370    2.7820 I     900  IBF900     -0.0377
      5  C5        25.9050    5.4410    4.1440 C.ar  900  IBF900      0.1974
      6  F5        25.5600    4.2140    3.7370 F     900  IBF900     -0.1993
      7  C4        25.2750    5.9870    5.2470 C.ar  900  IBF900      0.1991
      8  F4        24.3210    5.3100    5.9070 F     900  IBF900     -0.1993
      9  C3        25.6640    7.3450    5.6890 C.ar  900  IBF900      0.1974
     10  F3        25.0900    7.9240    6.7520 F     900  IBF900     -0.1993
     11  C2        26.7170    8.0430    4.9210 C.ar  900  IBF900      0.1772
     12  F2        27.1190    9.2730    5.2610 F     900  IBF900     -0.2012
@<TRIPOS>BOND
     1     1     2    1
     2     4     3    1
     3     2     3   ar
     4     2     5   ar
     5     6     5    1
     6     3    11   ar
     7     5     7   ar
     8    11    12    1
     9    11     9   ar
    10     7     9   ar
    11     7     8    1
    12     9    10    1
