@<TRIPOS>MOLECULE
3dn5_NAP_A_1.pdb
 48 52 0 0 0
SMALL
GASTEIGER

@<TRIPOS>ATOM
      1  PA        21.7640   21.2840  -18.7210 P.3   500  NAP500      0.2189
      2  O1A       21.1220   20.8820  -20.0030 O.2   500  NAP500     -0.5170
      3  O2A       21.2380   22.4480  -17.9610 O.3   500  NAP500     -0.4371
      4  O5B       23.2970   21.3500  -19.0100 O.3   500  NAP500     -0.3112
      5  C5B       24.1860   21.6700  -17.9330 C.3   500  NAP500      0.1813
      6  C4B       25.6380   21.5510  -18.4820 C.3   500  NAP500      0.1820
      7  O4B       25.8310   22.5950  -19.4130 O.3   500  NAP500     -0.3136
      8  C3B       26.7580   21.7100  -17.4120 C.3   500  NAP500      0.2157
      9  O3B       27.8090   20.8280  -17.7530 O.3   500  NAP500     -0.2175
     10  C2B       27.1420   23.1750  -17.6250 C.3   500  NAP500      0.2314
     11  O2B       28.4980   23.3660  -17.2280 O.3   500  NAP500     -0.2630
     12  C1B       26.9350   23.3810  -19.1160 C.3   500  NAP500      0.3158
     13  N9A       26.6790   24.7590  -19.4200 N.pl3 500  NAP500     -0.1439
     14  C8A       25.8210   25.6670  -18.8410 C.3   500  NAP500      0.3377
     15  N7A       25.7260   26.8300  -19.4390 N.2   500  NAP500     -0.2095
     16  C5A       26.5720   26.7060  -20.5220 C.2   500  NAP500      0.2526
     17  C6A       26.8720   27.6950  -21.4960 C.2   500  NAP500      0.4393
     18  N6A       26.3710   28.9170  -21.5930 N.pl3 500  NAP500      0.2180
     19  N1A       27.8150   27.2800  -22.4760 N.2   500  NAP500      0.0021
     20  C2A       28.3440   25.9870  -22.4150 C.3   500  NAP500      0.5254
     21  N3A       28.0700   25.0500  -21.4640 N.2   500  NAP500     -0.0055
     22  C4A       27.1560   25.4530  -20.4870 C.2   500  NAP500      0.3518
     23  O3        21.7390   19.9840  -17.7950 O.3   500  NAP500     -0.2703
     24  PN        21.0010   19.4080  -16.4850 P.3   500  NAP500      0.2189
     25  O1N       21.6950   19.8440  -15.2550 O.3   500  NAP500     -0.4371
     26  O2N       20.7830   17.9390  -16.7880 O.2   500  NAP500     -0.5170
     27  O5D       19.5150   20.0470  -16.5200 O.3   500  NAP500     -0.3112
     28  C5D       19.2170   21.3820  -15.9340 C.3   500  NAP500      0.1813
     29  C4D       18.5930   21.1660  -14.5500 C.3   500  NAP500      0.1799
     30  O4D       17.3340   20.4250  -14.7120 O.3   500  NAP500     -0.3327
     31  C3D       19.3590   20.2690  -13.5510 C.3   500  NAP500      0.2158
     32  O3D       20.5020   20.8480  -12.9600 O.3   500  NAP500     -0.2175
     33  C2D       18.2010   19.9870  -12.5480 C.3   500  NAP500      0.2309
     34  O2D       18.0130   21.1330  -11.7560 O.3   500  NAP500     -0.2158
     35  C1D       17.0110   19.7540  -13.4660 C.3   500  NAP500      0.2263
     36  N1N       16.8180   18.2850  -13.8400 N.pl3 500  NAP500     -0.2787
     37  C2N       15.7140   17.6680  -13.2830 C.3   500  NAP500      0.1244
     38  C3N       15.5820   16.2830  -13.5640 C.2   500  NAP500      0.0544
     39  C7N       14.3660   15.5170  -12.9870 C.2   500  NAP500      0.2818
     40  O7N       14.3690   14.3080  -13.1770 O.2   500  NAP500     -0.2670
     41  N7N       13.3570   16.3560  -12.7260 N.am  500  NAP500     -0.0839
     42  C4N       16.5290   15.5800  -14.3650 C.2   500  NAP500      0.0033
     43  C5N       17.6450   16.2660  -14.9110 C.2   500  NAP500      0.0157
     44  C6N       17.7840   17.6320  -14.6540 C.2   500  NAP500      0.0633
     45  P2B       29.0210   24.1760  -15.9150 P.3   500  NAP500      0.5328
     46  O1X       29.1550   25.6690  -16.3560 O.2   500  NAP500     -0.2224
     47  O2X       27.9850   24.0000  -14.8450 O.3   500  NAP500     -0.1145
     48  O3X       30.3430   23.4810  -15.6430 O.3   500  NAP500     -0.1145
@<TRIPOS>BOND
     1    19    20    1
     2    19    17    2
     3    20    21    1
     4    18    17    1
     5    17    16    1
     6    21    22    2
     7    16    22    1
     8    16    15    2
     9    22    13    1
    10     2     1    2
    11    15    14    1
    12    13    12    1
    13    13    14    1
    14     7    12    1
    15     7     6    1
    16    12    10    1
    17     4     1    1
    18     4     5    1
    19     1     3    1
    20     1    23    1
    21     6     5    1
    22     6     8    1
    23    23    24    1
    24     9     8    1
    25    10     8    1
    26    10    11    1
    27    11    45    1
    28    26    24    2
    29    27    24    1
    30    27    28    1
    31    24    25    1
    32    46    45    2
    33    28    29    1
    34    45    48    1
    35    45    47    1
    36    43    44    2
    37    43    42    1
    38    30    29    1
    39    30    35    1
    40    44    36    1
    41    29    31    1
    42    42    38    2
    43    36    35    1
    44    36    37    1
    45    38    37    1
    46    38    39    1
    47    31    32    1
    48    31    33    1
    49    35    33    1
    50    40    39    2
    51    39    41   am
    52    33    34    1
