@<TRIPOS>MOLECULE
3dn5_53N_A_1.pdb
 19 20 0 0 0
SMALL
GASTEIGER

@<TRIPOS>ATOM
      1  C5        15.3750    7.4510  -13.7370 C.ar  600  53N600      0.0246
      2  C6        15.9500    8.1770  -12.6970 C.ar  600  53N600      0.0076
      3  C7        17.0780    9.1620  -12.9700 C.ar  600  53N600      0.0292
      4  C10       19.4640   12.2880  -12.3910 C.3   600  53N600      0.0448
      5  C15       18.6870   10.4930  -14.0300 C.ar  600  53N600      0.0027
      6  C17       15.4540    7.9870  -11.3970 C.ar  600  53N600      0.0006
      7  C1        14.3290    6.5550  -13.4950 C.ar  600  53N600      0.1429
      8  N2        13.7070    5.9240  -14.5640 N.pl3 600  53N600      0.0577
      9  O3        12.6430    5.3030  -14.3610 O.2   600  53N600     -0.1261
     10  O4        14.3370    6.0770  -15.6340 O.2   600  53N600     -0.1261
     11  S8        17.5270   10.3640  -11.7250 S.2   600  53N600     -0.0913
     12  C9        18.6730   11.1050  -12.8620 C.ar  600  53N600      0.0078
     13  C11       18.8280   13.6860  -12.4850 C.3   600  53N600      0.1193
     14  C12       17.8940   13.8870  -11.3120 C.2   600  53N600      0.3652
     15  O13       17.0600   14.9150  -11.3730 O.co2 600  53N600     -0.2456
     16  O14       17.9400   13.1050  -10.3660 O.co2 600  53N600     -0.2456
     17  C16       17.7590    9.3500  -14.1180 C.ar  600  53N600      0.0067
     18  C18       14.4170    7.1020  -11.1780 C.ar  600  53N600      0.0017
     19  C19       13.8130    6.3580  -12.2010 C.ar  600  53N600      0.0241
@<TRIPOS>BOND
     1    10     8    2
     2     8     9    2
     3     8     7    1
     4    17     5   ar
     5    17     3   ar
     6     5    12   ar
     7     1     7   ar
     8     1     2   ar
     9     7    19   ar
    10     3     2    1
    11     3    11   ar
    12    12     4    1
    13    12    11   ar
    14     2     6   ar
    15    13     4    1
    16    13    14    1
    17    19    18   ar
    18     6    18   ar
    19    15    14   ar
    20    14    16   ar
