@<TRIPOS>MOLECULE
3dn6_F3B_A_1.pdb
 12 12 0 0 0
SMALL
GASTEIGER

@<TRIPOS>ATOM
      1 CL6        27.9090    9.8170    3.3240 Cl    900  F3B900     -0.0775
      2  C6        27.3400    8.1430    3.5940 C.ar  900  F3B900      0.1142
      3  C1        26.6540    7.8350    4.7560 C.ar  900  F3B900      0.1655
      4  F1        26.4210    8.7900    5.6710 F     900  F3B900     -0.2022
      5  C5        27.5870    7.1630    2.6460 C.ar  900  F3B900      0.1655
      6  F5        28.2520    7.4720    1.5200 F     900  F3B900     -0.2022
      7  C4        27.1380    5.8690    2.8640 C.ar  900  F3B900      0.1142
      8 CL4        27.4380    4.5780    1.6610 Cl    900  F3B900     -0.0775
      9  C3        26.4500    5.5590    4.0230 C.ar  900  F3B900      0.1655
     10  F3        26.0230    4.3020    4.2300 F     900  F3B900     -0.2022
     11  C2        26.2100    6.5400    4.9680 C.ar  900  F3B900      0.1142
     12 CL2        25.3240    6.1280    6.4650 Cl    900  F3B900     -0.0775
@<TRIPOS>BOND
     1     6     5    1
     2     8     7    1
     3     5     7   ar
     4     5     2   ar
     5     7     9   ar
     6     1     2    1
     7     2     3   ar
     8     9    10    1
     9     9    11   ar
    10     3    11   ar
    11     3     4    1
    12    11    12    1
