@<TRIPOS>MOLECULE
3dn8_IBF_A_1.pdb
 12 12 0 0 0
SMALL
GASTEIGER

@<TRIPOS>ATOM
      1  F6        27.5120    5.4680    2.4520 F     900  IBF900     -0.2012
      2  C6        26.9040    6.0640    3.4950 C.ar  900  IBF900      0.1772
      3  C1        27.2790    7.3540    3.8690 C.ar  900  IBF900      0.0895
      4  I1        28.7720    8.3910    2.8370 I     900  IBF900     -0.0377
      5  C5        25.9110    5.3640    4.1800 C.ar  900  IBF900      0.1974
      6  F5        25.5910    4.1190    3.7830 F     900  IBF900     -0.1993
      7  C4        25.2520    5.9290    5.2620 C.ar  900  IBF900      0.1991
      8  F4        24.2920    5.2600    5.9190 F     900  IBF900     -0.1993
      9  C3        25.6140    7.2990    5.6910 C.ar  900  IBF900      0.1974
     10  F3        25.0130    7.8940    6.7320 F     900  IBF900     -0.1993
     11  C2        26.6710    7.9990    4.9320 C.ar  900  IBF900      0.1772
     12  F2        27.0380    9.2430    5.2770 F     900  IBF900     -0.2012
@<TRIPOS>BOND
     1     1     2    1
     2     4     3    1
     3     2     3   ar
     4     2     5   ar
     5     6     5    1
     6     3    11   ar
     7     5     7   ar
     8    11    12    1
     9    11     9   ar
    10     7     9   ar
    11     7     8    1
    12     9    10    1
