@<TRIPOS>MOLECULE
3dnd_LL2_A_1.pdb
 13 14 0 0 0
SMALL
GASTEIGER

@<TRIPOS>ATOM
      1  C8         8.9100    9.9830    3.0430 C.ar  351  LL2351     -0.0039
      2  C11        9.6680    8.9910    2.3900 C.ar  351  LL2351     -0.0003
      3  C13       10.1440    7.8730    3.0960 C.ar  351  LL2351     -0.0000
      4  C12        9.8370    7.8050    4.4640 C.ar  351  LL2351     -0.0003
      5  C9         9.0870    8.7970    5.1390 C.ar  351  LL2351     -0.0039
      6  C5         8.6130    9.9080    4.4230 C.ar  351  LL2351     -0.0172
      7  C2         7.7840   11.0150    5.1230 C.3   351  LL2351      0.0609
      8  C1         6.2950   10.8290    4.7470 C.ar  351  LL2351      0.0335
      9  S4         5.8850   10.8230    3.1450 S.2   351  LL2351     -0.0524
     10  C3         5.1430   10.6460    5.4710 C.ar  351  LL2351      0.1034
     11  N6         3.9720   10.4870    4.7480 N.ar  351  LL2351     -0.2202
     12  C7         4.1890   10.5520    3.3970 C.ar  351  LL2351      0.2003
     13  N10        3.2970   10.4440    2.4100 N.pl3 351  LL2351     -0.0998
@<TRIPOS>BOND
     1     2     1   ar
     2     2     3   ar
     3    13    12    1
     4     1     6   ar
     5     3     4   ar
     6     9    12   ar
     7     9     8   ar
     8    12    11   ar
     9     6     7    1
    10     6     5   ar
    11     4     5   ar
    12     8     7    1
    13     8    10   ar
    14    11    10   ar
