@<TRIPOS>MOLECULE
3dne_LL1_A_1.pdb
 15 17 0 0 0
SMALL
GASTEIGER

@<TRIPOS>ATOM
      1  C4         8.1770   10.4530    3.5880 C.3   351  LL1351      0.1058
      2  C5         8.4900   10.9060    4.8980 C.2   351  LL1351     -0.0144
      3  C6         9.8320   11.1480    5.3000 C.2   351  LL1351     -0.0038
      4  C1        10.8840   10.9750    4.3630 C.2   351  LL1351      0.0010
      5  C2        10.5770   10.5050    3.0310 C.2   351  LL1351      0.0172
      6  C3         9.2460   10.2780    2.6400 C.2   351  LL1351      0.0899
      7  N11        8.6750    9.9220    1.4520 N.2   351  LL1351     -0.1520
      8  N12        7.4230    9.8510    1.6070 N.2   351  LL1351     -0.1520
      9  C13        6.9890   10.1560    2.8550 C.2   351  LL1351      0.0899
     10  C14        5.6030   10.1850    3.2950 C.ar  351  LL1351      0.0191
     11  C15        4.5770   10.2690    2.3320 C.ar  351  LL1351      0.0219
     12  C16        3.2090   10.2580    2.6860 C.ar  351  LL1351      0.0989
     13  N17        2.9070   10.2090    4.0030 N.ar  351  LL1351     -0.2423
     14  C18        3.7950   10.1120    5.0010 C.ar  351  LL1351      0.0989
     15  C19        5.2030   10.0990    4.6690 C.ar  351  LL1351      0.0219
@<TRIPOS>BOND
     1     7     8    1
     2     7     6    2
     3     8     9    2
     4    11    12   ar
     5    11    10   ar
     6     6     5    1
     7     6     1    1
     8    12    13   ar
     9     9    10    1
    10     9     1    1
    11     5     4    2
    12    10    15   ar
    13     1     2    1
    14    13    14   ar
    15     4     3    1
    16    15    14   ar
    17     2     3    2
