@<TRIPOS>MOLECULE
3dng_AXA_A_1.pdb
 33 37 0 0 0
SMALL
GASTEIGER

@<TRIPOS>ATOM
      1  CAH        9.2080   -4.3840   31.6160 C.2     1  AXA1        0.0297
      2  CAY        9.0470   -3.0500   31.2610 C.2     1  AXA1        0.1770
      3  N1         8.8550   -2.0900   32.2610 N.2     1  AXA1       -0.3304
      4  CAV        8.7630   -0.7460   31.8870 C.1     1  AXA1        0.2262
      5  OAC        8.5490    0.1250   32.7290 O.2     1  AXA1       -0.2103
      6  CAM        8.9080   -0.4250   30.5420 C.3     1  AXA1        0.3391
      7  OAS        8.6610   -1.4260   29.5420 O.2     1  AXA1       -0.4552
      8  CAZ        9.0330   -2.6800   29.9200 C.2     1  AXA1        0.1665
      9  CAG        9.2260   -3.6470   28.9380 C.2     1  AXA1        0.0179
     10  CAF        9.4020   -4.9790   29.2940 C.3     1  AXA1        0.0531
     11  CAX        9.3860   -5.3520   30.6340 C.2     1  AXA1       -0.0156
     12  CAL        9.5610   -6.8180   31.0350 C.3     1  AXA1        0.1388
     13  N2         9.6780   -7.6380   29.8210 N.am    1  AXA1       -0.1868
     14  CAW       10.8340   -7.7920   29.1810 C.2     1  AXA1        0.3516
     15  OAD       11.8880   -7.2450   29.5020 O.2     1  AXA1       -0.2548
     16  CBB       10.7490   -8.6630   27.9280 C.1     1  AXA1        0.2074
     17  N3         9.5640   -9.1650   27.5570 N.2     1  AXA1       -0.3286
     18  N4        11.8400   -8.7350   27.0560 N.2     1  AXA1       -0.2616
     19  CBD       11.6630   -9.2950   25.7860 C.1     1  AXA1        0.2170
     20  OAE       12.6230   -9.3560   25.0190 O.2     1  AXA1       -0.2085
     21  CBF       10.4140   -9.7760   25.4050 C.2     1  AXA1        0.1247
     22  CBC       10.0270  -10.2690   24.1580 C.2     1  AXA1       -0.0190
     23  CBE        9.3840   -9.7010   26.3420 C.2     1  AXA1        0.1811
     24  SAT        7.9740  -10.3020   25.5820 S.3     1  AXA1       -0.0774
     25  CBA        8.6810  -10.6240   24.0550 C.3     1  AXA1        0.0734
     26  CAJ        8.0040  -11.1580   22.7910 C.3     1  AXA1        0.0153
     27  CAI        8.8500  -10.8460   21.5560 C.3     1  AXA1        0.0016
     28  CAK       10.2930  -11.2640   21.8420 C.3     1  AXA1        0.0046
     29  CBG       10.9070  -10.3530   22.9060 C.3     1  AXA1        0.0292
     30  CAN       11.0690   -8.9430   22.3320 C.3     1  AXA1        0.0926
     31  CAU       11.9610   -8.9220   21.0880 C.2     1  AXA1        0.2611
     32  OAB       11.6270   -8.2970   20.0830 O.2     1  AXA1       -0.2716
     33  N5        13.0970   -9.6060   21.1900 N.am    1  AXA1       -0.0878
@<TRIPOS>BOND
     1    32    31    2
     2    31    33   am
     3    31    30    1
     4    27    28    1
     5    27    26    1
     6    28    29    1
     7    30    29    1
     8    26    25    1
     9    29    22    1
    10    25    22    1
    11    25    24    1
    12    22    21    2
    13    20    19    2
    14    21    19    1
    15    21    23    1
    16    24    23    1
    17    19    18    2
    18    23    17    2
    19    18    16    2
    20    17    16    2
    21    16    14    1
    22     9    10    1
    23     9     8    2
    24    14    15    2
    25    14    13   am
    26    10    11    1
    27     7     8    1
    28     7     6    1
    29    13    12    1
    30     8     2    1
    31     6     4    1
    32    11    12    1
    33    11     1    2
    34     2     1    1
    35     2     3    2
    36     4     3    2
    37     4     5    2
