@<TRIPOS>MOLECULE
3dnt_ATP_A_1.pdb
 31 33 0 0 0
SMALL
GASTEIGER

@<TRIPOS>ATOM
      1  PG        -4.4040   12.0620   48.3560 P.3   500  ATP500      0.5373
      2  O1G       -5.8210   11.6230   48.2870 O.3   500  ATP500     -0.1143
      3  O2G       -3.5360   11.4430   47.3560 O.2   500  ATP500     -0.2221
      4  O3G       -4.3480   13.5790   48.2820 O.3   500  ATP500     -0.1143
      5  PB        -2.9320   12.6450   50.8000 P.3   500  ATP500      0.2277
      6  O1B       -1.4770   12.6360   50.6150 O.2   500  ATP500     -0.5168
      7  O2B       -3.8390   13.3630   51.6890 O.3   500  ATP500     -0.4368
      8  O3B       -3.7160   11.5890   49.8090 O.3   500  ATP500     -0.2258
      9  PA        -3.3040   10.5290   53.0940 P.3   500  ATP500      0.2189
     10  O1A       -3.5970   11.2620   54.3700 O.3   500  ATP500     -0.4371
     11  O2A       -4.4220    9.8050   52.5150 O.2   500  ATP500     -0.5170
     12  O3A       -2.6170   11.4660   51.8690 O.3   500  ATP500     -0.2700
     13  O5'       -2.0980    9.5820   53.4610 O.3   500  ATP500     -0.3112
     14  C5'       -1.4020    8.7800   52.4690 C.3   500  ATP500      0.1813
     15  C4'       -1.6530    7.2860   52.6040 C.3   500  ATP500      0.1821
     16  O4'       -0.9880    6.7640   53.7870 O.3   500  ATP500     -0.3135
     17  C3'       -3.1030    6.8060   52.7250 C.3   500  ATP500      0.2184
     18  O3'       -3.5620    6.5010   51.3910 O.3   500  ATP500     -0.2174
     19  C2'       -3.0000    5.6310   53.6770 C.3   500  ATP500      0.2570
     20  O2'       -2.7460    4.4200   52.9960 O.3   500  ATP500     -0.2130
     21  C1'       -1.8480    5.9300   54.5970 C.3   500  ATP500      0.3186
     22  N9        -2.1270    6.6630   55.8760 N.pl3 500  ATP500     -0.1439
     23  C8        -2.5890    7.9540   56.1000 C.3   500  ATP500      0.3377
     24  N7        -2.7000    8.2910   57.3520 N.2   500  ATP500     -0.2095
     25  C5        -2.2780    7.1350   58.0100 C.2   500  ATP500      0.2526
     26  C6        -2.1270    6.8020   59.4060 C.2   500  ATP500      0.4393
     27  N6        -2.4200    7.7100   60.3560 N.pl3 500  ATP500      0.2180
     28  N1        -1.6740    5.5410   59.7580 N.2   500  ATP500      0.0021
     29  C2        -1.3740    4.6250   58.7900 C.3   500  ATP500      0.5254
     30  N3        -1.4680    4.8210   57.4230 N.2   500  ATP500     -0.0055
     31  C4        -1.9340    6.1260   57.1120 C.2   500  ATP500      0.3518
@<TRIPOS>BOND
     1     3     1    2
     2     4     1    1
     3     2     1    1
     4     1     8    1
     5     8     5    1
     6     6     5    2
     7     5     7    1
     8     5    12    1
     9    18    17    1
    10    12     9    1
    11    14    15    1
    12    14    13    1
    13    11     9    2
    14    15    17    1
    15    15    16    1
    16    17    19    1
    17    20    19    1
    18     9    13    1
    19     9    10    1
    20    19    21    1
    21    16    21    1
    22    21    22    1
    23    22    23    1
    24    22    31    1
    25    23    24    1
    26    31    30    2
    27    31    25    1
    28    24    25    2
    29    30    29    1
    30    25    26    1
    31    29    28    1
    32    26    28    2
    33    26    27    1
