@<TRIPOS>MOLECULE
3dnz_LYS_A_1.pdb
 10 9 0 0 0
SMALL
GASTEIGER

@<TRIPOS>ATOM
      1  N         37.5110   39.6630   60.4910 N.3   1002  LYS1002    -0.1208
      2  CA        38.6690   38.8200   60.1380 C.3   1002  LYS1002     0.1943
      3  C         38.3020   37.7430   59.1220 C.2   1002  LYS1002     0.3819
      4  O         37.1100   37.5390   58.8280 O.co2 1002  LYS1002    -0.2441
      5  CB        39.2950   38.1800   61.3850 C.3   1002  LYS1002     0.0307
      6  CG        38.4100   37.1340   62.0850 C.3   1002  LYS1002     0.0036
      7  CD        39.0780   36.5030   63.3080 C.3   1002  LYS1002     0.0206
      8  CE        40.2160   35.5510   62.9490 C.3   1002  LYS1002     0.1093
      9  NZ        40.9580   35.0570   64.1660 N.3   1002  LYS1002    -0.1314
     10  OXT       39.1880   37.0620   58.5850 O.co2 1002  LYS1002    -0.2441
@<TRIPOS>BOND
     1    10     3   ar
     2     4     3   ar
     3     3     2    1
     4     2     1    1
     5     2     5    1
     6     5     6    1
     7     6     7    1
     8     8     7    1
     9     8     9    1
