@<TRIPOS>MOLECULE
3do0_LYS_A_1.pdb
 10 9 0 0 0
SMALL
GASTEIGER

@<TRIPOS>ATOM
      1  N         37.7920   39.8610   60.6530 N.3   1002  LYS1002    -0.1208
      2  CA        38.9470   38.9820   60.4550 C.3   1002  LYS1002     0.1943
      3  C         38.6270   37.9970   59.3320 C.2   1002  LYS1002     0.3819
      4  O         37.4520   37.7750   58.9990 O.co2 1002  LYS1002    -0.2441
      5  CB        39.2550   38.2080   61.7420 C.3   1002  LYS1002     0.0307
      6  CG        37.9900   37.8840   62.5330 C.3   1002  LYS1002     0.0036
      7  CD        38.1560   36.7220   63.4590 C.3   1002  LYS1002     0.0206
      8  CE        38.9660   35.6280   62.8060 C.3   1002  LYS1002     0.1093
      9  NZ        38.4820   34.2940   63.2630 N.3   1002  LYS1002    -0.1314
     10  OXT       39.5130   37.3960   58.7250 O.co2 1002  LYS1002    -0.2441
@<TRIPOS>BOND
     1    10     3   ar
     2     4     3   ar
     3     3     2    1
     4     2     1    1
     5     2     5    1
     6     5     6    1
     7     6     7    1
     8     8     9    1
     9     8     7    1
