@<TRIPOS>MOLECULE
3do1_LYS_A_1.pdb
 10 9 0 0 0
SMALL
GASTEIGER

@<TRIPOS>ATOM
      1  N         37.6340   39.8010   60.5440 N.3   1002  LYS1002    -0.1208
      2  CA        38.7980   38.9260   60.3500 C.3   1002  LYS1002     0.1943
      3  C         38.5020   37.8890   59.2630 C.2   1002  LYS1002     0.3819
      4  O         37.3420   37.6860   58.8600 O.co2 1002  LYS1002    -0.2441
      5  CB        39.1550   38.2130   61.6620 C.3   1002  LYS1002     0.0307
      6  CG        37.9150   37.6780   62.3930 C.3   1002  LYS1002     0.0036
      7  CD        38.1980   36.5830   63.3810 C.3   1002  LYS1002     0.0206
      8  CE        38.8520   35.3830   62.7190 C.3   1002  LYS1002     0.1093
      9  NZ        38.4680   34.1290   63.4220 N.3   1002  LYS1002    -0.1314
     10  OXT       39.4070   37.2250   58.7500 O.co2 1002  LYS1002    -0.2441
@<TRIPOS>BOND
     1    10     3   ar
     2     4     3   ar
     3     3     2    1
     4     2     1    1
     5     2     5    1
     6     5     6    1
     7     6     7    1
     8     8     7    1
     9     8     9    1
