@<TRIPOS>MOLECULE
3do2_LYS_A_1.pdb
 10 9 0 0 0
SMALL
GASTEIGER

@<TRIPOS>ATOM
      1  N         37.5740   39.6370   60.5220 N.3   1002  LYS1002    -0.1208
      2  CA        38.7370   38.7870   60.2350 C.3   1002  LYS1002     0.1943
      3  C         38.3730   37.7060   59.2200 C.2   1002  LYS1002     0.3819
      4  O         37.1910   37.5150   58.9040 O.co2 1002  LYS1002    -0.2441
      5  CB        39.2750   38.1380   61.5150 C.3   1002  LYS1002     0.0307
      6  CG        38.2900   37.1870   62.1930 C.3   1002  LYS1002     0.0036
      7  CD        38.9190   36.4570   63.3730 C.3   1002  LYS1002     0.0206
      8  CE        40.1430   35.6430   62.9610 C.3   1002  LYS1002     0.1093
      9  NZ        40.9310   35.1440   64.1560 N.3   1002  LYS1002    -0.1314
     10  OXT       39.2430   36.9990   58.6950 O.co2 1002  LYS1002    -0.2441
@<TRIPOS>BOND
     1    10     3   ar
     2     4     3   ar
     3     3     2    1
     4     2     1    1
     5     2     5    1
     6     5     6    1
     7     6     7    1
     8     8     7    1
     9     8     9    1
