@<TRIPOS>MOLECULE
3do3_BMA_A_1.pdb
 11 11 0 0 0
SMALL
GASTEIGER

@<TRIPOS>ATOM
      1  C1         4.7170   31.5980   11.1260 C.3     3  BMA3        0.1777
      2  C2         4.6240   33.1220   11.2310 C.3     3  BMA3        0.2141
      3  C3         5.5580   33.6530   12.3350 C.3     3  BMA3        0.2173
      4  C4         5.3300   32.9170   13.6380 C.3     3  BMA3        0.2142
      5  C5         5.4530   31.4290   13.3980 C.3     3  BMA3        0.1810
      6  C6         5.2110   30.6290   14.6560 C.3     3  BMA3        0.2141
      7  O2         3.2850   33.4850   11.5190 O.3     3  BMA3       -0.2176
      8  O3         5.3280   35.0520   12.5580 O.3     3  BMA3       -0.2175
      9  O4         6.2980   33.3280   14.5780 O.3     3  BMA3       -0.2176
     10  O5         4.4800   31.0120   12.4100 O.3     3  BMA3       -0.3481
     11  O6         5.1360   29.2360   14.3120 O.3     3  BMA3       -0.2176
@<TRIPOS>BOND
     1     1     2    1
     2     1    10    1
     3     2     7    1
     4     2     3    1
     5     3     8    1
     6     3     4    1
     7    10     5    1
     8     5     4    1
     9     5     6    1
    10     4     9    1
    11    11     6    1
