@<TRIPOS>MOLECULE
3do3_GAL_A_1.pdb
 11 11 0 0 0
SMALL
GASTEIGER

@<TRIPOS>ATOM
      1  C1        10.7730   23.9120   19.4900 C.3     7  GAL7        0.1777
      2  C2        11.9580   24.3230   20.3880 C.3     7  GAL7        0.2141
      3  C3        12.5140   23.1020   21.1350 C.3     7  GAL7        0.2173
      4  C4        11.3880   22.3640   21.8820 C.3     7  GAL7        0.2142
      5  C5        10.2360   22.0500   20.9090 C.3     7  GAL7        0.1810
      6  C6         9.0380   21.3960   21.5850 C.3     7  GAL7        0.2141
      7  O2        12.9890   24.9110   19.5990 O.3     7  GAL7       -0.2176
      8  O3        13.5230   23.5130   22.0510 O.3     7  GAL7       -0.2175
      9  O4        10.9140   23.1550   22.9650 O.3     7  GAL7       -0.2176
     10  O5         9.7630   23.2670   20.2820 O.3     7  GAL7       -0.3481
     11  O6         8.8530   20.0590   21.1360 O.3     7  GAL7       -0.2176
@<TRIPOS>BOND
     1     1    10    1
     2     1     2    1
     3     7     2    1
     4    10     5    1
     5     2     3    1
     6     5     6    1
     7     5     4    1
     8     3     4    1
     9     3     8    1
    10    11     6    1
    11     4     9    1
