@<TRIPOS>MOLECULE
3doc_NAD_A_1.pdb
 44 48 0 0 0
SMALL
GASTEIGER

@<TRIPOS>ATOM
      1  PA        23.9920    5.1410   19.2460 P.3   901  NAD901      0.2189
      2  O1A       22.7350    5.7930   19.6810 O.2   901  NAD901     -0.5170
      3  O2A       24.1170    3.7720   19.8070 O.3   901  NAD901     -0.4371
      4  O5B       25.2670    6.0440   19.6280 O.3   901  NAD901     -0.3112
      5  C5B       25.1680    7.4210   19.9100 C.3   901  NAD901      0.1813
      6  C4B       26.1020    7.6690   21.0910 C.3   901  NAD901      0.1821
      7  O4B       26.6880    8.9640   21.0600 O.3   901  NAD901     -0.3135
      8  C3B       25.3650    7.5050   22.4150 C.3   901  NAD901      0.2184
      9  O3B       26.1160    6.6650   23.2570 O.3   901  NAD901     -0.2174
     10  C2B       25.3180    8.9060   22.9950 C.3   901  NAD901      0.2570
     11  O2B       25.4190    8.8650   24.4010 O.3   901  NAD901     -0.2130
     12  C1B       26.4910    9.6130   22.3050 C.3   901  NAD901      0.3186
     13  N9A       26.2300   11.0420   22.0350 N.pl3 901  NAD901     -0.1439
     14  C8A       25.0720   11.6270   21.5730 C.3   901  NAD901      0.3377
     15  N7A       25.2750   12.9630   21.4640 N.2   901  NAD901     -0.2095
     16  C5A       26.5470   13.2390   21.8450 C.2   901  NAD901      0.2526
     17  C6A       27.2750   14.4260   21.9270 C.2   901  NAD901      0.4393
     18  N6A       26.6360   15.5900   21.9730 N.pl3 901  NAD901      0.2180
     19  N1A       28.5880   14.3710   22.3620 N.2   901  NAD901      0.0021
     20  C2A       29.1720   13.1650   22.7110 C.3   901  NAD901      0.5254
     21  N3A       28.4430   11.9940   22.6260 N.2   901  NAD901     -0.0055
     22  C4A       27.1560   12.0370   22.2020 C.2   901  NAD901      0.3518
     23  O3        24.1040    5.1330   17.6330 O.3   901  NAD901     -0.2703
     24  PN        25.0110    4.0710   16.8230 P.3   901  NAD901      0.2189
     25  O1N       24.1610    2.8980   16.4890 O.2   901  NAD901     -0.5170
     26  O2N       26.3210    3.8900   17.5190 O.3   901  NAD901     -0.4371
     27  O5D       25.2890    4.8510   15.4280 O.3   901  NAD901     -0.3112
     28  C5D       26.0700    6.0250   15.4200 C.3   901  NAD901      0.1813
     29  C4D       26.2710    6.4830   13.9760 C.3   901  NAD901      0.1799
     30  O4D       26.8050    5.4080   13.2190 O.3   901  NAD901     -0.3327
     31  C3D       24.9430    6.8550   13.3220 C.3   901  NAD901      0.2158
     32  O3D       25.1220    7.9860   12.4920 O.3   901  NAD901     -0.2175
     33  C2D       24.5970    5.6320   12.4970 C.3   901  NAD901      0.2309
     34  O2D       23.8300    5.9430   11.3520 O.3   901  NAD901     -0.2158
     35  C1D       25.9740    5.1400   12.1050 C.3   901  NAD901      0.2263
     36  N1N       25.9340    3.7030   11.7630 N.pl3 901  NAD901     -0.2787
     37  C2N       25.5130    2.8240   12.7170 C.3   901  NAD901      0.1244
     38  C3N       25.4620    1.4620   12.4340 C.2   901  NAD901      0.0544
     39  C7N       24.7890    0.4920   13.3570 C.2   901  NAD901      0.2818
     40  O7N       24.4850   -0.7800   12.8250 O.2   901  NAD901     -0.2670
     41  N7N       24.5060    0.8390   14.6170 N.am  901  NAD901     -0.0839
     42  C4N       25.8270    1.0050   11.1740 C.2   901  NAD901      0.0033
     43  C5N       26.2470    1.9060   10.1990 C.2   901  NAD901      0.0157
     44  C6N       26.2960    3.2630   10.5140 C.2   901  NAD901      0.0633
@<TRIPOS>BOND
     1    43    44    2
     2    43    42    1
     3    44    36    1
     4    42    38    2
     5    34    33    1
     6    36    35    1
     7    36    37    1
     8    35    33    1
     9    35    30    1
    10    38    37    1
    11    38    39    1
    12    32    31    1
    13    33    31    1
    14    40    39    2
    15    30    29    1
    16    31    29    1
    17    39    41   am
    18    29    28    1
    19    28    27    1
    20    27    24    1
    21    25    24    2
    22    24    26    1
    23    24    23    1
    24    23     1    1
    25     1     4    1
    26     1     2    2
    27     1     3    1
    28     4     5    1
    29     5     6    1
    30     7     6    1
    31     7    12    1
    32     6     8    1
    33    15    14    1
    34    15    16    2
    35    14    13    1
    36    16    17    1
    37    16    22    1
    38    17    18    1
    39    17    19    2
    40    13    22    1
    41    13    12    1
    42    22    21    2
    43    12    10    1
    44    19    20    1
    45     8    10    1
    46     8     9    1
    47    21    20    1
    48    10    11    1
