@<TRIPOS>MOLECULE
3dod_PLP_A_1.pdb
 15 15 0 0 0
SMALL
GASTEIGER

@<TRIPOS>ATOM
      1  N1        19.5570   -3.3910   35.1880 N.ar  501  PLP501     -0.2452
      2  C2        19.4700   -2.5930   34.0720 C.ar  501  PLP501      0.0978
      3  C2A       18.2390   -2.6670   33.2150 C.3   501  PLP501      0.0555
      4  C3        20.5210   -1.7300   33.7570 C.ar  501  PLP501      0.2049
      5  O3        20.4260   -0.9310   32.6410 O.3   501  PLP501     -0.2857
      6  C4        21.6580   -1.6780   34.5730 C.ar  501  PLP501      0.0182
      7  C4A       22.6160   -0.5340   34.4190 C.3   501  PLP501      0.0342
      8  C5        21.7410   -2.4970   35.7090 C.ar  501  PLP501      0.0261
      9  C6        20.6760   -3.3470   35.9980 C.ar  501  PLP501      0.0965
     10  C5A       22.9580   -2.5180   36.6300 C.3   501  PLP501      0.1815
     11  O4P       23.2350   -1.3040   37.3150 O.3   501  PLP501     -0.2653
     12  P         24.7470   -0.9690   37.7850 P.3   501  PLP501      0.5329
     13  O1P       25.6740   -0.9170   36.6000 O.2   501  PLP501     -0.2224
     14  O2P       25.2480   -2.0360   38.7620 O.3   501  PLP501     -0.1145
     15  O3P       24.7550    0.3510   38.5220 O.3   501  PLP501     -0.1145
@<TRIPOS>BOND
     1     5     4    1
     2     3     2    1
     3     4     2   ar
     4     4     6   ar
     5     2     1   ar
     6     7     6    1
     7     6     8   ar
     8     1     9   ar
     9     8     9   ar
    10     8    10    1
    11    13    12    2
    12    10    11    1
    13    11    12    1
    14    12    15    1
    15    12    14    1
