@<TRIPOS>MOLECULE
3doe_GTP_A_1.pdb
 32 34 0 0 0
SMALL
GASTEIGER

@<TRIPOS>ATOM
      1  PG        29.0810  -24.1970   36.4510 P.3   201  GTP201      0.5373
      2  O1G       28.3480  -25.4810   36.7640 O.3   201  GTP201     -0.1143
      3  O2G       30.5700  -24.4090   36.5250 O.2   201  GTP201     -0.2221
      4  O3G       28.6660  -23.1350   37.4420 O.3   201  GTP201     -0.1143
      5  O3B       28.7030  -23.7270   34.9550 O.3   201  GTP201     -0.2258
      6  PB        28.9050  -22.1910   34.5010 P.3   201  GTP201      0.2277
      7  O1B       27.8830  -21.3160   35.1920 O.3   201  GTP201     -0.4368
      8  O2B       30.3200  -21.7100   34.7350 O.2   201  GTP201     -0.5168
      9  O3A       28.5560  -22.2500   32.9370 O.3   201  GTP201     -0.2700
     10  PA        29.6640  -22.6350   31.8410 P.3   201  GTP201      0.2189
     11  O1A       30.6200  -21.4780   31.6450 O.2   201  GTP201     -0.5170
     12  O2A       30.3910  -23.9120   32.2180 O.3   201  GTP201     -0.4371
     13  O5'       28.7590  -22.8510   30.5300 O.3   201  GTP201     -0.3112
     14  C5'       27.9030  -23.9770   30.4260 C.3   201  GTP201      0.1813
     15  C4'       27.6090  -24.2910   28.9580 C.3   201  GTP201      0.1799
     16  O4'       26.9620  -23.1830   28.3550 O.3   201  GTP201     -0.3326
     17  C3'       28.9000  -24.5190   28.1820 C.3   201  GTP201      0.2158
     18  O3'       28.6960  -25.5080   27.1780 O.3   201  GTP201     -0.2175
     19  C2'       29.1530  -23.1730   27.5230 C.3   201  GTP201      0.2310
     20  O2'       29.9110  -23.2950   26.3490 O.3   201  GTP201     -0.2158
     21  C1'       27.7250  -22.7150   27.2550 C.3   201  GTP201      0.2293
     22  N9        27.6130  -21.2580   27.1080 N.pl3 201  GTP201     -0.2354
     23  C8        28.1990  -20.2980   27.8910 C.3   201  GTP201      0.2246
     24  N7        27.8370  -19.0850   27.4180 N.2   201  GTP201     -0.2322
     25  C5        27.0280  -19.2600   26.3550 C.2   201  GTP201      0.2182
     26  C6        26.3860  -18.3680   25.5040 C.1   201  GTP201      0.2372
     27  O6        26.5080  -17.1550   25.6740 O.2   201  GTP201     -0.2069
     28  N1        25.6060  -18.8560   24.4720 N.2   201  GTP201     -0.2485
     29  C2        25.4690  -20.2200   24.2840 C.1   201  GTP201      0.2531
     30  N2        24.7200  -20.6870   23.2910 N.pl3 201  GTP201     -0.0226
     31  N3        26.1140  -21.0990   25.1310 N.2   201  GTP201     -0.3074
     32  C4        26.8790  -20.6260   26.1480 C.2   201  GTP201      0.2300
@<TRIPOS>BOND
     1    30    29    1
     2    29    28    2
     3    29    31    2
     4    28    26    2
     5    31    32    2
     6    26    27    2
     7    26    25    1
     8    32    25    1
     9    32    22    1
    10    20    19    1
    11    25    24    2
    12    22    21    1
    13    22    23    1
    14    18    17    1
    15    21    19    1
    16    21    16    1
    17    24    23    1
    18    19    17    1
    19    17    15    1
    20    16    15    1
    21    15    14    1
    22    14    13    1
    23    13    10    1
    24    11    10    2
    25    10    12    1
    26    10     9    1
    27     9     6    1
    28     6     8    2
    29     6     5    1
    30     6     7    1
    31     5     1    1
    32     1     3    2
    33     1     2    1
    34     1     4    1
