@<TRIPOS>MOLECULE
3dof_GTP_A_1.pdb
 32 34 0 0 0
SMALL
GASTEIGER

@<TRIPOS>ATOM
      1  PG         6.2560    3.3640   11.5820 P.3   201  GTP201      0.5373
      2  O1G        4.9950    4.1920   11.5510 O.2   201  GTP201     -0.2221
      3  O2G        5.9970    2.0860   12.3390 O.3   201  GTP201     -0.1143
      4  O3G        7.3680    4.1460   12.2430 O.3   201  GTP201     -0.1143
      5  O3B        6.6690    3.0010   10.0700 O.3   201  GTP201     -0.2258
      6  PB         8.1750    2.5360    9.7530 P.3   201  GTP201      0.2277
      7  O1B        9.0450    3.7590    9.6000 O.2   201  GTP201     -0.5168
      8  O2B        8.7020    1.6150   10.8290 O.3   201  GTP201     -0.4368
      9  O3A        8.0670    1.7810    8.3360 O.3   201  GTP201     -0.2700
     10  PA         7.6570    0.2280    8.2240 P.3   201  GTP201      0.2189
     11  O1A        8.8160   -0.6420    8.6480 O.2   201  GTP201     -0.5170
     12  O2A        6.4220   -0.0750    9.0390 O.3   201  GTP201     -0.4371
     13  O5'        7.3720    0.0500    6.6490 O.3   201  GTP201     -0.3112
     14  C5'        6.4110    0.8600    6.0030 C.3   201  GTP201      0.1813
     15  C4'        6.2680    0.4830    4.5310 C.3   201  GTP201      0.1799
     16  O4'        7.4230    0.8580    3.7970 O.3   201  GTP201     -0.3326
     17  C3'        6.0790   -1.0170    4.3550 C.3   201  GTP201      0.2158
     18  O3'        4.9620   -1.2550    3.5290 O.3   201  GTP201     -0.2175
     19  C2'        7.3550   -1.4770    3.6800 C.3   201  GTP201      0.2310
     20  O2'        7.1230   -2.5270    2.7660 O.3   201  GTP201     -0.2158
     21  C1'        7.8450   -0.2190    2.9800 C.3   201  GTP201      0.2293
     22  N9         9.3090   -0.2530    2.7920 N.pl3 201  GTP201     -0.2354
     23  C8        10.2710   -0.2870    3.7680 C.3   201  GTP201      0.2246
     24  N7        11.4860   -0.3180    3.1750 N.2   201  GTP201     -0.2322
     25  C5        11.3170   -0.3060    1.8340 C.2   201  GTP201      0.2182
     26  C6        12.2160   -0.3210    0.7690 C.1   201  GTP201      0.2372
     27  O6        13.4260   -0.3560    0.9790 O.2   201  GTP201     -0.2069
     28  N1        11.7410   -0.3000   -0.5290 N.2   201  GTP201     -0.2485
     29  C2        10.3780   -0.2610   -0.7630 C.1   201  GTP201      0.2531
     30  N2         9.9160   -0.2400   -2.0090 N.pl3 201  GTP201     -0.0226
     31  N3         9.4930   -0.2460    0.2990 N.2   201  GTP201     -0.3074
     32  C4         9.9520   -0.2660    1.5780 C.2   201  GTP201      0.2300
@<TRIPOS>BOND
     1    30    29    1
     2    29    28    2
     3    29    31    2
     4    28    26    2
     5    31    32    2
     6    26    27    2
     7    26    25    1
     8    32    25    1
     9    32    22    1
    10    25    24    2
    11    20    19    1
    12    22    21    1
    13    22    23    1
    14    21    19    1
    15    21    16    1
    16    24    23    1
    17    18    17    1
    18    19    17    1
    19    16    15    1
    20    17    15    1
    21    15    14    1
    22    14    13    1
    23    13    10    1
    24    10     9    1
    25    10    11    2
    26    10    12    1
    27     9     6    1
    28     7     6    2
    29     6     5    1
    30     6     8    1
    31     5     1    1
    32     2     1    2
    33     1     4    1
    34     1     3    1
