@<TRIPOS>MOLECULE
3dog_NNN_A_1.pdb
 26 28 0 0 0
SMALL
GASTEIGER

@<TRIPOS>ATOM
      1  O1        -2.5540   20.7970  -21.6490 O.3   299  NNN299     -0.2185
      2  C15       -3.3850   20.2860  -20.5990 C.3   299  NNN299      0.2044
      3  C12       -4.7100   21.0530  -20.5460 C.3   299  NNN299      0.1385
      4  C13       -5.0110   21.5430  -19.1290 C.3   299  NNN299      0.0252
      5  C14       -6.4180   21.1290  -18.7660 C.3   299  NNN299      0.0019
      6  N2        -4.7450   22.1530  -21.4960 N.pl3 299  NNN299     -0.1508
      7  C2        -5.8830   22.3340  -22.1840 C.1   299  NNN299      0.2236
      8  N1        -6.0120   23.3920  -23.0170 N.2   299  NNN299     -0.2922
      9  C6        -7.1600   23.5810  -23.7100 C.cat 299  NNN299      0.2954
     10  N5        -8.1590   22.7090  -23.5580 N.pl3 299  NNN299     -0.1227
     11  N7        -9.4070   22.7640  -24.1960 N.2   299  NNN299     -0.1714
     12  C8       -10.1250   21.6920  -23.7510 C.2   299  NNN299      0.1001
     13  C9'       -9.3070   21.0000  -22.8640 C.3   299  NNN299      0.1128
     14  C9        -9.7400   19.7660  -22.1460 C.3   299  NNN299      0.0138
     15  C10       -9.9970   20.0640  -20.6670 C.3   299  NNN299      0.0009
     16  C11       -8.7740   18.5970  -22.3160 C.3   299  NNN299      0.0009
     17  C4        -8.0110   21.6900  -22.7430 C.2   299  NNN299      0.2050
     18  N3        -6.8960   21.4490  -22.0320 N.2   299  NNN299     -0.3137
     19  N6        -7.2950   24.6330  -24.5340 N.pl3 299  NNN299     -0.1894
     20  CA'       -6.3120   25.7000  -24.5290 C.3   299  NNN299      0.1426
     21  C1'       -5.4210   25.5290  -25.7290 C.ar  299  NNN299     -0.0005
     22  C6'       -5.9840   25.2930  -26.9880 C.ar  299  NNN299     -0.0026
     23  C5'       -5.1600   25.1230  -28.0990 C.ar  299  NNN299     -0.0003
     24  C4'       -3.7770   25.1930  -27.9480 C.ar  299  NNN299     -0.0000
     25  C3'       -3.2190   25.4250  -26.6910 C.ar  299  NNN299     -0.0003
     26  C2'       -4.0400   25.5920  -25.5740 C.ar  299  NNN299     -0.0026
@<TRIPOS>BOND
     1    23    24   ar
     2    23    22   ar
     3    24    25   ar
     4    22    21   ar
     5    25    26   ar
     6    21    26   ar
     7    21    20    1
     8    19    20    1
     9    19     9    1
    10    11    12    2
    11    11    10    1
    12    12    13    1
    13     9    10    1
    14     9     8    2
    15    10    17    1
    16     8     7    2
    17    13    17    1
    18    13    14    1
    19    17    18    2
    20    16    14    1
    21     7    18    2
    22     7     6    1
    23    14    15    1
    24     1     2    1
    25     6     3    1
    26     2     3    1
    27     3     4    1
    28     4     5    1
