@<TRIPOS>MOLECULE
3dok_GWJ_A_1.pdb
 34 36 0 0 0
SMALL
GASTEIGER

@<TRIPOS>ATOM
      1  C1        -2.2350  -34.4370   22.1850 C.ar  999  GWJ999      0.1423
      2  C2        -2.1310  -34.5960   23.6900 C.ar  999  GWJ999      0.0737
      3  C3        -1.4970  -35.6530   24.2060 C.ar  999  GWJ999      0.0176
      4  C6        -1.6790  -35.4160   21.3810 C.ar  999  GWJ999      0.0379
      5  C4        -0.9030  -36.6690   23.3630 C.ar  999  GWJ999      0.0580
      6  C5        -0.9810  -36.5840   22.0090 C.ar  999  GWJ999      0.0145
      7 CL         -0.1170  -37.9550   24.1570 Cl    999  GWJ999     -0.0822
      8  C7        -2.7300  -33.6210   24.6110 C.2   999  GWJ999      0.1985
      9  O1        -3.8350  -33.2000   24.3630 O.2   999  GWJ999     -0.2865
     10  C8        -2.0340  -33.1170   25.8440 C.ar  999  GWJ999      0.0406
     11  C9        -0.6580  -32.8300   25.7520 C.ar  999  GWJ999      0.0146
     12  C10        0.0540  -32.3820   26.8540 C.ar  999  GWJ999      0.0584
     13  C11       -0.5900  -32.1960   28.0890 C.ar  999  GWJ999      0.0217
     14  C12       -1.9700  -32.4820   28.2050 C.ar  999  GWJ999      0.0694
     15  C13       -2.7020  -32.9450   27.0860 C.ar  999  GWJ999      0.0135
     16 CL1         1.7320  -32.0610   26.6660 Cl    999  GWJ999     -0.0822
     17  O2        -2.8750  -33.3300   21.7140 O.3   999  GWJ999     -0.4655
     18  C15       -3.4850  -33.2690   20.3950 C.3   999  GWJ999      0.2915
     19  C16       -4.8610  -33.8890   20.5500 C.2   999  GWJ999      0.2901
     20  O3        -5.3550  -34.3100   19.5070 O.2   999  GWJ999     -0.2689
     21  N1        -5.4600  -33.9510   21.7900 N.am  999  GWJ999     -0.1764
     22  C17       -6.5800  -34.6290   22.2090 C.ar  999  GWJ999      0.0696
     23  C18       -7.4810  -34.0340   23.2930 C.ar  999  GWJ999     -0.0052
     24  C23       -7.1970  -32.7010   23.9470 C.3   999  GWJ999      0.0324
     25  C19       -8.5730  -34.7210   23.7030 C.ar  999  GWJ999      0.0170
     26  C20       -8.9310  -36.0410   23.1200 C.ar  999  GWJ999      0.1248
     27  C21       -8.1340  -36.5740   22.1480 C.ar  999  GWJ999      0.0213
     28  C22       -6.9350  -35.8470   21.6940 C.ar  999  GWJ999      0.0176
     29  N3       -11.2280  -37.1870   22.3630 N.3   999  GWJ999      0.0392
     30  S        -10.3630  -36.9160   23.7060 S.O2  999  GWJ999      0.0935
     31  O4       -11.1390  -36.0560   24.5920 O.2   999  GWJ999     -0.1503
     32  O5        -9.9490  -38.1320   24.3660 O.2   999  GWJ999     -0.1503
     33  C26       -2.6110  -32.2910   29.4590 C.1   999  GWJ999      0.1004
     34  N2        -3.1120  -32.1290   30.4790 N.1   999  GWJ999     -0.1908
@<TRIPOS>BOND
     1    20    19    2
     2    18    19    1
     3    18    17    1
     4    19    21   am
     5     4     6   ar
     6     4     1   ar
     7    28    27   ar
     8    28    22   ar
     9    17     1    1
    10    21    22    1
    11     6     5   ar
    12    27    26   ar
    13     1     2   ar
    14    22    23   ar
    15    29    30    1
    16    26    25   ar
    17    26    30    1
    18    23    25   ar
    19    23    24    1
    20     5     7    1
    21     5     3   ar
    22     2     3   ar
    23     2     8    1
    24    30    32    2
    25    30    31    2
    26     9     8    2
    27     8    10    1
    28    11    10   ar
    29    11    12   ar
    30    10    15   ar
    31    16    12    1
    32    12    13   ar
    33    15    14   ar
    34    13    14   ar
    35    14    33    1
    36    33    34    3
