@<TRIPOS>MOLECULE
3dol_GWI_A_1.pdb
 38 40 0 0 0
SMALL
GASTEIGER

@<TRIPOS>ATOM
      1  C1        -3.0440  -35.5100   22.6320 C.ar  999  GWI999      0.1423
      2  C2        -2.8040  -35.6740   24.1100 C.ar  999  GWI999      0.0737
      3  C3        -2.0640  -36.7340   24.5540 C.ar  999  GWI999      0.0176
      4  C6        -2.5030  -36.4400   21.7710 C.ar  999  GWI999      0.0379
      5  C4        -1.4910  -37.7170   23.6180 C.ar  999  GWI999      0.0580
      6  C5        -1.6960  -37.5860   22.2870 C.ar  999  GWI999      0.0145
      7 CL         -0.5580  -39.0210   24.2440 Cl    999  GWI999     -0.0822
      8  C7        -3.3860  -34.6780   25.0620 C.2   999  GWI999      0.1985
      9  O1        -4.5210  -34.2630   24.8590 O.2   999  GWI999     -0.2865
     10  C8        -2.6300  -34.1550   26.2820 C.ar  999  GWI999      0.0406
     11  C9        -1.2510  -33.8320   26.1350 C.ar  999  GWI999      0.0146
     12  C10       -0.4860  -33.3560   27.2190 C.ar  999  GWI999      0.0584
     13  C11       -1.0940  -33.1860   28.4880 C.ar  999  GWI999      0.0217
     14  C12       -2.4770  -33.5050   28.6600 C.ar  999  GWI999      0.0694
     15  C13       -3.2470  -33.9880   27.5580 C.ar  999  GWI999      0.0135
     16 CL1         1.2070  -32.9830   26.9760 Cl    999  GWI999     -0.0822
     17  O2        -3.7870  -34.4250   22.2370 O.3   999  GWI999     -0.4655
     18  C15       -4.3720  -34.3030   20.9160 C.3   999  GWI999      0.2915
     19  C16       -5.7290  -34.9650   21.0420 C.2   999  GWI999      0.2901
     20  O3        -6.1800  -35.4410   19.9960 O.2   999  GWI999     -0.2689
     21  N1        -6.3470  -35.0030   22.2640 N.am  999  GWI999     -0.1764
     22  C17       -7.3980  -35.7580   22.7260 C.ar  999  GWI999      0.0696
     23  C18       -8.2650  -35.2320   23.8650 C.ar  999  GWI999     -0.0052
     24  C23       -8.0190  -33.8720   24.4990 C.3   999  GWI999      0.0324
     25  C19       -9.2930  -36.0000   24.3280 C.ar  999  GWI999      0.0173
     26  C20       -9.5970  -37.3490   23.7480 C.ar  999  GWI999      0.1269
     27  C21       -8.8290  -37.8180   22.7350 C.ar  999  GWI999      0.0216
     28  C22       -7.7080  -36.9970   22.2220 C.ar  999  GWI999      0.0177
     29  N3       -12.1870  -37.9040   23.4180 N.am  999  GWI999     -0.0591
     30  C14      -13.1090  -36.9470   23.7110 C.2   999  GWI999      0.2626
     31  C24      -14.4370  -36.9700   22.9740 C.3   999  GWI999      0.0885
     32  S        -10.9390  -38.3180   24.3940 S.O2  999  GWI999      0.0954
     33  O4       -11.2090  -37.8690   25.7670 O.2   999  GWI999     -0.1482
     34  C25      -15.6150  -36.4600   23.8580 C.3   999  GWI999      0.0102
     35  O6       -12.9120  -36.0710   24.5430 O.2   999  GWI999     -0.2716
     36  O5       -10.6490  -39.7370   24.3410 O.2   999  GWI999     -0.1482
     37  C26       -3.0810  -33.3370   29.9510 C.1   999  GWI999      0.1004
     38  N2        -3.5460  -33.2080   30.9960 N.1   999  GWI999     -0.1908
@<TRIPOS>BOND
     1    20    19    2
     2    18    19    1
     3    18    17    1
     4    19    21   am
     5     4     6   ar
     6     4     1   ar
     7    28    22   ar
     8    28    27   ar
     9    17     1    1
    10    21    22    1
    11     6     5   ar
    12     1     2   ar
    13    22    23   ar
    14    27    26   ar
    15    31    30    1
    16    31    34    1
    17    29    30   am
    18    29    32    1
    19     5     7    1
    20     5     3   ar
    21    30    35    2
    22    26    25   ar
    23    26    32    1
    24    23    25   ar
    25    23    24    1
    26     2     3   ar
    27     2     8    1
    28    36    32    2
    29    32    33    2
    30     9     8    2
    31     8    10    1
    32    11    10   ar
    33    11    12   ar
    34    10    15   ar
    35    16    12    1
    36    12    13   ar
    37    15    14   ar
    38    13    14   ar
    39    14    37    1
    40    37    38    3
