@<TRIPOS>MOLECULE
3doo_SKM_A_1.pdb
 12 12 0 0 0
SMALL
GASTEIGER

@<TRIPOS>ATOM
      1  O12       20.6430   -1.8790   21.1940 O.3   300  SKM300     -0.2173
      2  C8        21.9710   -2.3440   20.9420 C.3   300  SKM300      0.2167
      3  C6        22.7360   -2.0850   22.2320 C.3   300  SKM300      0.1896
      4  O7        22.7650   -0.6560   22.4250 O.3   300  SKM300     -0.2200
      5  C5        24.1350   -2.6630   22.1600 C.3   300  SKM300      0.0684
      6  C4        24.2140   -4.0150   21.4330 C.2   300  SKM300      0.0584
      7  C1        25.4350   -4.8390   21.5250 C.2   300  SKM300      0.3837
      8  O2        26.4560   -4.3840   22.1220 O.co2 300  SKM300     -0.2409
      9  O3        25.4410   -6.0000   21.0000 O.co2 300  SKM300     -0.2409
     10  C10       23.2010   -4.4980   20.6670 C.2   300  SKM300      0.0111
     11  C9        21.8680   -3.8300   20.5360 C.3   300  SKM300      0.2066
     12  O11       20.9820   -4.4590   21.4520 O.3   300  SKM300     -0.2155
@<TRIPOS>BOND
     1    11    10    1
     2    11     2    1
     3    11    12    1
     4    10     6    2
     5     2     1    1
     6     2     3    1
     7     9     7   ar
     8     6     7    1
     9     6     5    1
    10     7     8   ar
    11     5     3    1
    12     3     4    1
