@<TRIPOS>MOLECULE
3dop_NAP_A_1.pdb
 48 52 0 0 0
SMALL
GASTEIGER

@<TRIPOS>ATOM
      1  PA         6.2980  -15.9590    3.8800 P.3   944  NAP944      0.2189
      2  O1A        7.0410  -15.6120    5.0250 O.3   944  NAP944     -0.4371
      3  O2A        5.1910  -15.0880    3.4080 O.2   944  NAP944     -0.5170
      4  O5B        5.8000  -17.4950    4.0660 O.3   944  NAP944     -0.3112
      5  C5B        5.2030  -18.1850    3.1880 C.3   944  NAP944      0.1813
      6  C4B        5.0000  -19.6700    3.5070 C.3   944  NAP944      0.1820
      7  O4B        4.1170  -19.6740    4.5950 O.3   944  NAP944     -0.3136
      8  C3B        4.2730  -20.4890    2.4000 C.3   944  NAP944      0.2157
      9  O3B        4.8470  -21.7980    2.4540 O.3   944  NAP944     -0.2175
     10  C2B        2.8020  -20.4580    2.8180 C.3   944  NAP944      0.2314
     11  O2B        2.1020  -21.6310    2.3190 O.3   944  NAP944     -0.2630
     12  C1B        2.8910  -20.4280    4.3390 C.3   944  NAP944      0.3158
     13  N9A        1.8560  -19.6970    5.0780 N.pl3 944  NAP944     -0.1439
     14  C8A        1.1690  -18.5750    4.6850 C.3   944  NAP944      0.3377
     15  N7A        0.2710  -18.1580    5.6490 N.2   944  NAP944     -0.2095
     16  C5A        0.4560  -19.0780    6.6150 C.2   944  NAP944      0.2526
     17  C6A       -0.2460  -19.1680    7.9590 C.2   944  NAP944      0.4393
     18  N6A       -1.1680  -18.3940    8.4660 N.pl3 944  NAP944      0.2180
     19  N1A        0.1840  -20.2840    8.7750 N.2   944  NAP944      0.0021
     20  C2A        1.1570  -21.2070    8.3930 C.3   944  NAP944      0.5254
     21  N3A        1.7740  -21.1020    7.1860 N.2   944  NAP944     -0.0055
     22  C4A        1.4190  -20.0110    6.2710 C.2   944  NAP944      0.3518
     23  O3         7.3010  -15.8900    2.6550 O.3   944  NAP944     -0.2703
     24  PN         7.7610  -15.4280    1.2720 P.3   944  NAP944      0.2189
     25  O1N        9.1070  -15.7410    1.1000 O.3   944  NAP944     -0.4371
     26  O2N        6.7390  -15.9850    0.3020 O.2   944  NAP944     -0.5170
     27  O5D        7.4660  -14.0260    1.5020 O.3   944  NAP944     -0.3112
     28  C5D        6.3820  -13.1210    1.2290 C.3   944  NAP944      0.1813
     29  C4D        6.3730  -12.3780   -0.0700 C.3   944  NAP944      0.1799
     30  O4D        7.5140  -11.4660   -0.0210 O.3   944  NAP944     -0.3327
     31  C3D        6.7310  -13.1950   -1.3680 C.3   944  NAP944      0.2158
     32  O3D        5.7200  -14.1710   -1.7360 O.3   944  NAP944     -0.2175
     33  C2D        7.1130  -12.0240   -2.2750 C.3   944  NAP944      0.2309
     34  O2D        5.8920  -11.3750   -2.7320 O.3   944  NAP944     -0.2158
     35  C1D        8.0090  -11.1980   -1.3480 C.3   944  NAP944      0.2263
     36  N1N        9.4950  -11.5280   -1.2650 N.pl3 944  NAP944     -0.2787
     37  C2N       10.3980  -10.5670   -1.7780 C.3   944  NAP944      0.1244
     38  C3N       11.8140  -10.8630   -1.7760 C.2   944  NAP944      0.0544
     39  C7N       12.8030   -9.8170   -2.3400 C.2   944  NAP944      0.2818
     40  O7N       13.9990  -10.0660   -2.3490 O.2   944  NAP944     -0.2670
     41  N7N       12.1740   -8.7200   -2.7580 N.am  944  NAP944     -0.0839
     42  C4N       12.3010  -12.1220   -1.2540 C.2   944  NAP944      0.0033
     43  C5N       11.4040  -13.1340   -0.7080 C.2   944  NAP944      0.0157
     44  C6N       10.0340  -12.8230   -0.7220 C.2   944  NAP944      0.0633
     45  P2B        0.6420  -21.5160    1.6240 P.3   944  NAP944      0.5328
     46  O1X        0.7440  -20.6260    0.3870 O.2   944  NAP944     -0.2224
     47  O2X        0.3010  -22.9530    1.2850 O.3   944  NAP944     -0.1145
     48  O3X       -0.2870  -20.8630    2.6550 O.3   944  NAP944     -0.1145
@<TRIPOS>BOND
     1    41    39   am
     2    34    33    1
     3    40    39    2
     4    39    38    1
     5    33    31    1
     6    33    35    1
     7    37    38    1
     8    37    36    1
     9    38    42    2
    10    32    31    1
    11    31    29    1
    12    35    36    1
    13    35    30    1
    14    36    44    1
    15    42    43    1
    16    44    43    2
    17    29    30    1
    18    29    28    1
    19    26    24    2
    20    46    45    2
    21    25    24    1
    22    28    27    1
    23    24    27    1
    24    24    23    1
    25    47    45    1
    26    45    11    1
    27    45    48    1
    28    11    10    1
    29     8     9    1
    30     8    10    1
    31     8     6    1
    32    23     1    1
    33    10    12    1
    34     5     6    1
    35     5     4    1
    36     3     1    2
    37     6     7    1
    38     1     4    1
    39     1     2    1
    40    12     7    1
    41    12    13    1
    42    14    13    1
    43    14    15    1
    44    13    22    1
    45    15    16    2
    46    22    16    1
    47    22    21    2
    48    16    17    1
    49    21    20    1
    50    17    18    1
    51    17    19    2
    52    20    19    1
