@<TRIPOS>MOLECULE
3dop_BDT_B_1.pdb
 21 24 0 0 0
SMALL
GASTEIGER

@<TRIPOS>ATOM
      1  C1         8.1200   18.6460  -34.8960 C.3   980  BDT980      0.0078
      2  C2         8.8540   17.8580  -33.7880 C.3   980  BDT980      0.0645
      3  C3         8.6060   16.3560  -33.9410 C.2   980  BDT980      0.1506
      4  O3         9.5000   15.5320  -33.8570 O.2   980  BDT980     -0.2961
      5  C4         7.1660   15.9560  -34.1990 C.3   980  BDT980      0.0645
      6  C5         6.4450   16.7890  -35.3140 C.3   980  BDT980      0.0073
      7  C6         4.9570   16.3590  -35.4660 C.3   980  BDT980      0.0004
      8  C7         4.1240   16.7820  -34.2380 C.3   980  BDT980      0.0000
      9  C8         4.2250   18.2980  -33.9150 C.3   980  BDT980      0.0001
     10  C9         5.7380   18.6990  -33.7130 C.3   980  BDT980      0.0000
     11  C10        6.5900   18.3330  -35.0250 C.3   980  BDT980      0.0008
     12  C11        5.8370   20.2220  -33.3430 C.3   980  BDT980      0.0001
     13  C12        4.9910   20.5720  -32.0740 C.3   980  BDT980      0.0024
     14  C13        3.5000   20.1830  -32.2680 C.3   980  BDT980      0.0282
     15  C14        3.4340   18.6740  -32.6450 C.3   980  BDT980      0.0024
     16  C15        1.9110   18.3980  -32.5460 C.3   980  BDT980      0.0027
     17  C16        1.4600   19.3860  -31.4310 C.3   980  BDT980      0.0329
     18  C17        2.6230   20.1010  -31.0090 C.3   980  BDT980      0.1519
     19  O17        2.2960   21.3950  -30.5130 O.3   980  BDT980     -0.2232
     20  C18        2.8430   21.1550  -33.3160 C.3   980  BDT980      0.0025
     21  C19        6.1070   19.1880  -36.2420 C.3   980  BDT980      0.0000
@<TRIPOS>BOND
     1    21    11    1
     2     7     6    1
     3     7     8    1
     4     6    11    1
     5     6     5    1
     6    11     1    1
     7    11    10    1
     8     1     2    1
     9     8     9    1
    10     5     3    1
    11     3     4    2
    12     3     2    1
    13     9    10    1
    14     9    15    1
    15    10    12    1
    16    12    13    1
    17    20    14    1
    18    15    16    1
    19    15    14    1
    20    16    17    1
    21    14    13    1
    22    14    18    1
    23    17    18    1
    24    18    19    1
