@<TRIPOS>MOLECULE
3dou_SAM_A_1.pdb
 27 29 0 0 0
SMALL
GASTEIGER

@<TRIPOS>ATOM
      1  N         17.8570   17.8680   14.6450 N.3     1  SAM1       -0.1159
      2  CA        19.2030   17.7690   14.0000 C.3     1  SAM1        0.2168
      3  C         20.2190   18.2030   15.0320 C.2     1  SAM1        0.3860
      4  O         21.4200   18.0400   14.8220 O.co2   1  SAM1       -0.2437
      5  OXT       19.8520   18.7120   16.0930 O.co2   1  SAM1       -0.2437
      6  CB        19.3260   18.6010   12.7200 C.2     1  SAM1        0.0097
      7  CG        18.5080   18.0940   11.5280 C.2     1  SAM1        0.0191
      8  SD        18.8350   18.9040    9.9230 S.3     1  SAM1       -0.1536
      9  CE        17.7770   20.3550   10.1530 C.3     1  SAM1        0.0636
     10  C5'       17.6930   17.8810    8.9080 C.3     1  SAM1        0.0847
     11  C4'       18.0870   16.4270    8.6410 C.3     1  SAM1        0.1625
     12  O4'       16.9910   15.7760    8.0170 O.3     1  SAM1       -0.3153
     13  C3'       19.2590   16.2790    7.6690 C.3     1  SAM1        0.2168
     14  O3'       20.3850   15.7260    8.3370 O.3     1  SAM1       -0.2175
     15  C2'       18.7320   15.3670    6.5580 C.3     1  SAM1        0.2569
     16  O2'       19.7040   14.4730    6.0340 O.3     1  SAM1       -0.2130
     17  C1'       17.5120   14.7160    7.2250 C.3     1  SAM1        0.3185
     18  N9        16.5960   14.2370    6.1900 N.pl3   1  SAM1       -0.1439
     19  C8        15.9810   14.9540    5.1850 C.3     1  SAM1        0.3377
     20  N7        15.2390   14.1110    4.4100 N.2     1  SAM1       -0.2095
     21  C5        15.3830   12.8490    4.9280 C.2     1  SAM1        0.2526
     22  C6        14.8770   11.6010    4.5300 C.2     1  SAM1        0.4393
     23  N6        14.0790   11.4850    3.4690 N.pl3   1  SAM1        0.2180
     24  N1        15.2200   10.4950    5.2720 N.2     1  SAM1        0.0021
     25  C2        16.0460   10.5980    6.3750 C.3     1  SAM1        0.5254
     26  N3        16.5590   11.8200    6.7680 N.2     1  SAM1       -0.0055
     27  C4        16.2360   12.9190    6.0330 C.2     1  SAM1        0.3518
@<TRIPOS>BOND
     1    23    22    1
     2    20    21    2
     3    20    19    1
     4    22    21    1
     5    22    24    2
     6    21    27    1
     7    19    18    1
     8    24    25    1
     9    27    18    1
    10    27    26    2
    11    16    15    1
    12    18    17    1
    13    25    26    1
    14    15    17    1
    15    15    13    1
    16    17    12    1
    17    13    14    1
    18    13    11    1
    19    12    11    1
    20    11    10    1
    21    10     8    1
    22     8     9    1
    23     8     7    1
    24     7     6    2
    25     6     2    1
    26     2     1    1
    27     2     3    1
    28     4     3   ar
    29     3     5   ar
