@<TRIPOS>MOLECULE
3dox_III_P_1.pdb
 36 36 0 0 0
SMALL
GASTEIGER

@<TRIPOS>ATOM
      1  N         -2.7610   16.1140   16.9550 N.3     1  SER1       -0.1202
      2  CA        -3.3870   15.1880   17.9410 C.3     1  SER1        0.2020
      3  C         -3.9040   15.9480   19.1620 C.2     1  SER1        0.2619
      4  O         -4.2480   17.1290   19.0710 O.2     1  SER1       -0.2717
      5  CB        -2.3690   14.1290   18.3790 C.3     1  SER1        0.2103
      6  OG        -1.2100   14.7260   18.9350 O.3     1  SER1       -0.2182
      7  N         -3.9640   15.2610   20.2990 N.am    2  GLN2       -0.1965
      8  CA        -4.4290   15.8510   21.5510 C.3     2  GLN2        0.1733
      9  C         -5.9000   16.2600   21.5400 C.2     2  GLN2        0.2616
     10  O         -6.4920   16.4620   20.4810 O.2     2  GLN2       -0.2715
     11  CB        -3.5670   17.0610   21.9240 C.3     2  GLN2        0.0408
     12  CG        -2.1310   16.7130   22.2790 C.3     2  GLN2        0.0908
     13  CD        -1.3510   17.9110   22.7840 C.2     2  GLN2        0.2608
     14  OE1       -1.1150   18.8680   22.0470 O.2     2  GLN2       -0.2717
     15  NE2       -0.9500   17.8660   24.0490 N.am    2  GLN2       -0.0878
     16  N         -6.4650   16.3740   22.7400 N.am    3  ASN3       -0.1958
     17  CA        -7.8570   16.7570   22.9680 C.3     3  ASN3        0.1819
     18  C         -8.1630   16.5550   24.4480 C.2     3  ASN3        0.2622
     19  O         -8.2270   15.4220   24.9260 O.2     3  ASN3       -0.2715
     20  CB        -8.8040   15.9050   22.1230 C.3     3  ASN3        0.1195
     21  CG        -9.0900   16.5240   20.7720 C.2     3  ASN3        0.2630
     22  OD1       -9.7410   15.9160   19.9260 O.2     3  ASN3       -0.2716
     23  ND2       -8.6090   17.7450   20.5640 N.am    3  ASN3       -0.0877
     24  N         -8.3540   17.6580   25.1690 N.am    4  TYR4       -0.1938
     25  CA        -8.6180   17.6030   26.6040 C.3     4  TYR4        0.2021
     26  C         -9.8780   18.3510   27.0060 C.2     4  TYR4        0.3845
     27  O        -10.5750   17.8830   27.9320 O.co2   4  TYR4       -0.2437
     28  CB        -7.4160   18.1650   27.3620 C.3     4  TYR4        0.0596
     29  CG        -6.1130   17.6770   26.7880 C.ar    4  TYR4       -0.0197
     30  CD1       -5.5610   18.2770   25.6550 C.ar    4  TYR4       -0.0009
     31  CD2       -5.4780   16.5590   27.3180 C.ar    4  TYR4       -0.0009
     32  CE1       -4.4160   17.7690   25.0610 C.ar    4  TYR4        0.0417
     33  CE2       -4.3370   16.0430   26.7320 C.ar    4  TYR4        0.0417
     34  CZ        -3.8100   16.6500   25.6020 C.ar    4  TYR4        0.1957
     35  OH        -2.6860   16.1250   25.0080 O.3     4  TYR4       -0.2866
     36  OXT      -10.1400   19.4070   26.4040 O.co2   4  TYR4       -0.2437
@<TRIPOS>BOND
     1     1     2    1
     2     2     5    1
     3     2     3    1
     4     5     6    1
     5     4     3    2
     6     3     7   am
     7    22    21    2
     8     7     8    1
     9    10     9    2
    10    23    21   am
    11    21    20    1
    12     9     8    1
    13     9    16   am
    14     8    11    1
    15    11    12    1
    16    14    13    2
    17    20    17    1
    18    12    13    1
    19    16    17    1
    20    13    15   am
    21    17    18    1
    22    18    19    2
    23    18    24   am
    24    35    34    1
    25    32    34   ar
    26    32    30   ar
    27    24    25    1
    28    34    33   ar
    29    30    29   ar
    30    36    26   ar
    31    25    26    1
    32    25    28    1
    33    33    31   ar
    34    29    31   ar
    35    29    28    1
    36    26    27   ar
