@<TRIPOS>MOLECULE
3doy_2BE_A_1.pdb
 22 23 0 0 0
SMALL
GASTEIGER

@<TRIPOS>ATOM
      1  CAJ      -18.3010  -16.3780  -11.9780 C.ar  3001  2BE3001     0.0055
      2  CAH      -19.5030  -15.6970  -11.9010 C.ar  3001  2BE3001     0.0115
      3  CAP      -19.5110  -14.3240  -12.0520 C.ar  3001  2BE3001     0.0577
      4 CLAD      -20.9900  -13.4540  -11.9600 Cl    3001  2BE3001    -0.0822
      5  CAI      -18.3270  -13.6410  -12.2740 C.ar  3001  2BE3001     0.0115
      6  CAK      -17.1220  -14.3250  -12.3420 C.ar  3001  2BE3001     0.0055
      7  CAT      -17.1090  -15.6960  -12.1840 C.ar  3001  2BE3001     0.0569
      8  CAO      -15.8020  -16.4710  -12.3070 C.2   3001  2BE3001     0.2860
      9  OAA      -15.7070  -17.2800  -13.2240 O.2   3001  2BE3001    -0.2665
     10  NAN      -14.8100  -16.1810  -11.4580 N.am  3001  2BE3001    -0.0753
     11  NAM      -13.7240  -16.7600  -11.5430 N.2   3001  2BE3001    -0.1542
     12  CAG      -13.5750  -17.6830  -12.4700 C.2   3001  2BE3001     0.1229
     13  CAU      -12.4150  -18.4060  -12.7270 C.ar  3001  2BE3001     0.0609
     14  CAL      -11.1710  -17.9600  -12.2920 C.ar  3001  2BE3001     0.0147
     15  CAS      -10.0250  -18.6910  -12.5920 C.ar  3001  2BE3001     0.0742
     16 BRAE       -8.3330  -18.1070  -12.0010 Br    3001  2BE3001    -0.0457
     17  CAQ      -10.1300  -19.8620  -13.3340 C.ar  3001  2BE3001     0.2110
     18  OAB       -9.0220  -20.5790  -13.6340 O.3   3001  2BE3001    -0.2854
     19  CAV      -11.3670  -20.3110  -13.7790 C.ar  3001  2BE3001     0.1128
     20 BRAF      -11.4900  -21.9100  -14.7890 Br    3001  2BE3001    -0.0423
     21  CAR      -12.5030  -19.5780  -13.4780 C.ar  3001  2BE3001     0.2064
     22  OAC      -13.7060  -20.0230  -13.9170 O.3   3001  2BE3001    -0.2859
@<TRIPOS>BOND
     1    20    19    1
     2    22    21    1
     3    19    21   ar
     4    19    17   ar
     5    18    17    1
     6    21    13   ar
     7    17    15   ar
     8     9     8    2
     9    13    12    1
    10    13    14   ar
    11    15    14   ar
    12    15    16    1
    13    12    11    2
    14     6     5   ar
    15     6     7   ar
    16     8     7    1
    17     8    10   am
    18     5     3   ar
    19     7     1   ar
    20     3     4    1
    21     3     2   ar
    22     1     2   ar
    23    11    10    1
