@<TRIPOS>MOLECULE
3doz_3BE_B_1.pdb
 22 23 0 0 0
SMALL
GASTEIGER

@<TRIPOS>ATOM
      1  CAK      -18.6040   15.6990   11.8590 C.ar  163  3BE163      0.0113
      2  CAP      -19.6890   14.8210   11.7800 C.ar  163  3BE163      0.0347
      3 BRAD      -21.4670   15.4180   11.6830 Br    163  3BE163     -0.0490
      4  CAI      -19.4720   13.4600   11.7640 C.ar  163  3BE163      0.0067
      5  CAH      -18.1770   12.9680   11.8280 C.ar  163  3BE163      0.0007
      6  CAJ      -17.0970   13.8390   11.9040 C.ar  163  3BE163      0.0047
      7  CAU      -17.2960   15.2080   11.9060 C.ar  163  3BE163      0.0573
      8  CAO      -16.0590   16.1150   12.0350 C.2   163  3BE163      0.2860
      9  OAA      -16.1250   17.1500   12.6890 O.2   163  3BE163     -0.2665
     10  NAN      -14.9170   15.6440   11.5220 N.am  163  3BE163     -0.0753
     11  NAM      -13.8580   16.2750   11.6140 N.2   163  3BE163     -0.1542
     12  CAG      -13.8270   17.4360   12.2420 C.2   163  3BE163      0.1229
     13  CAT      -12.6790   18.1990   12.4750 C.ar  163  3BE163      0.0609
     14  CAL      -11.3940   17.7520   12.1660 C.ar  163  3BE163      0.0147
     15  CAQ      -10.2830   18.5490   12.4560 C.ar  163  3BE163      0.0742
     16 BRAE       -8.5140   18.0030   12.0440 Br    163  3BE163     -0.0457
     17  CAR      -10.4680   19.7830   13.0630 C.ar  163  3BE163      0.2110
     18  OAB       -9.3980   20.5610   13.3480 O.3   163  3BE163     -0.2854
     19  CAV      -11.7420   20.2280   13.3850 C.ar  163  3BE163      0.1128
     20 BRAF      -11.9700   21.9090   14.2180 Br    163  3BE163     -0.0423
     21  CAS      -12.8400   19.4320   13.0940 C.ar  163  3BE163      0.2064
     22  OAC      -14.0820   19.8630   13.4100 O.3   163  3BE163     -0.2859
@<TRIPOS>BOND
     1    10    11    1
     2    10     8   am
     3    11    12    2
     4     3     2    1
     5     4     2   ar
     6     4     5   ar
     7     2     1   ar
     8     5     6   ar
     9     1     7   ar
    10     6     7   ar
    11     7     8    1
    12     8     9    2
    13    16    15    1
    14    14    15   ar
    15    14    13   ar
    16    12    13    1
    17    15    17   ar
    18    13    21   ar
    19    17    18    1
    20    17    19   ar
    21    21    19   ar
    22    21    22    1
    23    19    20    1
