@<TRIPOS>MOLECULE
3dp0_2BC_B_1.pdb
 25 27 0 0 0
SMALL
GASTEIGER

@<TRIPOS>ATOM
      1  CAN       17.8280   16.1930  -12.0780 C.ar  162  2BC162      0.0046
      2  CAY       18.9750   15.4210  -11.9410 C.ar  162  2BC162      0.0001
      3  CAK       20.2270   16.0010  -12.1140 C.ar  162  2BC162      0.0000
      4  CAH       21.3740   15.2260  -11.9930 C.ar  162  2BC162      0.0000
      5  CAG       21.2630   13.8710  -11.6990 C.ar  162  2BC162      0.0000
      6  CAJ       20.0110   13.2920  -11.5240 C.ar  162  2BC162      0.0000
      7  CAX       18.8620   14.0680  -11.6410 C.ar  162  2BC162      0.0000
      8  CAL       17.6060   13.4960  -11.4670 C.ar  162  2BC162      0.0001
      9  CAI       16.4570   14.2690  -11.6020 C.ar  162  2BC162      0.0046
     10  CAV       16.5720   15.6180  -11.9170 C.ar  162  2BC162      0.0568
     11  CAQ       15.3390   16.4740  -12.2100 C.2   162  2BC162      0.2860
     12  OAA       15.4440   17.4420  -12.9630 O.2   162  2BC162     -0.2665
     13  NAP       14.1920   16.0540  -11.6780 N.am  162  2BC162     -0.0753
     14  NAO       13.1440   16.6810  -11.8430 N.2   162  2BC162     -0.1542
     15  CAF       13.1420   17.8020  -12.5400 C.2   162  2BC162      0.1229
     16  CAU       11.9810   18.5340  -12.7630 C.ar  162  2BC162      0.0609
     17  CAM       10.7490   18.0350  -12.3540 C.ar  162  2BC162      0.0147
     18  CAR        9.5880   18.7150  -12.7030 C.ar  162  2BC162      0.0742
     19 BRAD        7.8890   18.1480  -12.0890 Br    162  2BC162     -0.0457
     20  CAS        9.6520   19.8800  -13.4580 C.ar  162  2BC162      0.2110
     21  OAB        8.5100   20.4990  -13.8610 O.3   162  2BC162     -0.2854
     22  CAW       10.8860   20.3840  -13.8450 C.ar  162  2BC162      0.1128
     23 BRAE       10.9390   22.0270  -14.7870 Br    162  2BC162     -0.0423
     24  CAT       12.0530   19.7130  -13.4990 C.ar  162  2BC162      0.2064
     25  OAC       13.2600   20.2280  -13.8590 O.3   162  2BC162     -0.2859
@<TRIPOS>BOND
     1    23    22    1
     2    21    20    1
     3    25    24    1
     4    22    24   ar
     5    22    20   ar
     6    24    16   ar
     7    20    18   ar
     8    12    11    2
     9    16    15    1
    10    16    17   ar
    11    18    17   ar
    12    18    19    1
    13    15    14    2
    14    11    10    1
    15    11    13   am
    16     3     4   ar
    17     3     2   ar
    18     1     2   ar
    19     1    10   ar
    20     4     5   ar
    21     2     7   ar
    22    10     9   ar
    23    14    13    1
    24     5     6   ar
    25     7     6   ar
    26     7     8   ar
    27     9     8   ar
