@<TRIPOS>MOLECULE
3dp1_2RB_B_1.pdb
 23 24 0 0 0
SMALL
GASTEIGER

@<TRIPOS>ATOM
      1  CAA      -21.7330   14.8380   11.5750 C.3   162  2RB162      0.2525
      2  OAO      -20.6730   13.9160   11.8500 O.3   162  2RB162     -0.4714
      3  CAR      -19.4960   14.5880   11.9580 C.ar  162  2RB162      0.1387
      4  CAI      -18.2990   13.9850   11.5860 C.ar  162  2RB162      0.0370
      5  CAK      -17.0960   14.6720   11.7100 C.ar  162  2RB162      0.0077
      6  CAH      -19.4930   15.8880   12.4520 C.ar  162  2RB162      0.0370
      7  CAJ      -18.2920   16.5750   12.5780 C.ar  162  2RB162      0.0077
      8  CAV      -17.0960   15.9680   12.2130 C.ar  162  2RB162      0.0570
      9  CAP      -15.8010   16.7530   12.4320 C.2   162  2RB162      0.2860
     10  OAB      -15.8240   17.7480   13.1560 O.2   162  2RB162     -0.2665
     11  NAN      -14.7050   16.2830   11.8380 N.am  162  2RB162     -0.0753
     12  NAM      -13.6220   16.8550   11.9720 N.2   162  2RB162     -0.1542
     13  CAG      -13.5440   17.9520   12.7050 C.2   162  2RB162      0.1229
     14  CAS      -12.3580   18.6440   12.9220 C.ar  162  2RB162      0.0609
     15  CAL      -11.1420   18.1440   12.4670 C.ar  162  2RB162      0.0147
     16  CAQ       -9.9610   18.7890   12.8180 C.ar  162  2RB162      0.0742
     17 BRAE       -8.2820   18.0880   12.2920 Br    162  2RB162     -0.0457
     18  CAT       -9.9880   19.9300   13.6110 C.ar  162  2RB162      0.2110
     19  OAC       -8.8250   20.5350   13.9730 O.3   162  2RB162     -0.2854
     20  CAW      -11.2050   20.4350   14.0540 C.ar  162  2RB162      0.1128
     21 BRAF      -11.2340   22.0010   15.1200 Br    162  2RB162     -0.0423
     22  CAU      -12.3880   19.7920   13.7080 C.ar  162  2RB162      0.2064
     23  OAD      -13.5800   20.3000   14.1210 O.3   162  2RB162     -0.2859
@<TRIPOS>BOND
     1     1     2    1
     2     4     5   ar
     3     4     3   ar
     4     5     8   ar
     5    11    12    1
     6    11     9   am
     7     2     3    1
     8     3     6   ar
     9    12    13    2
    10     8     9    1
    11     8     7   ar
    12    17    16    1
    13     9    10    2
    14     6     7   ar
    15    15    16   ar
    16    15    14   ar
    17    13    14    1
    18    16    18   ar
    19    14    22   ar
    20    18    19    1
    21    18    20   ar
    22    22    20   ar
    23    22    23    1
    24    20    21    1
