@<TRIPOS>MOLECULE
3dp2_4BE_B_1.pdb
 22 23 0 0 0
SMALL
GASTEIGER

@<TRIPOS>ATOM
      1  CAJ       17.1660   14.7950  -11.5670 C.ar  162  4BE162      0.0051
      2  CAH       18.4520   14.2820  -11.4280 C.ar  162  4BE162      0.0068
      3  CAP       19.5400   14.9910  -11.9220 C.ar  162  4BE162      0.0346
      4 BRAD       21.3150   14.4050  -11.6250 Br    162  4BE162     -0.0490
      5  CAI       19.3620   16.2060  -12.5720 C.ar  162  4BE162      0.0068
      6  CAK       18.0770   16.7140  -12.7110 C.ar  162  4BE162      0.0051
      7  CAU       16.9900   16.0160  -12.2070 C.ar  162  4BE162      0.0568
      8  CAO       15.6270   16.6920  -12.3330 C.2   162  4BE162      0.2860
      9  OAA       15.5410   17.7010  -13.0320 O.2   162  4BE162     -0.2665
     10  NAN       14.5960   16.1300  -11.7060 N.am  162  4BE162     -0.0753
     11  NAM       13.4940   16.6760  -11.7840 N.2   162  4BE162     -0.1542
     12  CAG       13.4290   17.7940  -12.4820 C.2   162  4BE162      0.1229
     13  CAT       12.2830   18.5460  -12.6950 C.ar  162  4BE162      0.0609
     14  CAL       11.0370   18.0980  -12.2730 C.ar  162  4BE162      0.0147
     15  CAQ        9.9030   18.8150  -12.6330 C.ar  162  4BE162      0.0742
     16 BRAE        8.1860   18.2070  -12.1180 Br    162  4BE162     -0.0457
     17  CAR       10.0050   19.9670  -13.4020 C.ar  162  4BE162      0.2110
     18  OAB        8.8830   20.6230  -13.8030 O.3   162  4BE162     -0.2854
     19  CAV       11.2560   20.4170  -13.8080 C.ar  162  4BE162      0.1128
     20 BRAF       11.4130   21.9850  -14.8570 Br    162  4BE162     -0.0423
     21  CAS       12.3950   19.7070  -13.4530 C.ar  162  4BE162      0.2064
     22  OAC       13.6170   20.1590  -13.8410 O.3   162  4BE162     -0.2859
@<TRIPOS>BOND
     1    20    19    1
     2    22    21    1
     3    19    21   ar
     4    19    17   ar
     5    18    17    1
     6    21    13   ar
     7    17    15   ar
     8     9     8    2
     9     6     5   ar
    10     6     7   ar
    11    13    12    1
    12    13    14   ar
    13    15    14   ar
    14    15    16    1
    15     5     3   ar
    16    12    11    2
    17     8     7    1
    18     8    10   am
    19     7     1   ar
    20     3     4    1
    21     3     2   ar
    22    11    10    1
    23     1     2   ar
