@<TRIPOS>MOLECULE
3dp3_4BB_A_1.pdb
 25 26 0 0 0
SMALL
GASTEIGER

@<TRIPOS>ATOM
      1  CAA      -21.4840   15.4610   11.9790 C.3   163  4BB163      0.0044
      2  CAY      -20.3780   14.5230   11.5300 C.3   163  4BB163      0.0189
      3  CAB      -20.5190   14.2380   10.0410 C.3   163  4BB163      0.0044
      4  CAC      -20.3990   13.2470   12.3480 C.3   163  4BB163      0.0044
      5  CAW      -19.0340   15.1800   11.7590 C.ar  163  4BB163     -0.0228
      6  CAM      -17.8800   14.4220   11.6830 C.ar  163  4BB163     -0.0041
      7  CAK      -16.6400   14.9980   11.8880 C.ar  163  4BB163      0.0043
      8  CAL      -18.9650   16.5280   12.0410 C.ar  163  4BB163     -0.0041
      9  CAJ      -17.7190   17.1060   12.2510 C.ar  163  4BB163      0.0043
     10  CAS      -16.5620   16.3460   12.1740 C.ar  163  4BB163      0.0568
     11  CAQ      -15.2230   17.0320   12.4160 C.2   163  4BB163      0.2860
     12  OAD      -15.1730   17.9280   13.2530 O.2   163  4BB163     -0.2665
     13  NAP      -14.1810   16.6030   11.6920 N.am  163  4BB163     -0.0753
     14  NAO      -13.0750   17.1240   11.8340 N.2   163  4BB163     -0.1542
     15  CAI      -12.9560   18.1170   12.6960 C.2   163  4BB163      0.1229
     16  CAT      -11.7680   18.7680   13.0040 C.ar  163  4BB163      0.0609
     17  CAN      -10.5460   18.3060   12.5310 C.ar  163  4BB163      0.0147
     18  CAR       -9.3770   18.9640   12.8760 C.ar  163  4BB163      0.0742
     19 BRAG       -7.7320   18.3260   12.2260 Br    163  4BB163     -0.0457
     20  CAU       -9.4280   20.0830   13.6930 C.ar  163  4BB163      0.2110
     21  OAE       -8.2870   20.7310   14.0320 O.3   163  4BB163     -0.2854
     22  CAX      -10.6530   20.5480   14.1680 C.ar  163  4BB163      0.1128
     23 BRAH      -10.7640   22.0730   15.2830 Br    163  4BB163     -0.0423
     24  CAV      -11.8180   19.8850   13.8230 C.ar  163  4BB163      0.2064
     25  OAF      -13.0080   20.3430   14.2880 O.3   163  4BB163     -0.2859
@<TRIPOS>BOND
     1     3     2    1
     2     2     5    1
     3     2     1    1
     4     2     4    1
     5     6     5   ar
     6     6     7   ar
     7    13    14    1
     8    13    11   am
     9     5     8   ar
    10    14    15    2
    11     7    10   ar
    12     8     9   ar
    13    10     9   ar
    14    10    11    1
    15    19    18    1
    16    11    12    2
    17    17    18   ar
    18    17    16   ar
    19    15    16    1
    20    18    20   ar
    21    16    24   ar
    22    20    21    1
    23    20    22   ar
    24    24    22   ar
    25    24    25    1
    26    22    23    1
