@<TRIPOS>MOLECULE
3dp4_AMQ_A_1.pdb
 13 13 0 0 0
SMALL
GASTEIGER

@<TRIPOS>ATOM
      1  N         20.9390   20.7800   13.3460 N.3   374  AMQ374     -0.1204
      2  CA        20.7560   19.5320   14.1660 C.3   374  AMQ374      0.1995
      3  C         19.2250   19.1940   14.2990 C.2   374  AMQ374      0.3822
      4  OT1       18.4180   19.9480   13.7350 O.co2 374  AMQ374     -0.2440
      5  OT2       18.9040   18.1840   14.9600 O.co2 374  AMQ374     -0.2440
      6  CB        21.4330   19.7320   15.5520 C.3   374  AMQ374      0.0718
      7  CG        22.9190   20.0230   15.4450 C.2   374  AMQ374      0.0985
      8  CD1       23.9770   19.0770   15.3030 C.1   374  AMQ374      0.1879
      9  CD2       23.6270   21.1880   15.4500 C.2   374  AMQ374      0.1611
     10  CE2       23.2810   22.6370   15.5590 C.3   374  AMQ374      0.0758
     11  OE1       23.6400   17.7970   15.2600 O.2   374  AMQ374     -0.2193
     12  NE1       25.2040   19.5110   15.2210 N.2   374  AMQ374     -0.0008
     13  OE2       24.9800   20.9330   15.3200 O.2   374  AMQ374     -0.3482
@<TRIPOS>BOND
     1     1     2    1
     2     4     3   ar
     3     2     3    1
     4     2     6    1
     5     3     5   ar
     6    12     8    2
     7    12    13    1
     8    11     8    2
     9     8     7    1
    10    13     9    1
    11     7     9    2
    12     7     6    1
    13     9    10    1
