@<TRIPOS>MOLECULE
3dp5_HEM_A_1.pdb
 43 50 0 0 0
SMALL
GASTEIGER

@<TRIPOS>ATOM
      1 FE         42.4440   13.9670   37.0560 Fe    122  HEM122      0.0000
      2  CHA       44.2520   14.1290   39.9660 C.2   122  HEM122      0.0000
      3  CHB       44.1240   11.0980   36.1970 C.2   122  HEM122      0.0000
      4  CHC       40.3410   13.5470   34.3920 C.2   122  HEM122      0.0000
      5  CHD       41.1730   17.0820   37.5920 C.2   122  HEM122      0.0000
      6  NA        43.9350   12.7990   37.9350 N.ar  122  HEM122      0.0000
      7  C1A       44.5490   13.0590   39.1400 C.ar  122  HEM122      0.0000
      8  C2A       45.5740   12.0210   39.3510 C.ar  122  HEM122      0.0000
      9  C3A       45.5210   11.1930   38.3180 C.ar  122  HEM122      0.0000
     10  C4A       44.4780   11.6570   37.4060 C.ar  122  HEM122      0.0000
     11  CMA       46.3930    9.9430   38.0920 C.3   122  HEM122      0.0000
     12  CAA       46.6000   11.9450   40.5140 C.3   122  HEM122      0.0000
     13  CBA       46.0000   11.7700   41.8680 C.3   122  HEM122      0.0000
     14  CGA       47.0880   12.0350   42.9030 C.2   122  HEM122      0.0000
     15  O1A       48.3250   12.1930   42.5930 O.co2 122  HEM122      0.0000
     16  O2A       46.6500   12.0440   44.0730 O.co2 122  HEM122      0.0000
     17  NB        42.2890   12.6080   35.5200 N.2   122  HEM122      0.0000
     18  C1B       43.0760   11.4820   35.3840 C.2   122  HEM122      0.0000
     19  C2B       42.5450   10.7120   34.2740 C.2   122  HEM122      0.0000
     20  C3B       41.4910   11.3930   33.7650 C.2   122  HEM122      0.0000
     21  C4B       41.3110   12.5910   34.5590 C.2   122  HEM122      0.0000
     22  CMB       43.2190    9.3890   33.8100 C.3   122  HEM122      0.0000
     23  CAB       40.5790   10.9780   32.5940 C.3   122  HEM122      0.0000
     24  CBB       40.0080    9.7100   32.6070 C.3   122  HEM122      0.0000
     25  NC        41.0390   15.0960   36.1710 N.ar  122  HEM122      0.0000
     26  C1C       40.2750   14.7460   35.0530 C.ar  122  HEM122      0.0000
     27  C2C       39.3830   15.8490   34.7550 C.ar  122  HEM122      0.0000
     28  C3C       39.6080   16.8250   35.6520 C.ar  122  HEM122      0.0000
     29  C4C       40.6470   16.3690   36.5350 C.ar  122  HEM122      0.0000
     30  CMC       38.3450   15.8830   33.6000 C.3   122  HEM122      0.0000
     31  CAC       38.9500   18.2480   35.7370 C.2   122  HEM122      0.0000
     32  CBC       37.6110   18.5270   35.7510 C.2   122  HEM122      0.0000
     33  ND        42.6870   15.4060   38.5330 N.2   122  HEM122      0.0000
     34  C1D       41.9760   16.5960   38.5820 C.2   122  HEM122      0.0000
     35  C2D       42.1880   17.2220   39.8860 C.2   122  HEM122      0.0000
     36  C3D       43.1290   16.3000   40.5990 C.2   122  HEM122      0.0000
     37  C4D       43.3920   15.1980   39.7030 C.2   122  HEM122      0.0000
     38  CMD       41.6160   18.5340   40.4480 C.3   122  HEM122      0.0000
     39  CAD       43.7010   16.4800   42.0320 C.3   122  HEM122      0.0000
     40  CBD       42.6930   15.8240   42.9900 C.3   122  HEM122      0.0000
     41  CGD       43.2620   15.8930   44.3770 C.2   122  HEM122      0.0000
     42  O1D       43.6500   14.8540   44.9200 O.co2 122  HEM122      0.0000
     43  O2D       43.3440   16.9710   44.9720 O.co2 122  HEM122      0.0000
@<TRIPOS>BOND
     1    23    24    1
     2    23    20    1
     3    30    27    1
     4    20    19    2
     5    20    21    1
     6    22    19    1
     7    19    18    1
     8     4    21    2
     9     4    26    1
    10    21    17    1
    11    27    26   ar
    12    27    28   ar
    13    26    25   ar
    14    18    17    2
    15    18     3    1
    16    17     1    1
    17    28    31    1
    18    28    29   ar
    19    31    32    2
    20    25    29   ar
    21    25     1    1
    22     3    10    2
    23    29     5    1
    24     1     6    1
    25     1    33    1
    26    10     6   ar
    27    10     9   ar
    28     5    34    2
    29     6     7   ar
    30    11     9    1
    31     9     8   ar
    32    33    34    1
    33    33    37    2
    34    34    35    1
    35     7     8   ar
    36     7     2    2
    37     8    12    1
    38    37     2    1
    39    37    36    1
    40    35    38    1
    41    35    36    2
    42    12    13    1
    43    36    39    1
    44    13    14    1
    45    39    40    1
    46    15    14   ar
    47    14    16   ar
    48    40    41    1
    49    41    42   ar
    50    41    43   ar
