@<TRIPOS>MOLECULE
3dp6_GLU_A_1.pdb
 10 9 0 0 0
SMALL
GASTEIGER

@<TRIPOS>ATOM
      1  N        -18.2970  -27.2270   19.5770 N.3   374  GLU374     -0.1208
      2  CA       -19.3090  -26.1620   19.8360 C.3   374  GLU374      0.1949
      3  C        -19.4260  -25.8830   21.3230 C.2   374  GLU374      0.3819
      4  O        -20.3070  -25.0750   21.6810 O.co2 374  GLU374     -0.2441
      5  CB       -20.6770  -26.5770   19.2840 C.3   374  GLU374      0.0424
      6  CG       -20.7930  -26.4880   17.7640 C.3   374  GLU374      0.1161
      7  CD       -20.8480  -25.0540   17.2580 C.2   374  GLU374      0.3649
      8  OE1      -20.7170  -24.8470   16.0300 O.co2 374  GLU374     -0.2457
      9  OE2      -21.0330  -24.1280   18.0780 O.co2 374  GLU374     -0.2457
     10  OXT      -18.6370  -26.4690   22.1010 O.co2 374  GLU374     -0.2441
@<TRIPOS>BOND
     1     8     7   ar
     2     7     6    1
     3     7     9   ar
     4     6     5    1
     5     5     2    1
     6     1     2    1
     7     2     3    1
     8     3     4   ar
     9     3    10   ar
