@<TRIPOS>MOLECULE
3dp8_HCT_A_1.pdb
 13 12 0 0 0
SMALL
GASTEIGER

@<TRIPOS>ATOM
      1  C1        -4.9030  -35.9020   67.0970 C.2   511  HCT511      0.3654
      2  C2        -3.8400  -35.8510   65.8940 C.3   511  HCT511      0.1253
      3  C3        -2.5960  -36.8400   65.6520 C.3   511  HCT511      0.1152
      4  C4        -1.5440  -36.1340   64.7250 C.3   511  HCT511      0.0236
      5  C5        -1.0640  -34.8240   65.4300 C.3   511  HCT511      0.1146
      6  C6         0.3920  -34.3890   65.3120 C.2   511  HCT511      0.3649
      7  C7        -1.6400  -37.2650   66.7990 C.2   511  HCT511      0.3649
      8  O1        -4.5120  -35.6200   68.2670 O.co2 511  HCT511     -0.2456
      9  O2        -6.1280  -36.1320   66.8260 O.co2 511  HCT511     -0.2456
     10  O3         0.6870  -33.3470   65.9360 O.co2 511  HCT511     -0.2457
     11  O4         1.1550  -35.0810   64.5960 O.co2 511  HCT511     -0.2457
     12  O5        -0.9800  -38.3430   66.6850 O.co2 511  HCT511     -0.2457
     13  O6        -1.4980  -36.4160   67.6960 O.co2 511  HCT511     -0.2457
@<TRIPOS>BOND
     1    11     6   ar
     2     4     5    1
     3     4     3    1
     4     6     5    1
     5     6    10   ar
     6     3     2    1
     7     3     7    1
     8     2     1    1
     9    12     7   ar
    10     7    13   ar
    11     9     1   ar
    12     1     8   ar
