@<TRIPOS>MOLECULE
3dp9_BIG_A_1.pdb
 23 25 0 0 0
SMALL
GASTEIGER

@<TRIPOS>ATOM
      1  C2        -1.3210   -4.1280    5.2950 C.3   301  BIG301      0.3922
      2  C5        -3.9340   -3.4640    4.5930 C.2   301  BIG301      0.1884
      3  C4        -3.2350   -2.9140    5.7560 C.2   301  BIG301      0.1045
      4  C8        -5.3260   -2.0460    5.6130 C.2   301  BIG301      0.0978
      5  O3'       -1.2630    2.0820    8.2140 O.3   301  BIG301     -0.2216
      6  C3'       -1.2190    1.1140    7.1580 C.3   301  BIG301      0.1700
      7  C4'       -2.1170    1.5100    5.9920 C.3   301  BIG301      0.0586
      8  C5'       -1.6440    0.8960    4.6760 C.3   301  BIG301      0.0615
      9  S5'       -0.3930    1.8620    3.8830 S.3   301  BIG301     -0.1401
     10  C20       -1.3380    3.1080    3.0540 C.3   301  BIG301      0.0576
     11  C21       -0.4020    4.1510    2.4530 C.3   301  BIG301      0.0116
     12  C22       -1.1350    5.4570    2.1610 C.3   301  BIG301      0.0009
     13  C23       -0.9770    5.8260    0.7040 C.3   301  BIG301      0.0000
     14  C1'       -3.4590    0.8790    6.3220 C.3   301  BIG301      0.0759
     15  N1'       -3.2550    0.1140    7.5710 N.3   301  BIG301     -0.2666
     16  C2'       -1.8250   -0.1550    7.7090 C.3   301  BIG301      0.1057
     17  C10       -3.9750   -1.1760    7.6470 C.3   301  BIG301      0.1023
     18  N7        -5.1580   -2.9030    4.5550 N.2   301  BIG301     -0.2350
     19  C6        -3.1590   -4.4310    3.7900 C.2   301  BIG301      0.4315
     20  N6        -3.6840   -5.0230    2.6890 N.pl3 301  BIG301      0.2177
     21  N3        -1.9620   -3.2580    6.0820 N.2   301  BIG301     -0.2171
     22  C9        -4.1760   -1.9810    6.3960 C.2   301  BIG301      0.0321
     23  N1        -1.8920   -4.6950    4.2040 N.2   301  BIG301     -0.0278
@<TRIPOS>BOND
     1    13    12    1
     2    12    11    1
     3    11    10    1
     4    20    19    1
     5    10     9    1
     6    19    23    2
     7    19     2    1
     8     9     8    1
     9    23     1    1
    10    18     2    2
    11    18     4    1
    12     2     3    1
    13     8     7    1
    14     1    21    1
    15     4    22    2
    16     3    21    2
    17     3    22    1
    18     7    14    1
    19     7     6    1
    20    14    15    1
    21    22    17    1
    22     6    16    1
    23     6     5    1
    24    15    17    1
    25    15    16    1
