@<TRIPOS>MOLECULE
3dpd_41A_A_1.pdb
 18 20 0 0 0
SMALL
GASTEIGER

@<TRIPOS>ATOM
      1  C01       24.1900   63.5150   17.3780 C.3   2040  41A2040     0.0008
      2  C02       24.1550   63.1820   18.8730 C.3   2040  41A2040     0.0133
      3  C03       24.5710   64.4310   19.6530 C.3   2040  41A2040     0.0008
      4  C04       22.6950   62.7410   19.2510 C.3   2040  41A2040     0.0562
      5  C05       22.5850   61.9090   20.5080 C.2   2040  41A2040     0.1060
      6  C06       23.6610   61.2170   21.0160 C.3   2040  41A2040     0.1604
      7  C07       24.9960   61.2130   20.4380 C.2   2040  41A2040     0.1671
      8  C08       25.1700   62.0270   19.1610 C.3   2040  41A2040     0.0662
      9  O09       25.9150   60.5800   20.9300 O.2   2040  41A2040    -0.2947
     10  S10       23.2060   60.3710   22.4610 S.3   2040  41A2040    -0.0535
     11  C11       21.5800   61.0030   22.2570 C.2   2040  41A2040     0.2106
     12  N12       20.5900   60.6840   23.1420 N.pl3 2040  41A2040    -0.2736
     13  C13       20.4760   59.2650   23.4940 C.3   2040  41A2040     0.1257
     14  C14       19.3790   59.0630   24.5280 C.3   2040  41A2040     0.1637
     15  O15       18.1390   59.6190   24.1170 O.3   2040  41A2040    -0.3501
     16  C16       18.2640   61.0130   23.8510 C.3   2040  41A2040     0.1637
     17  C17       19.2750   61.2880   22.7640 C.3   2040  41A2040     0.1257
     18  N18       21.4160   61.7760   21.2090 N.2   2040  41A2040    -0.3882
@<TRIPOS>BOND
     1     1     2    1
     2     2     8    1
     3     2     4    1
     4     2     3    1
     5     8     7    1
     6     4     5    1
     7     7     9    2
     8     7     6    1
     9     5     6    1
    10     5    18    2
    11     6    10    1
    12    18    11    2
    13    11    10    1
    14    11    12    1
    15    17    12    1
    16    17    16    1
    17    12    13    1
    18    13    14    1
    19    16    15    1
    20    15    14    1
