@<TRIPOS>MOLECULE
3dpe_AXB_A_1.pdb
 37 42 0 0 0
SMALL
GASTEIGER

@<TRIPOS>ATOM
      1  N1        13.7060   -0.0880    2.6590 N.2     1  AXB1       -0.1474
      2  CAZ       12.9610    0.8860    3.1710 C.2     1  AXB1        0.1442
      3  CBF       13.1210    2.4050    3.2600 C.2     1  AXB1        0.2486
      4  OAD       14.0090    3.2120    2.9990 O.2     1  AXB1       -0.2820
      5  CBG       11.7390    2.4470    3.9090 C.2     1  AXB1        0.2332
      6  OAE       10.9760    3.3170    4.3220 O.2     1  AXB1       -0.2860
      7  CBD       11.7400    0.9170    3.8420 C.3     1  AXB1        0.1694
      8  N2        10.9110   -0.0270    4.2760 N.3     1  AXB1       -0.2586
      9  CAM       10.2020    0.2230    5.5420 C.3     1  AXB1        0.0777
     10  CAK        8.8740   -0.5360    5.5940 C.3     1  AXB1        0.0434
     11  CAP       11.1110   -1.3890    3.7550 C.3     1  AXB1        0.0994
     12  CAY       10.1500   -2.3860    4.4040 C.ar    1  AXB1       -0.0103
     13  CAJ       10.3370   -3.7300    4.1080 C.ar    1  AXB1       -0.0058
     14  CAX        9.1140   -2.0060    5.2490 C.ar    1  AXB1       -0.0235
     15  CAI        8.2730   -2.9740    5.7890 C.ar    1  AXB1       -0.0048
     16  CAH        8.4620   -4.3190    5.4910 C.ar    1  AXB1       -0.0029
     17  CAW        9.4980   -4.6970    4.6460 C.ar    1  AXB1       -0.0008
     18  CAO        9.7450   -6.1610    4.2790 C.3     1  AXB1        0.1425
     19  N3         8.6660   -7.0190    4.7870 N.am    1  AXB1       -0.1865
     20  CAV        7.4470   -7.0320    4.2560 C.2     1  AXB1        0.3516
     21  OAB        7.0830   -6.3330    3.3120 O.2     1  AXB1       -0.2548
     22  CBB        6.4930   -8.0100    4.9420 C.1     1  AXB1        0.2074
     23  N4         6.9780   -8.8170    5.8930 N.2     1  AXB1       -0.3286
     24  CBH        6.1890   -9.6950    6.5230 C.2     1  AXB1        0.1812
     25  SAU        6.5510  -10.8230    7.7550 S.3     1  AXB1       -0.0756
     26  CBA        4.9770  -11.4750    7.9150 C.3     1  AXB1        0.0970
     27  CAQ        4.5630  -12.5970    8.8690 C.3     1  AXB1        0.1660
     28  SBK        2.7430  -12.6950    8.9870 S.O2    1  AXB1       -0.0085
     29  OAF        2.3330  -14.0690    9.4280 O.2     1  AXB1       -0.1729
     30  OAG        2.2390  -11.6660    9.9550 O.2     1  AXB1       -0.1729
     31  CAN        2.1380  -12.3370    7.3000 C.3     1  AXB1        0.1552
     32  CAL        2.6560  -10.9730    6.8430 C.3     1  AXB1        0.0491
     33  CBC        4.1700  -10.7940    7.0000 C.2     1  AXB1       -0.0157
     34  CBI        4.8310   -9.8260    6.2360 C.2     1  AXB1        0.1248
     35  CBE        4.3130   -8.9940    5.2490 C.1     1  AXB1        0.2170
     36  OAC        3.1210   -9.0410    4.9470 O.2     1  AXB1       -0.2085
     37  N5         5.1410   -8.0780    4.5910 N.2     1  AXB1       -0.2616
@<TRIPOS>BOND
     1     1     2    2
     2     4     3    2
     3     2     3    1
     4     2     7    1
     5     3     5    1
     6    21    20    2
     7    11     8    1
     8    11    12    1
     9     7     5    1
    10     7     8    1
    11     5     6    2
    12    13    12   ar
    13    13    17   ar
    14    20    19   am
    15    20    22    1
    16     8     9    1
    17    18    17    1
    18    18    19    1
    19    12    14   ar
    20    37    22    2
    21    37    35    2
    22    17    16   ar
    23    22    23    2
    24    36    35    2
    25    14    10    1
    26    14    15   ar
    27    35    34    1
    28    16    15   ar
    29     9    10    1
    30    23    24    2
    31    34    24    1
    32    34    33    2
    33    24    25    1
    34    32    33    1
    35    32    31    1
    36    33    26    1
    37    31    28    1
    38    25    26    1
    39    26    27    1
    40    27    28    1
    41    28    29    2
    42    28    30    2
