@<TRIPOS>MOLECULE
3dpf_AXB_A_1.pdb
 37 42 0 0 0
SMALL
GASTEIGER

@<TRIPOS>ATOM
      1  N1        14.4250   31.5970   19.1950 N.pl3   1  AXB1       -0.1232
      2  CAZ       13.6030   32.5630   18.7920 C.2     1  AXB1        0.1476
      3  CBF       13.5700   34.0500   18.9400 C.2     1  AXB1        0.2534
      4  OAD       14.3200   34.9200   19.5000 O.2     1  AXB1       -0.2816
      5  CBG       12.2770   34.0960   18.2040 C.2     1  AXB1        0.2502
      6  OAE       11.4860   34.9530   17.8120 O.2     1  AXB1       -0.2817
      7  CBD       12.4120   32.5790   18.0690 C.2     1  AXB1        0.1111
      8  N2        11.6950   31.6480   17.4430 N.pl3   1  AXB1       -0.2995
      9  CAM       10.2810   32.0410   17.3450 C.3     1  AXB1        0.0959
     10  CAK        9.6220   31.2170   16.2360 C.3     1  AXB1        0.0475
     11  CAP       11.7980   30.3360   18.1000 C.3     1  AXB1        0.1175
     12  CAY       11.0160   29.3360   17.2460 C.ar    1  AXB1       -0.0066
     13  CAJ       11.3470   27.9880   17.3260 C.ar    1  AXB1       -0.0055
     14  CAX       10.0000   29.7430   16.3870 C.ar    1  AXB1       -0.0228
     15  CAI        9.3250   28.8000   15.6210 C.ar    1  AXB1       -0.0047
     16  CAH        9.6570   27.4510   15.7010 C.ar    1  AXB1       -0.0029
     17  CAW       10.6730   27.0460   16.5580 C.ar    1  AXB1       -0.0008
     18  CAO       11.0650   25.5700   16.6760 C.3     1  AXB1        0.1425
     19  N3        10.3380   24.7390   15.7050 N.am    1  AXB1       -0.1865
     20  CAV       10.6780   24.6720   14.4210 C.2     1  AXB1        0.3516
     21  OAB       11.5960   25.3120   13.9100 O.2     1  AXB1       -0.2548
     22  CBB        9.8050   23.7350   13.5850 C.1     1  AXB1        0.2074
     23  N4         8.8330   23.0350   14.1850 N.2     1  AXB1       -0.3286
     24  CBH        8.0330   22.2130   13.4920 C.2     1  AXB1        0.1812
     25  SAU        6.7280   21.2280   13.9980 S.3     1  AXB1       -0.0756
     26  CBA        6.3350   20.5850   12.4610 C.3     1  AXB1        0.0970
     27  CAQ        5.2300   19.5690   12.1590 C.3     1  AXB1        0.1660
     28  SBK        4.8970   19.4910   10.3640 S.O2    1  AXB1       -0.0085
     29  OAF        4.2750   18.1710   10.0130 O.2     1  AXB1       -0.1729
     30  OAG        3.9910   20.6210    9.9730 O.2     1  AXB1       -0.1729
     31  CAN        6.5350   19.6650    9.5730 C.3     1  AXB1        0.1552
     32  CAL        7.2010   20.9640   10.0320 C.3     1  AXB1        0.0491
     33  CBC        7.2310   21.1560   11.5530 C.2     1  AXB1       -0.0157
     34  CBI        8.1590   22.0360   12.1160 C.2     1  AXB1        0.1248
     35  CBE        9.1670   22.7510   11.4770 C.1     1  AXB1        0.2170
     36  OAC        9.3390   22.6390   10.2640 O.2     1  AXB1       -0.2085
     37  N5        10.0000   23.6080   12.2060 N.2     1  AXB1       -0.2616
@<TRIPOS>BOND
     1    31    32    1
     2    31    28    1
     3    30    28    2
     4    29    28    2
     5    32    33    1
     6    36    35    2
     7    28    27    1
     8    35    34    1
     9    35    37    2
    10    33    34    2
    11    33    26    1
    12    34    24    1
    13    27    26    1
    14    37    22    2
    15    26    25    1
    16    24    25    1
    17    24    23    2
    18    22    23    2
    19    22    20    1
    20    21    20    2
    21    20    19   am
    22    15    16   ar
    23    15    14   ar
    24    16    17   ar
    25    19    18    1
    26    10    14    1
    27    10     9    1
    28    14    12   ar
    29    17    18    1
    30    17    13   ar
    31    12    13   ar
    32    12    11    1
    33     9     8    1
    34     8     7    1
    35     8    11    1
    36     6     5    2
    37     7     5    1
    38     7     2    2
    39     5     3    1
    40     2     3    1
    41     2     1    1
    42     3     4    2
