@<TRIPOS>MOLECULE
3dpm_LAS_A_1.pdb
 15 15 0 0 0
SMALL
GASTEIGER

@<TRIPOS>ATOM
      1  C18       -8.1000    7.4600   17.6940 C.2   800  LAS800      0.2350
      2  O19       -6.8870    7.7090   17.5730 O.2   800  LAS800     -0.2860
      3  C9        -8.7230    7.4630   19.0920 C.3   800  LAS800      0.2091
      4  C10      -10.0010    8.3220   19.1210 C.3   800  LAS800      0.1827
      5  C11       -9.8950    9.8340   18.9330 C.3   800  LAS800      0.0329
      6  C16       -8.5130   10.2470   18.4370 C.3   800  LAS800      0.0027
      7  C12      -10.9650   10.2080   17.9060 C.3   800  LAS800      0.0027
      8  O17      -10.5940    8.1280   20.4010 O.3   800  LAS800     -0.2205
      9  N8        -7.6800    7.7900   20.1220 N.2   800  LAS800     -0.1974
     10  C6        -7.7950    6.8820   21.0990 C.1   800  LAS800      0.1279
     11  O7        -7.1420    6.8850   22.1380 O.2   800  LAS800     -0.2270
     12  C5        -8.9220    5.8730   20.8230 C.3   800  LAS800      0.1390
     13  C20       -8.4550    4.4690   21.2250 C.3   800  LAS800      0.0204
     14  C3        -9.0600    5.9730   19.3040 C.3   800  LAS800      0.1980
     15  O2        -7.9740    5.1930   18.7870 O.3   800  LAS800     -0.2194
@<TRIPOS>BOND
     1     2     1    2
     2     1     3    1
     3     7     5    1
     4     6     5    1
     5    15    14    1
     6     5     4    1
     7     3     4    1
     8     3    14    1
     9     3     9    1
    10     4     8    1
    11    14    12    1
    12     9    10    2
    13    12    10    1
    14    12    13    1
    15    10    11    2
