@<TRIPOS>MOLECULE
3dpy_III_C_1.pdb
 23 22 0 0 0
SMALL
GASTEIGER

@<TRIPOS>ATOM
      1  N         67.4830   19.1570   -1.3050 N.3   2007  VAL2007    -0.1231
      2  CA        68.5850   19.2570   -2.3000 C.3   2007  VAL2007     0.1692
      3  C         68.8340   20.7090   -2.7120 C.2   2007  VAL2007     0.2592
      4  O         67.9130   21.4280   -3.1150 O.2   2007  VAL2007    -0.2718
      5  CB        68.2900   18.3540   -3.5130 C.3   2007  VAL2007     0.0266
      6  CG1       69.0150   18.8140   -4.7620 C.3   2007  VAL2007     0.0020
      7  CG2       68.6600   16.9210   -3.1770 C.3   2007  VAL2007     0.0020
      8  N         70.0840   21.1380   -2.5940 N.am  2008  ILE2008    -0.1966
      9  CA        70.4490   22.5000   -2.9410 C.3   2008  ILE2008     0.1727
     10  C         71.2880   22.5620   -4.2140 C.2   2008  ILE2008     0.2616
     11  O         71.7670   23.6330   -4.5990 O.2   2008  ILE2008    -0.2715
     12  CB        71.2230   23.1880   -1.8000 C.3   2008  ILE2008     0.0290
     13  CG1       72.5090   22.4230   -1.4830 C.3   2008  ILE2008     0.0022
     14  CG2       70.3320   23.3310   -0.5760 C.3   2008  ILE2008     0.0023
     15  CD1       73.5870   23.2840   -0.8750 C.3   2008  ILE2008     0.0001
     16  N         71.4500   21.4220   -4.8750 N.am  2009  MET2009    -0.1977
     17  CA        72.3080   21.3690   -6.0450 C.3   2009  MET2009     0.1605
     18  C         71.7030   20.6100   -7.2220 C.2   2009  MET2009     0.2287
     19  O         71.3520   19.4440   -7.1050 O.2   2009  MET2009    -0.2864
     20  CB        73.6610   20.7740   -5.6820 C.3   2009  MET2009     0.0413
     21  CG        74.6260   20.8780   -6.8020 C.3   2009  MET2009     0.0598
     22  SD        76.1750   20.0170   -6.5610 S.3   2009  MET2009    -0.1393
     23  CE        76.5850   19.8520   -8.2910 C.3   2009  MET2009     0.0692
@<TRIPOS>BOND
     1    23    22    1
     2    18    19    2
     3    18    17    1
     4    21    22    1
     5    21    20    1
     6    17    20    1
     7    17    16    1
     8    16    10   am
     9     6     5    1
    10    11    10    2
    11    10     9    1
    12     5     7    1
    13     5     2    1
    14     4     3    2
    15     9     8    1
    16     9    12    1
    17     3     8   am
    18     3     2    1
    19     2     1    1
    20    12    13    1
    21    12    14    1
    22    13    15    1
