@<TRIPOS>MOLECULE
3dpy_FPP_B_1.pdb
 24 23 0 0 0
SMALL
GASTEIGER

@<TRIPOS>ATOM
      1  C1        62.9570   24.4030   -1.8220 C.3   1002  FPP1002     0.1747
      2  O1        62.8050   23.0700   -1.3310 O.3   1002  FPP1002    -0.3089
      3  C2        64.4260   24.7690   -1.8330 C.2   1002  FPP1002    -0.0024
      4  C3        65.1230   24.9660   -2.9680 C.2   1002  FPP1002    -0.0454
      5  C4        64.4660   24.8140   -4.3120 C.3   1002  FPP1002     0.0261
      6  C5        66.5960   25.3320   -2.9240 C.3   1002  FPP1002     0.0264
      7  C6        66.8940   26.2600   -1.7550 C.3   1002  FPP1002     0.0297
      8  C7        68.3370   26.7260   -1.7600 C.2   1002  FPP1002    -0.0342
      9  C8        69.0160   26.7710   -0.6020 C.2   1002  FPP1002    -0.0478
     10  C10       68.3490   26.3490    0.6740 C.3   1002  FPP1002     0.0260
     11  C9        70.4480   27.2490   -0.5410 C.3   1002  FPP1002     0.0263
     12  C11       71.0580   27.4530   -1.9210 C.3   1002  FPP1002     0.0297
     13  C12       72.4370   28.0070   -1.6850 C.2   1002  FPP1002    -0.0342
     14  C13       73.5550   27.5560   -2.2790 C.2   1002  FPP1002    -0.0478
     15  C14       73.5430   26.4180   -3.2560 C.3   1002  FPP1002     0.0260
     16  C15       74.8600   28.2210   -1.9460 C.3   1002  FPP1002     0.0260
     17  PA        61.5810   22.6180   -0.3910 P.3   1002  FPP1002     0.2233
     18  O1A       60.1630   23.0870   -0.9400 O.2   1002  FPP1002    -0.5169
     19  O2A       61.5860   20.8470   -0.2890 O.3   1002  FPP1002    -0.4370
     20  O3A       61.9770   23.3740    0.9600 O.3   1002  FPP1002    -0.2261
     21  PB        61.0580   24.5010    1.6520 P.3   1002  FPP1002     0.5373
     22  O1B       59.5750   24.0050    1.8410 O.3   1002  FPP1002    -0.1143
     23  O2B       61.0690   25.9180    0.5720 O.2   1002  FPP1002    -0.2221
     24  O3B       61.7470   24.9060    3.2390 O.3   1002  FPP1002    -0.1143
@<TRIPOS>BOND
     1     5     4    1
     2    15    14    1
     3     4     6    1
     4     4     3    2
     5     6     7    1
     6    14    16    1
     7    14    13    2
     8    12    13    1
     9    12    11    1
    10     3     1    1
    11     1     2    1
    12     8     7    1
    13     8     9    2
    14     2    17    1
    15    18    17    2
    16     9    11    1
    17     9    10    1
    18    17    19    1
    19    17    20    1
    20    23    21    2
    21    20    21    1
    22    21    22    1
    23    21    24    1
