@<TRIPOS>MOLECULE
3dq0_MZO_A_1.pdb
 18 20 0 0 0
SMALL
GASTEIGER

@<TRIPOS>ATOM
      1  CAA       39.2060    1.3610    4.2690 C.3   601  MZO601      0.2525
      2  OAM       39.8060    2.6250    3.9740 O.3   601  MZO601     -0.4713
      3  CAP       38.8480    3.4920    3.5670 C.ar  601  MZO601      0.1423
      4  CAG       38.8790    4.7910    4.0530 C.ar  601  MZO601      0.0812
      5  CAF       37.8660    3.0940    2.6500 C.ar  601  MZO601      0.0371
      6  CAC       36.8960    3.9970    2.2400 C.ar  601  MZO601      0.0068
      7  CAE       36.9300    5.3010    2.7330 C.ar  601  MZO601      0.0446
      8  CAO       37.9120    5.7020    3.6430 C.ar  601  MZO601      0.1865
      9  N6        37.9600    6.9390    4.1510 N.pl3 601  MZO601     -0.0040
     10  C6        37.4180    8.0370    3.6180 C.2   601  MZO601      0.3904
     11  C5        37.9310    9.2790    3.9850 C.2   601  MZO601      0.2260
     12  N7        38.9030    9.6740    4.8050 N.2   601  MZO601     -0.2268
     13  C8        38.9630   11.0020    4.7600 C.3   601  MZO601      0.2618
     14  N9        38.0290   11.4510    3.9160 N.2   601  MZO601     -0.1914
     15  C4        37.3690   10.4130    3.4220 C.1   601  MZO601      0.0578
     16  N3        36.3540   10.2900    2.5450 N.2   601  MZO601     -0.1640
     17  C2        35.8830    9.0980    2.2120 C.3   601  MZO601      0.4006
     18  N1        36.3900    7.9900    2.7380 N.2   601  MZO601     -0.0301
@<TRIPOS>BOND
     1    17    16    1
     2    17    18    1
     3     6     5   ar
     4     6     7   ar
     5    16    15    2
     6     5     3   ar
     7     7     8   ar
     8    18    10    2
     9    15    14    2
    10    15    11    1
    11     3     2    1
    12     3     4   ar
    13    10    11    1
    14    10     9    1
    15     8     4   ar
    16     8     9    1
    17    14    13    1
    18     2     1    1
    19    11    12    2
    20    13    12    1
