@<TRIPOS>MOLECULE
3dqr_HEM_A_1.pdb
 43 50 0 0 0
SMALL
GASTEIGER

@<TRIPOS>ATOM
      1 FE         15.6800    4.4340   24.4350 Fe    750  HEM750      0.0000
      2  CHA       12.8900    4.6140   26.5060 C.2   750  HEM750      0.0000
      3  CHB       16.5410    1.5520   26.1380 C.2   750  HEM750      0.0000
      4  CHC       17.6230    3.4260   21.8470 C.2   750  HEM750      0.0000
      5  CHD       14.4980    7.0700   22.7070 C.2   750  HEM750      0.0000
      6  NA        14.9530    3.3700   26.0450 N.2   750  HEM750      0.0000
      7  C1A       13.7620    3.6150   26.7710 C.2   750  HEM750      0.0000
      8  C2A       13.4920    2.6010   27.7410 C.2   750  HEM750      0.0000
      9  C3A       14.5460    1.7540   27.6730 C.2   750  HEM750      0.0000
     10  C4A       15.4250    2.2150   26.5910 C.2   750  HEM750      0.0000
     11  CMA       14.7420    0.5590   28.6300 C.3   750  HEM750      0.0000
     12  CAA       12.2310    2.4130   28.5960 C.3   750  HEM750      0.0000
     13  CBA       11.2560    1.6460   27.7120 C.3   750  HEM750      0.0000
     14  CGA        9.9240    1.4230   28.3790 C.2   750  HEM750      0.0000
     15  O1A        9.9410    1.0090   29.5650 O.co2 750  HEM750      0.0000
     16  O2A        8.8700    1.6500   27.7240 O.co2 750  HEM750      0.0000
     17  NB        16.9420    2.8680   24.1160 N.ar  750  HEM750      0.0000
     18  C1B       17.2820    1.8780   25.0180 C.ar  750  HEM750      0.0000
     19  C2B       18.4010    1.0880   24.5510 C.ar  750  HEM750      0.0000
     20  C3B       18.7110    1.5790   23.3120 C.ar  750  HEM750      0.0000
     21  C4B       17.7860    2.6810   23.0520 C.ar  750  HEM750      0.0000
     22  CMB       19.0490   -0.0930   25.2870 C.3   750  HEM750      0.0000
     23  CAB       19.7360    1.0120   22.5050 C.2   750  HEM750      0.0000
     24  CBB       20.2270    1.5000   21.3190 C.2   750  HEM750      0.0000
     25  NC        15.9820    5.1270   22.6340 N.2   750  HEM750      0.0000
     26  C1C       16.7840    4.5680   21.6460 C.2   750  HEM750      0.0000
     27  C2C       16.7800    5.3530   20.4280 C.2   750  HEM750      0.0000
     28  C3C       15.9630    6.4510   20.7730 C.2   750  HEM750      0.0000
     29  C4C       15.4870    6.2720   22.1120 C.2   750  HEM750      0.0000
     30  CMC       17.5210    5.0180   19.0880 C.3   750  HEM750      0.0000
     31  CAC       15.5780    7.5540   20.0190 C.2   750  HEM750      0.0000
     32  CBC       16.2100    7.8830   18.8600 C.2   750  HEM750      0.0000
     33  ND        14.0900    5.6520   24.6400 N.ar  750  HEM750      0.0000
     34  C1D       13.8220    6.7740   23.8830 C.ar  750  HEM750      0.0000
     35  C2D       12.6460    7.4260   24.3400 C.ar  750  HEM750      0.0000
     36  C3D       12.1920    6.6720   25.3790 C.ar  750  HEM750      0.0000
     37  C4D       13.0520    5.5570   25.5230 C.ar  750  HEM750      0.0000
     38  CMD       12.0300    8.7040   23.7740 C.3   750  HEM750      0.0000
     39  CAD       11.0180    6.9250   26.3150 C.3   750  HEM750      0.0000
     40  CBD        9.7050    6.6230   25.6190 C.3   750  HEM750      0.0000
     41  CGD        8.5140    6.8030   26.5370 C.2   750  HEM750      0.0000
     42  O1D        8.3610    7.8960   27.1270 O.co2 750  HEM750      0.0000
     43  O2D        7.7320    5.8410   26.6650 O.co2 750  HEM750      0.0000
@<TRIPOS>BOND
     1    32    31    2
     2    30    27    1
     3    31    28    1
     4    27    28    2
     5    27    26    1
     6    28    29    1
     7    24    23    2
     8    26     4    2
     9    26    25    1
    10     4    21    1
    11    29    25    2
    12    29     5    1
    13    23    20    1
    14    25     1    1
    15     5    34    2
    16    21    20   ar
    17    21    17   ar
    18    20    19   ar
    19    38    35    1
    20    34    35   ar
    21    34    33   ar
    22    17     1    1
    23    17    18   ar
    24    35    36   ar
    25     1    33    1
    26     1     6    1
    27    19    18   ar
    28    19    22    1
    29    33    37   ar
    30    18     3    1
    31    36    37   ar
    32    36    39    1
    33    37     2    2
    34    40    39    1
    35    40    41    1
    36     6    10    1
    37     6     7    2
    38     3    10    2
    39     2     7    1
    40    41    43   ar
    41    41    42   ar
    42    10     9    1
    43     7     8    1
    44     9     8    2
    45     9    11    1
    46    13    14    1
    47    13    12    1
    48    16    14   ar
    49     8    12    1
    50    14    15   ar
