@<TRIPOS>MOLECULE
3dqr_H4B_A_1.pdb
 17 18 0 0 0
SMALL
GASTEIGER

@<TRIPOS>ATOM
      1  N1         9.9490    2.5380   33.7980 N.2   760  H4B760     -0.2683
      2  C2        10.1040    2.1910   32.5050 C.1   760  H4B760      0.2608
      3  N2        11.3010    2.0580   31.9450 N.pl3 760  H4B760     -0.0220
      4  N3         8.9880    1.9710   31.7640 N.2   760  H4B760     -0.2474
      5  C4         7.6590    2.0780   32.2470 C.1   760  H4B760      0.2441
      6  O4         6.7120    1.8520   31.4700 O.2   760  H4B760     -0.2063
      7  C4A        7.5840    2.4510   33.6210 C.2   760  H4B760      0.2463
      8  C8A        8.7180    2.6780   34.3980 C.1   760  H4B760      0.1270
      9  N5         6.2550    2.5890   34.2150 N.2   760  H4B760     -0.2460
     10  N8         8.6550    3.0260   35.7050 N.2   760  H4B760     -0.2054
     11  C6         6.2290    3.5400   35.4200 C.3   760  H4B760      0.1627
     12  C7         7.3500    3.1740   36.3840 C.3   760  H4B760      0.1643
     13  C9         4.7920    3.4630   35.9810 C.3   760  H4B760      0.2063
     14  O9         4.4680    2.1640   36.4560 O.3   760  H4B760     -0.2183
     15  C10        4.5520    4.4570   37.1330 C.3   760  H4B760      0.1842
     16  C11        3.1190    4.4690   37.5300 C.3   760  H4B760      0.0383
     17  O10        4.9650    5.7430   36.6390 O.3   760  H4B760     -0.2204
@<TRIPOS>BOND
     1     6     5    2
     2     4     5    2
     3     4     2    2
     4     3     2    1
     5     5     7    1
     6     2     1    2
     7     7     9    2
     8     7     8    1
     9     1     8    2
    10     9    11    1
    11     8    10    2
    12    11    13    1
    13    11    12    1
    14    10    12    1
    15    13    14    1
    16    13    15    1
    17    17    15    1
    18    15    16    1
