@<TRIPOS>MOLECULE
3dqr_JI2_A_1.pdb
 17 18 0 0 0
SMALL
GASTEIGER

@<TRIPOS>ATOM
      1  C6        14.3340    0.1090   23.5280 C.2   800  JI2800      0.2181
      2  N6        15.0760   -0.8840   23.9640 N.pl3 800  JI2800     -0.0932
      3  C5        14.8110    0.9750   22.4930 C.2   800  JI2800      0.0466
      4  C4        13.9620    2.0570   22.0440 C.2   800  JI2800     -0.0149
      5  C3        12.6540    2.2690   22.6220 C.3   800  JI2800      0.0805
      6  C2        12.2390    1.3520   23.6610 C.2   800  JI2800      0.0929
      7  N1        13.0930    0.3180   24.0660 N.2   800  JI2800     -0.3922
      8  N1'        9.8470   -1.4250   24.9400 N.3   800  JI2800     -0.2165
      9  C2'        8.7040   -0.6190   25.5010 C.3   800  JI2800      0.1060
     10  C3'        8.4190    0.4910   24.4370 C.3   800  JI2800      0.0919
     11  C4'        9.7430    0.5820   23.6260 C.3   800  JI2800      0.0415
     12  C5'       10.1710   -0.9130   23.5950 C.3   800  JI2800      0.0906
     13  C7        10.8430    1.4810   24.3410 C.3   800  JI2800      0.0577
     14  N8         8.0690    1.7560   25.1450 N.3   800  JI2800     -0.2164
     15  C9         6.8900    2.5380   24.6840 C.3   800  JI2800      0.1092
     16  C10        6.2940    3.3890   25.8220 C.3   800  JI2800      0.1280
     17  N11        5.4130    2.5410   26.6970 N.3   800  JI2800     -0.1298
@<TRIPOS>BOND
     1     4     3    2
     2     4     5    1
     3     3     1    1
     4     5     6    1
     5     1     2    1
     6     1     7    2
     7    12    11    1
     8    12     8    1
     9    11    13    1
    10    11    10    1
    11     6     7    2
    12     6    13    1
    13    10    14    1
    14    10     9    1
    15    15    14    1
    16    15    16    1
    17     8     9    1
    18    16    17    1
