@<TRIPOS>MOLECULE
3dqs_JI3_A_1.pdb
 26 28 0 0 0
SMALL
GASTEIGER

@<TRIPOS>ATOM
      1  C21       16.0540   16.2010   39.1920 C.ar  800  JI3800     -0.0020
      2  C22       17.2920   16.8510   39.4300 C.ar  800  JI3800      0.0111
      3  C23       18.5150   16.1790   39.1400 C.ar  800  JI3800      0.0577
      4 CL         20.0610   16.9940   39.4350 Cl    800  JI3800     -0.0822
      5  C24       18.4970   14.8570   38.6140 C.ar  800  JI3800      0.0111
      6  C25       17.2540   14.2060   38.3760 C.ar  800  JI3800     -0.0020
      7  C26       16.0350   14.8790   38.6650 C.ar  800  JI3800     -0.0047
      8  C6         5.9690   11.8070   31.6540 C.2   800  JI3800      0.2001
      9  N6         4.6560   11.9230   31.8510 N.pl3 800  JI3800     -0.0977
     10  C5         6.5030   11.1000   30.4880 C.3   800  JI3800      0.1001
     11  C4         7.9580   11.0130   30.3420 C.2   800  JI3800     -0.0332
     12  C3         8.8620   11.6150   31.3280 C.2   800  JI3800      0.0196
     13  C2         8.2460   12.2970   32.4520 C.2   800  JI3800      0.1098
     14  N1         6.8490   12.3640   32.5650 N.2   800  JI3800     -0.3924
     15  N1'        8.0200   15.8570   34.1790 N.3   800  JI3800     -0.2165
     16  C2'        9.2390   15.7770   35.0730 C.3   800  JI3800      0.1060
     17  C3'       10.3620   15.2120   34.1220 C.3   800  JI3800      0.0919
     18  C4'        9.5950   14.4250   33.0400 C.3   800  JI3800      0.0419
     19  C5'        8.3900   15.3920   32.8160 C.3   800  JI3800      0.0906
     20  C7         9.1060   12.9860   33.5440 C.3   800  JI3800      0.0619
     21  C8         8.5540   10.2910   29.1380 C.3   800  JI3800      0.0269
     22  N8        11.2790   14.3550   34.9000 N.3   800  JI3800     -0.2164
     23  C9        12.3750   15.0570   35.6240 C.3   800  JI3800      0.1075
     24  C10       12.7990   14.3030   36.8630 C.3   800  JI3800      0.1078
     25  N11       13.9790   15.0210   37.4100 N.3   800  JI3800     -0.2118
     26  C12       14.6990   14.1910   38.3970 C.3   800  JI3800      0.1150
@<TRIPOS>BOND
     1    21    11    1
     2    11    10    1
     3    11    12    2
     4    10     8    1
     5    12    13    1
     6     8     9    1
     7     8    14    2
     8    13    14    2
     9    13    20    1
    10    19    18    1
    11    19    15    1
    12    18    20    1
    13    18    17    1
    14    17    22    1
    15    17    16    1
    16    15    16    1
    17    22    23    1
    18    23    24    1
    19    24    25    1
    20    25    26    1
    21     6     5   ar
    22     6     7   ar
    23    26     7    1
    24     5     3   ar
    25     7     1   ar
    26     3     2   ar
    27     3     4    1
    28     1     2   ar
