@<TRIPOS>MOLECULE
3dqs_HEM_A_1.pdb
 43 50 0 0 0
SMALL
GASTEIGER

@<TRIPOS>ATOM
      1  CHA        9.2810    9.0010   35.1670 C.2   700  HEM700      0.0000
      2  CHB        4.6130    9.1410   33.7190 C.2   700  HEM700      0.0000
      3  CHC        6.0010    7.3530   29.3550 C.2   700  HEM700      0.0000
      4  CHD       10.4860    6.7040   31.0470 C.2   700  HEM700      0.0000
      5  C1A        7.8780    9.2460   35.1010 C.2   700  HEM700      0.0000
      6  C2A        7.1230    9.9480   36.1230 C.2   700  HEM700      0.0000
      7  C3A        5.8150    9.9770   35.7470 C.2   700  HEM700      0.0000
      8  C4A        5.7670    9.2900   34.4740 C.2   700  HEM700      0.0000
      9  CMA        4.6040   10.5480   36.5220 C.3   700  HEM700      0.0000
     10  CAA        7.7830   10.6230   37.3520 C.3   700  HEM700      0.0000
     11  CBA        8.2570   11.9270   36.7170 C.3   700  HEM700      0.0000
     12  CGA        8.7310   12.9620   37.7120 C.2   700  HEM700      0.0000
     13  O1A        8.1310   13.0700   38.8060 O.co2 700  HEM700      0.0000
     14  O2A        9.6990   13.6890   37.3860 O.co2 700  HEM700      0.0000
     15  C1B        4.5630    8.5500   32.4300 C.ar  700  HEM700      0.0000
     16  C2B        3.3750    8.5380   31.6080 C.ar  700  HEM700      0.0000
     17  C3B        3.7460    8.0350   30.3890 C.ar  700  HEM700      0.0000
     18  C4B        5.1900    7.7400   30.4630 C.ar  700  HEM700      0.0000
     19  CMB        2.0080    9.0810   32.0110 C.3   700  HEM700      0.0000
     20  CAB        2.9190    7.9650   29.2800 C.2   700  HEM700      0.0000
     21  CBB        2.9590    7.0810   28.2250 C.2   700  HEM700      0.0000
     22  C1C        7.3570    7.0710   29.3940 C.2   700  HEM700      0.0000
     23  C2C        8.1630    6.6630   28.2600 C.2   700  HEM700      0.0000
     24  C3C        9.4310    6.3960   28.7630 C.2   700  HEM700      0.0000
     25  C4C        9.3960    6.7340   30.1990 C.2   700  HEM700      0.0000
     26  CMC        7.7660    6.5800   26.7820 C.3   700  HEM700      0.0000
     27  CAC       10.5580    5.8720   28.0980 C.3   700  HEM700      0.0000
     28  CBC       10.5980    5.0880   26.9620 C.3   700  HEM700      0.0000
     29  C1D       10.5400    7.1920   32.3590 C.ar  700  HEM700      0.0000
     30  C2D       11.7430    7.2540   33.1670 C.ar  700  HEM700      0.0000
     31  C3D       11.4090    7.9370   34.2840 C.ar  700  HEM700      0.0000
     32  C4D       10.0120    8.2670   34.1940 C.ar  700  HEM700      0.0000
     33  CMD       13.1520    6.7200   32.8670 C.3   700  HEM700      0.0000
     34  CAD       12.3090    8.4390   35.4150 C.3   700  HEM700      0.0000
     35  CBD       13.2080    9.5940   35.0200 C.3   700  HEM700      0.0000
     36  CGD       13.7430   10.3640   36.2220 C.2   700  HEM700      0.0000
     37  O1D       14.1080    9.7410   37.2470 O.co2 700  HEM700      0.0000
     38  O2D       13.8110   11.6060   36.1350 O.co2 700  HEM700      0.0000
     39  NA         7.0310    8.8140   34.0900 N.2   700  HEM700      0.0000
     40  NB         5.6800    8.0200   31.7430 N.ar  700  HEM700      0.0000
     41  NC         8.1140    7.1470   30.6030 N.2   700  HEM700      0.0000
     42  ND         9.4700    7.7560   33.0040 N.ar  700  HEM700      0.0000
     43 FE          7.5190    7.6360   32.4970 Fe    700  HEM700      0.0000
@<TRIPOS>BOND
     1    26    23    1
     2    28    27    1
     3    27    24    1
     4    21    20    2
     5    23    24    2
     6    23    22    1
     7    24    25    1
     8    20    17    1
     9     3    22    2
    10     3    18    1
    11    22    41    1
    12    25    41    2
    13    25     4    1
    14    17    18   ar
    15    17    16   ar
    16    18    40   ar
    17    41    43    1
    18     4    29    2
    19    16    19    1
    20    16    15   ar
    21    40    15   ar
    22    40    43    1
    23    29    42   ar
    24    29    30   ar
    25    15     2    1
    26    43    42    1
    27    43    39    1
    28    33    30    1
    29    42    32   ar
    30    30    31   ar
    31     2     8    2
    32    39     8    1
    33    39     5    2
    34    32    31   ar
    35    32     1    2
    36    31    34    1
    37     8     7    1
    38    35    34    1
    39    35    36    1
    40     5     1    1
    41     5     6    1
    42     7     6    2
    43     7     9    1
    44     6    10    1
    45    38    36   ar
    46    36    37   ar
    47    11    10    1
    48    11    12    1
    49    14    12   ar
    50    12    13   ar
