@<TRIPOS>MOLECULE
3dqs_H4B_A_1.pdb
 17 18 0 0 0
SMALL
GASTEIGER

@<TRIPOS>ATOM
      1  N1         8.2440   11.6710   42.9640 N.2   760  H4B760     -0.2683
      2  C2         8.1350   12.0130   41.6570 C.1   760  H4B760      0.2608
      3  N2         7.2860   11.4130   40.8220 N.pl3 760  H4B760     -0.0220
      4  N3         8.9380   13.0190   41.1990 N.2   760  H4B760     -0.2474
      5  C4         9.8850   13.7350   41.9850 C.1   760  H4B760      0.2441
      6  O4        10.5700   14.6400   41.4580 O.2   760  H4B760     -0.2063
      7  C4A        9.9310   13.3150   43.3210 C.2   760  H4B760      0.2463
      8  C8A        9.1250   12.2960   43.8220 C.1   760  H4B760      0.1270
      9  N5        10.8780   14.0080   44.1810 N.2   760  H4B760     -0.2460
     10  N8         9.1730   11.9020   45.0900 N.2   760  H4B760     -0.2054
     11  C6        11.3110   13.2100   45.3890 C.3   760  H4B760      0.1627
     12  C7        10.1000   12.5410   46.0510 C.3   760  H4B760      0.1643
     13  C9        12.1370   14.1930   46.2780 C.3   760  H4B760      0.2063
     14  O9        11.4660   15.4220   46.5970 O.3   760  H4B760     -0.2183
     15  C10       12.5570   13.5310   47.5900 C.3   760  H4B760      0.1842
     16  C11       13.4930   14.4030   48.3650 C.3   760  H4B760      0.0383
     17  O10       13.1900   12.3180   47.1670 O.3   760  H4B760     -0.2204
@<TRIPOS>BOND
     1     3     2    1
     2     4     2    2
     3     4     5    2
     4     6     5    2
     5     2     1    2
     6     5     7    1
     7     1     8    2
     8     7     8    1
     9     7     9    2
    10     8    10    2
    11     9    11    1
    12    10    12    1
    13    11    12    1
    14    11    13    1
    15    13    14    1
    16    13    15    1
    17    17    15    1
    18    15    16    1
