@<TRIPOS>MOLECULE
3dqt_JI7_A_1.pdb
 26 28 0 0 0
SMALL
GASTEIGER

@<TRIPOS>ATOM
      1  C5         6.7220   11.2000   30.4100 C.3   800  JI7800      0.1001
      2  C4         8.1310   11.0880   30.3100 C.2   800  JI7800     -0.0332
      3  C3         8.9230   11.5950   31.3790 C.2   800  JI7800      0.0196
      4  C2         8.2840   12.1870   32.4930 C.2   800  JI7800      0.1098
      5  N1         6.9210   12.2810   32.5710 N.2   800  JI7800     -0.3924
      6  C6         6.1440   11.8090   31.5730 C.2   800  JI7800      0.2001
      7  C7         9.0160   12.7660   33.6710 C.3   800  JI7800      0.0619
      8  C4'        9.4510   14.2100   33.4990 C.3   800  JI7800      0.0419
      9  C3'       10.1580   14.7220   34.7590 C.3   800  JI7800      0.0919
     10  C2'        9.3330   16.0000   35.1370 C.3   800  JI7800      0.1060
     11  N1'        8.0090   15.8120   34.5680 N.3   800  JI7800     -0.2165
     12  C5'        8.2990   15.2390   33.2490 C.3   800  JI7800      0.0906
     13  N8        11.5750   14.9970   34.4300 N.3   800  JI7800     -0.2164
     14  C9        12.5810   14.5750   35.4280 C.3   800  JI7800      0.1075
     15  C10       12.1740   14.8720   36.9150 C.3   800  JI7800      0.1078
     16  N11       13.2670   15.4920   37.7020 N.3   800  JI7800     -0.2118
     17  C12       14.5850   14.9810   37.3960 C.3   800  JI7800      0.1151
     18  C26       15.6810   15.6330   38.2010 C.ar  800  JI7800     -0.0040
     19  C25       16.5260   14.8540   39.0220 C.ar  800  JI7800     -0.0028
     20  C24       17.5710   15.4320   39.7690 C.ar  800  JI7800      0.0006
     21  C23       17.7950   16.8310   39.7040 C.ar  800  JI7800      0.0114
     22  C22       16.9700   17.6490   38.8990 C.ar  800  JI7800      0.0574
     23  C21       15.9060   17.0670   38.1370 C.ar  800  JI7800      0.0085
     24 CL         17.2680   19.3470   38.8350 Cl    800  JI7800     -0.0823
     25  C8         8.7880   10.4580   29.1100 C.3   800  JI7800      0.0269
     26  N6         4.7840   11.9010   31.6440 N.pl3 800  JI7800     -0.0977
@<TRIPOS>BOND
     1    25     2    1
     2     2     1    1
     3     2     3    2
     4     1     6    1
     5     3     4    1
     6     6    26    1
     7     6     5    2
     8     4     5    2
     9     4     7    1
    10    12     8    1
    11    12    11    1
    12     8     7    1
    13     8     9    1
    14    13     9    1
    15    13    14    1
    16    11    10    1
    17     9    10    1
    18    14    15    1
    19    15    16    1
    20    17    16    1
    21    17    18    1
    22    23    18   ar
    23    23    22   ar
    24    18    19   ar
    25    24    22    1
    26    22    21   ar
    27    19    20   ar
    28    21    20   ar
