@<TRIPOS>MOLECULE
3dqt_H4B_A_1.pdb
 17 18 0 0 0
SMALL
GASTEIGER

@<TRIPOS>ATOM
      1  N1         8.3160   11.6820   43.0390 N.2   760  H4B760     -0.2683
      2  C2         8.1970   11.9890   41.7170 C.1   760  H4B760      0.2608
      3  N2         7.3840   11.3340   40.8900 N.pl3 760  H4B760     -0.0220
      4  N3         8.9520   13.0130   41.2410 N.2   760  H4B760     -0.2474
      5  C4         9.8530   13.7850   42.0140 C.1   760  H4B760      0.2441
      6  O4        10.4900   14.7010   41.4710 O.2   760  H4B760     -0.2063
      7  C4A        9.9140   13.3990   43.3670 C.2   760  H4B760      0.2463
      8  C8A        9.1640   12.3670   43.8850 C.1   760  H4B760      0.1270
      9  N5        10.8210   14.1430   44.2270 N.2   760  H4B760     -0.2460
     10  N8         9.2330   12.0090   45.1690 N.2   760  H4B760     -0.2054
     11  C6        11.3270   13.3150   45.3930 C.3   760  H4B760      0.1627
     12  C7        10.1260   12.7050   46.1020 C.3   760  H4B760      0.1643
     13  C9        12.2070   14.2640   46.2340 C.3   760  H4B760      0.2063
     14  O9        11.5600   15.5110   46.5050 O.3   760  H4B760     -0.2183
     15  C10       12.6240   13.6180   47.5820 C.3   760  H4B760      0.1842
     16  C11       13.6200   14.4520   48.3140 C.3   760  H4B760      0.0383
     17  O10       13.1790   12.3420   47.2310 O.3   760  H4B760     -0.2204
@<TRIPOS>BOND
     1     3     2    1
     2     4     2    2
     3     4     5    2
     4     6     5    2
     5     2     1    2
     6     5     7    1
     7     1     8    2
     8     7     8    1
     9     7     9    2
    10     8    10    2
    11     9    11    1
    12    10    12    1
    13    11    12    1
    14    11    13    1
    15    13    14    1
    16    13    15    1
    17    17    15    1
    18    15    16    1
