@<TRIPOS>MOLECULE
3dqt_HEM_A_1.pdb
 43 50 0 0 0
SMALL
GASTEIGER

@<TRIPOS>ATOM
      1  CHA        9.2670    8.9770   35.2150 C.2   700  HEM700      0.0000
      2  CHB        4.6320    9.1770   33.6870 C.2   700  HEM700      0.0000
      3  CHC        6.0360    7.5110   29.3800 C.2   700  HEM700      0.0000
      4  CHD       10.4880    6.8390   31.1220 C.2   700  HEM700      0.0000
      5  C1A        7.8940    9.2780   35.0870 C.2   700  HEM700      0.0000
      6  C2A        7.1090   10.0110   36.0600 C.2   700  HEM700      0.0000
      7  C3A        5.7790   10.0690   35.6730 C.2   700  HEM700      0.0000
      8  C4A        5.7800    9.3650   34.4140 C.2   700  HEM700      0.0000
      9  CMA        4.5490   10.6120   36.4430 C.3   700  HEM700      0.0000
     10  CAA        7.6910   10.6030   37.3430 C.3   700  HEM700      0.0000
     11  CBA        7.9590   12.0150   36.8790 C.3   700  HEM700      0.0000
     12  CGA        8.4260   12.9140   37.9850 C.2   700  HEM700      0.0000
     13  O1A        7.7130   12.9920   39.0070 O.co2 700  HEM700      0.0000
     14  O2A        9.4940   13.5480   37.8250 O.co2 700  HEM700      0.0000
     15  C1B        4.6140    8.5830   32.4380 C.ar  700  HEM700      0.0000
     16  C2B        3.4360    8.6270   31.6190 C.ar  700  HEM700      0.0000
     17  C3B        3.7760    8.1080   30.4130 C.ar  700  HEM700      0.0000
     18  C4B        5.2210    7.8660   30.4880 C.ar  700  HEM700      0.0000
     19  CMB        2.1540    9.3370   32.0200 C.3   700  HEM700      0.0000
     20  CAB        2.8920    7.9330   29.3480 C.2   700  HEM700      0.0000
     21  CBB        3.0660    7.0900   28.2940 C.2   700  HEM700      0.0000
     22  C1C        7.3930    7.2460   29.4650 C.2   700  HEM700      0.0000
     23  C2C        8.1940    6.7720   28.3650 C.2   700  HEM700      0.0000
     24  C3C        9.4430    6.5000   28.8870 C.2   700  HEM700      0.0000
     25  C4C        9.4010    6.8970   30.2720 C.2   700  HEM700      0.0000
     26  CMC        7.7670    6.6780   26.9180 C.3   700  HEM700      0.0000
     27  CAC       10.5590    5.8680   28.2980 C.2   700  HEM700      0.0000
     28  CBC       10.6580    5.3080   27.0560 C.2   700  HEM700      0.0000
     29  C1D       10.5010    7.2940   32.4260 C.ar  700  HEM700      0.0000
     30  C2D       11.7040    7.3920   33.2180 C.ar  700  HEM700      0.0000
     31  C3D       11.3860    8.0020   34.3610 C.ar  700  HEM700      0.0000
     32  C4D        9.9820    8.2770   34.2710 C.ar  700  HEM700      0.0000
     33  CMD       13.0820    6.7860   32.9350 C.3   700  HEM700      0.0000
     34  CAD       12.4220    8.2580   35.4710 C.3   700  HEM700      0.0000
     35  CBD       13.3230    9.4550   35.2000 C.3   700  HEM700      0.0000
     36  CGD       12.7230   10.7540   35.6780 C.2   700  HEM700      0.0000
     37  O1D       12.6360   10.9480   36.9150 O.co2 700  HEM700      0.0000
     38  O2D       12.3360   11.5750   34.8190 O.co2 700  HEM700      0.0000
     39  NA         7.0660    8.8700   34.0600 N.2   700  HEM700      0.0000
     40  NB         5.7090    8.1260   31.7500 N.ar  700  HEM700      0.0000
     41  NC         8.1330    7.3400   30.6450 N.2   700  HEM700      0.0000
     42  ND         9.4430    7.7850   33.0820 N.ar  700  HEM700      0.0000
     43 FE          7.5290    7.7900   32.4950 Fe    700  HEM700      0.0000
@<TRIPOS>BOND
     1    26    23    1
     2    28    27    2
     3    21    20    2
     4    27    24    1
     5    23    24    2
     6    23    22    1
     7    24    25    1
     8    20    17    1
     9     3    22    2
    10     3    18    1
    11    22    41    1
    12    25    41    2
    13    25     4    1
    14    17    18   ar
    15    17    16   ar
    16    18    40   ar
    17    41    43    1
    18     4    29    2
    19    16    19    1
    20    16    15   ar
    21    40    15   ar
    22    40    43    1
    23    29    42   ar
    24    29    30   ar
    25    15     2    1
    26    43    42    1
    27    43    39    1
    28    33    30    1
    29    42    32   ar
    30    30    31   ar
    31     2     8    2
    32    39     8    1
    33    39     5    2
    34    32    31   ar
    35    32     1    2
    36    31    34    1
    37     8     7    1
    38    38    36   ar
    39     5     1    1
    40     5     6    1
    41    35    34    1
    42    35    36    1
    43     7     6    2
    44     7     9    1
    45    36    37   ar
    46     6    10    1
    47    11    10    1
    48    11    12    1
    49    14    12   ar
    50    12    13   ar
