@<TRIPOS>MOLECULE
3dqw_AGS_A_1.pdb
 31 33 0 0 0
SMALL
GASTEIGER

@<TRIPOS>ATOM
      1  PG       -15.6300    4.6460  -26.8460 P.3   534  AGS534      0.4340
      2  S1G      -16.6250    3.0040  -26.2080 S.3   534  AGS534      0.0416
      3  O2G      -16.2240    4.6890  -28.3250 O.2   534  AGS534     -0.2423
      4  O3G      -15.9870    5.9200  -26.1990 O.3   534  AGS534     -0.1305
      5  PB       -13.0390    3.4270  -26.0670 P.3   534  AGS534      0.2262
      6  O1B      -13.7890    2.1630  -26.1860 O.2   534  AGS534     -0.5168
      7  O2B      -13.1500    4.1960  -24.7160 O.3   534  AGS534     -0.4369
      8  O3B      -14.0880    4.3650  -26.8980 O.3   534  AGS534     -0.2405
      9  PA       -10.2930    4.5560  -26.4800 P.3   534  AGS534      0.2189
     10  O1A      -10.3410    4.8100  -27.9310 O.2   534  AGS534     -0.5170
     11  O2A      -10.8280    5.7430  -25.5950 O.3   534  AGS534     -0.4371
     12  O3A      -11.5100    3.4820  -26.3910 O.3   534  AGS534     -0.2701
     13  O5'       -8.8700    4.1380  -25.8300 O.3   534  AGS534     -0.3112
     14  C5'       -8.7570    3.1250  -24.8280 C.3   534  AGS534      0.1813
     15  C4'       -7.2780    2.9860  -24.3000 C.3   534  AGS534      0.1821
     16  O4'       -6.4990    2.1000  -25.1240 O.3   534  AGS534     -0.3135
     17  C3'       -6.4920    4.3260  -24.4720 C.3   534  AGS534      0.2184
     18  O3'       -6.8960    5.1970  -23.4820 O.3   534  AGS534     -0.2174
     19  C2'       -5.0160    3.8290  -24.3960 C.3   534  AGS534      0.2570
     20  O2'       -4.7510    3.3010  -23.1500 O.3   534  AGS534     -0.2130
     21  C1'       -5.2120    2.6390  -25.4020 C.3   534  AGS534      0.3186
     22  N9        -5.2000    3.2330  -26.7660 N.pl3 534  AGS534     -0.1439
     23  C8        -6.3260    3.5090  -27.6030 C.3   534  AGS534      0.3377
     24  N7        -5.9990    4.0490  -28.7820 N.2   534  AGS534     -0.2095
     25  C5        -4.5990    4.1470  -28.7530 C.2   534  AGS534      0.2526
     26  C6        -3.6650    4.6320  -29.7000 C.2   534  AGS534      0.4393
     27  N6        -4.0200    5.1380  -30.9050 N.pl3 534  AGS534      0.2180
     28  N1        -2.3220    4.6030  -29.3950 N.2   534  AGS534      0.0021
     29  C2        -1.9900    4.1000  -28.1720 C.3   534  AGS534      0.5254
     30  N3        -2.7680    3.6080  -27.1790 N.2   534  AGS534     -0.0055
     31  C4        -4.0940    3.6450  -27.5110 C.2   534  AGS534      0.3518
@<TRIPOS>BOND
     1    27    26    1
     2    26    28    2
     3    26    25    1
     4    28    29    1
     5    24    25    2
     6    24    23    1
     7    25    31    1
     8     3     1    2
     9    29    30    1
    10    10     9    2
    11    23    22    1
    12    31    30    2
    13    31    22    1
    14     8     1    1
    15     8     5    1
    16     1     2    1
    17     1     4    1
    18    22    21    1
    19     9    12    1
    20     9    13    1
    21     9    11    1
    22    12     5    1
    23     6     5    2
    24     5     7    1
    25    13    14    1
    26    21    16    1
    27    21    19    1
    28    16    15    1
    29    14    15    1
    30    17    19    1
    31    17    15    1
    32    17    18    1
    33    19    20    1
