@<TRIPOS>MOLECULE
3dqx_AMP_A_1.pdb
 23 25 0 0 0
SMALL
GASTEIGER

@<TRIPOS>ATOM
      1  P         -9.2330   -7.1780  -38.4580 P.3     1  AMP1        0.5327
      2  O1P       -8.9430   -8.2670  -37.2640 O.3     1  AMP1       -0.1145
      3  O2P      -10.6870   -6.9560  -38.6810 O.2     1  AMP1       -0.2224
      4  O3P       -8.4950   -5.8270  -37.9520 O.3     1  AMP1       -0.1145
      5  O5'       -8.4560   -7.7300  -39.7910 O.3     1  AMP1       -0.2675
      6  C5'       -7.2480   -7.1130  -40.2710 C.3     1  AMP1        0.1860
      7  C4'       -5.9910   -8.0210  -40.1530 C.3     1  AMP1        0.1823
      8  O4'       -4.8920   -7.0720  -40.0040 O.3     1  AMP1       -0.3135
      9  C3'       -5.8880   -8.9720  -38.9420 C.3     1  AMP1        0.2184
     10  O3'       -6.2800  -10.3140  -39.2870 O.3     1  AMP1       -0.2174
     11  C2'       -4.3950   -8.9110  -38.5790 C.3     1  AMP1        0.2570
     12  O2'       -3.5920   -9.7660  -39.4230 O.3     1  AMP1       -0.2130
     13  C1'       -4.0500   -7.4480  -38.8620 C.3     1  AMP1        0.3186
     14  N9        -4.2870   -6.5570  -37.6690 N.pl3   1  AMP1       -0.1439
     15  C8        -5.4670   -6.0460  -37.3010 C.3     1  AMP1        0.3377
     16  N7        -5.3220   -5.3000  -36.2080 N.2     1  AMP1       -0.2095
     17  C5        -4.0350   -5.3340  -35.8700 C.2     1  AMP1        0.2526
     18  C6        -3.3190   -4.7540  -34.8250 C.2     1  AMP1        0.4393
     19  N6        -3.9620   -3.9890  -33.9220 N.pl3   1  AMP1        0.2180
     20  N1        -1.9930   -4.9850  -34.7510 N.2     1  AMP1        0.0021
     21  C2        -1.3920   -5.7520  -35.6560 C.3     1  AMP1        0.5254
     22  N3        -2.0500   -6.3260  -36.6650 N.2     1  AMP1       -0.0055
     23  C4        -3.3730   -6.1350  -36.7940 C.2     1  AMP1        0.3518
@<TRIPOS>BOND
     1     6     7    1
     2     6     5    1
     3     7     8    1
     4     7     9    1
     5     8    13    1
     6     5     1    1
     7    12    11    1
     8    10     9    1
     9     9    11    1
    10    13    11    1
    11    13    14    1
    12     3     1    2
    13     1     4    1
    14     1     2    1
    15    14    15    1
    16    14    23    1
    17    15    16    1
    18    23    22    2
    19    23    17    1
    20    22    21    1
    21    16    17    2
    22    17    18    1
    23    21    20    1
    24    18    20    2
    25    18    19    1
