@<TRIPOS>MOLECULE
3dr0_HEM_A_1.pdb
 43 50 0 0 0
SMALL
GASTEIGER

@<TRIPOS>ATOM
      1  CHA       26.0400  -31.9540   -5.6590 C.2    94  HEM94       0.0000
      2  CHB       26.7010  -27.5900   -7.5550 C.2    94  HEM94       0.0000
      3  CHC       25.7870  -25.5980   -3.2800 C.2    94  HEM94       0.0000
      4  CHD       25.9090  -29.9650   -1.2510 C.2    94  HEM94       0.0000
      5  C1A       26.3140  -30.9420   -6.5520 C.ar   94  HEM94       0.0000
      6  C2A       26.5540  -31.1310   -7.9640 C.ar   94  HEM94       0.0000
      7  C3A       26.7260  -29.9110   -8.5060 C.ar   94  HEM94       0.0000
      8  C4A       26.5670  -28.9620   -7.4530 C.ar   94  HEM94       0.0000
      9  CMA       27.0120  -29.5080   -9.9550 C.3    94  HEM94       0.0000
     10  CAA       26.6610  -32.5020   -8.6290 C.3    94  HEM94       0.0000
     11  CBA       28.0480  -33.1220   -8.4190 C.3    94  HEM94       0.0000
     12  CGA       28.2480  -34.4750   -9.0540 C.2    94  HEM94       0.0000
     13  O1A       29.4090  -35.0290   -9.0300 O.co2  94  HEM94       0.0000
     14  O2A       27.2900  -35.0510   -9.6070 O.co2  94  HEM94       0.0000
     15  C1B       26.5240  -26.6440   -6.5720 C.2    94  HEM94       0.0000
     16  C2B       26.4930  -25.2200   -6.7700 C.2    94  HEM94       0.0000
     17  C3B       26.1800  -24.6700   -5.5720 C.2    94  HEM94       0.0000
     18  C4B       26.0200  -25.7520   -4.6220 C.2    94  HEM94       0.0000
     19  CMB       26.8140  -24.4960   -8.0930 C.3    94  HEM94       0.0000
     20  CAB       26.0110  -23.1700   -5.2660 C.3    94  HEM94       0.0000
     21  CBB       24.9680  -22.5130   -6.0220 C.3    94  HEM94       0.0000
     22  C1C       25.7890  -26.6080   -2.3410 C.ar   94  HEM94       0.0000
     23  C2C       25.7530  -26.3900   -0.9140 C.ar   94  HEM94       0.0000
     24  C3C       25.8160  -27.6140   -0.3390 C.ar   94  HEM94       0.0000
     25  C4C       25.9070  -28.6080   -1.4060 C.ar   94  HEM94       0.0000
     26  CMC       25.6670  -25.0370   -0.2210 C.3    94  HEM94       0.0000
     27  CAC       25.8910  -27.9840    1.1630 C.3    94  HEM94       0.0000
     28  CBC       24.8680  -27.5140    1.9960 C.3    94  HEM94       0.0000
     29  C1D       25.8600  -30.9000   -2.2680 C.2    94  HEM94       0.0000
     30  C2D       25.6200  -32.3080   -2.0820 C.2    94  HEM94       0.0000
     31  C3D       25.6270  -32.9100   -3.4020 C.2    94  HEM94       0.0000
     32  C4D       25.8900  -31.8150   -4.3310 C.2    94  HEM94       0.0000
     33  CMD       25.3820  -33.0900   -0.8100 C.3    94  HEM94       0.0000
     34  CAD       25.3400  -34.3550   -3.7330 C.3    94  HEM94       0.0000
     35  CBD       23.7990  -34.5340   -3.6920 C.3    94  HEM94       0.0000
     36  CGD       23.4620  -35.9840   -3.9580 C.2    94  HEM94       0.0000
     37  O1D       23.3880  -36.3800   -5.1340 O.co2  94  HEM94       0.0000
     38  O2D       23.2900  -36.7450   -3.0120 O.co2  94  HEM94       0.0000
     39  NA        26.3120  -29.6080   -6.2520 N.ar   94  HEM94       0.0000
     40  NB        26.2570  -26.9250   -5.2710 N.2    94  HEM94       0.0000
     41  NC        25.9030  -27.9500   -2.6080 N.ar   94  HEM94       0.0000
     42  ND        25.9780  -30.6210   -3.6260 N.2    94  HEM94       0.0000
     43 FE         26.1140  -28.7790   -4.4520 Fe     94  HEM94       0.0000
@<TRIPOS>BOND
     1     9     7    1
     2    14    12   ar
     3    12    13   ar
     4    12    11    1
     5    10    11    1
     6    10     6    1
     7     7     6   ar
     8     7     8   ar
     9    19    16    1
    10     6     5   ar
    11     2     8    2
    12     2    15    1
    13     8    39   ar
    14    16    15    1
    15    16    17    2
    16    15    40    2
    17     5    39   ar
    18     5     1    2
    19    39    43    1
    20    21    20    1
    21     1    32    1
    22    17    20    1
    23    17    18    1
    24    40    18    1
    25    40    43    1
    26    37    36   ar
    27    18     3    2
    28    43    42    1
    29    43    41    1
    30    32    42    2
    31    32    31    1
    32    36    35    1
    33    36    38   ar
    34    34    35    1
    35    34    31    1
    36    42    29    1
    37    31    30    2
    38     3    22    1
    39    41    22   ar
    40    41    25   ar
    41    22    23   ar
    42    29    30    1
    43    29     4    2
    44    30    33    1
    45    25     4    1
    46    25    24   ar
    47    23    24   ar
    48    23    26    1
    49    24    27    1
    50    27    28    1
