@<TRIPOS>MOLECULE
3dr1_C5D_A_1.pdb
 33 34 0 0 0
SMALL
GASTEIGER

@<TRIPOS>ATOM
      1  C20        3.1700   30.3130   37.3150 C.2   500  C5D500     -0.0179
      2  C22        2.6040   29.6600   36.0460 C.2   500  C5D500      0.0447
      3  C23        3.5350   29.1460   35.0830 C.1   500  C5D500     -0.0612
      4  C24        4.2960   28.7210   34.2890 C.1   500  C5D500     -0.0410
      5  C25        5.2350   28.1960   33.3090 C.3   500  C5D500      0.3511
      6  C27        6.4620   29.1310   33.1310 C.3   500  C5D500      0.4418
      7  C26        4.4530   27.9430   31.9700 C.3   500  C5D500      0.4418
      8  O3         5.6710   26.9600   33.8810 O.3   500  C5D500     -0.1943
      9  F11        7.3390   28.5800   32.2820 F     500  C5D500     -0.1662
     10  F19        7.0570   29.3030   34.3140 F     500  C5D500     -0.1662
     11  F21        6.0790   30.3220   32.6560 F     500  C5D500     -0.1662
     12  F28        5.2510   27.3970   31.0580 F     500  C5D500     -0.1662
     13  F29        3.9730   29.0940   31.4880 F     500  C5D500     -0.1662
     14  F30        3.4320   27.1160   32.1890 F     500  C5D500     -0.1662
     15  O2         0.9460   40.3050   40.5310 O.3   500  C5D500     -0.2227
     16  C1         3.2780   39.3320   38.8870 C.3   500  C5D500      0.1586
     17  C2         2.4490   40.6300   38.6450 C.3   500  C5D500      0.0664
     18  C3         0.9680   40.4710   39.1100 C.3   500  C5D500      0.1586
     19  C4         0.2930   39.2530   38.4160 C.3   500  C5D500      0.0550
     20  C5         1.0560   37.9470   38.6100 C.2   500  C5D500     -0.0392
     21  C6         0.5300   36.8220   39.0720 C.2   500  C5D500     -0.0087
     22  C7         1.0840   35.4600   39.3630 C.2   500  C5D500     -0.0052
     23  C8         0.5350   34.2990   39.0680 C.2   500  C5D500     -0.0265
     24  C10        2.5440   38.1060   38.2590 C.3   500  C5D500      0.0550
     25  C12        0.0790   32.0380   37.1800 C.3   500  C5D500      0.0006
     26  C13        1.4910   32.2570   37.8070 C.3   500  C5D500      0.0072
     27  C14        1.2620   32.9630   39.1970 C.3   500  C5D500      0.0223
     28  C15        2.6990   32.9020   39.8410 C.3   500  C5D500      0.0047
     29  C16        3.3140   31.5850   39.2960 C.3   500  C5D500      0.0044
     30  C17        2.2580   31.0090   38.3360 C.3   500  C5D500      0.0195
     31  C18        2.2030   33.1820   36.7670 C.3   500  C5D500      0.0006
     32  O1         4.6340   39.4720   38.4240 O.3   500  C5D500     -0.2227
     33  C9         1.3140   30.0760   39.1630 C.3   500  C5D500      0.0044
@<TRIPOS>BOND
     1    12     7    1
     2    13     7    1
     3     7    14    1
     4     7     5    1
     5     9     6    1
     6    11     6    1
     7     6     5    1
     8     6    10    1
     9     5     8    1
    10     5     4    1
    11     4     3    3
    12     3     2    1
    13     2     1    2
    14    31    26    1
    15    25    26    1
    16     1    30    1
    17    26    30    1
    18    26    27    1
    19    24    20    1
    20    24    16    1
    21    30    33    1
    22    30    29    1
    23    19    20    1
    24    19    18    1
    25    32    16    1
    26    20    21    2
    27    17    16    1
    28    17    18    1
    29    23    27    1
    30    23    22    2
    31    21    22    1
    32    18    15    1
    33    27    28    1
    34    29    28    1
