@<TRIPOS>MOLECULE
3dr7_GPD_A_1.pdb
 37 40 0 0 0
SMALL
GASTEIGER

@<TRIPOS>ATOM
      1  N4A       -6.6870    4.1230   45.2980 N.3   500  GPD500     -0.1303
      2  C4G       -7.7360    4.6450   46.1430 C.3   500  GPD500      0.1216
      3  C5G       -9.0580    3.9480   45.9280 C.3   500  GPD500      0.1355
      4  C6G       -8.8170    2.4460   45.9180 C.3   500  GPD500      0.0337
      5  O5G       -9.8310    4.3290   47.0460 O.3   500  GPD500     -0.3294
      6  C3G       -7.9090    6.1580   46.1270 C.3   500  GPD500      0.0597
      7  C2G       -9.3860    6.5300   46.0900 C.3   500  GPD500      0.2097
      8  O2G       -9.5650    7.9140   46.4050 O.3   500  GPD500     -0.2177
      9  C1G      -10.3340    5.6490   46.9150 C.3   500  GPD500      0.2713
     10  O1G      -11.5860    5.5520   46.2550 O.3   500  GPD500     -0.2858
     11  P2       -12.9650    5.3740   47.0600 P.3   500  GPD500      0.2208
     12  O3P      -13.1090    3.9390   47.4900 O.3   500  GPD500     -0.4371
     13  O4P      -14.0770    5.9420   46.2260 O.2   500  GPD500     -0.5170
     14  OPP      -12.6680    6.2920   48.3510 O.3   500  GPD500     -0.2703
     15  P        -13.8280    6.9540   49.2440 P.3   500  GPD500      0.2189
     16  O1P      -15.1200    6.2790   48.9090 O.2   500  GPD500     -0.5170
     17  O2P      -13.7900    8.4440   49.1470 O.3   500  GPD500     -0.4371
     18  O5'      -13.4150    6.5440   50.7350 O.3   500  GPD500     -0.3112
     19  C5'      -13.1330    5.2020   51.1060 C.3   500  GPD500      0.1813
     20  C4'      -13.6580    5.0460   52.5230 C.3   500  GPD500      0.1799
     21  O4'      -12.8090    5.7000   53.4740 O.3   500  GPD500     -0.3326
     22  C3'      -15.0030    5.7450   52.5950 C.3   500  GPD500      0.2158
     23  O3'      -15.8180    4.9400   53.4480 O.3   500  GPD500     -0.2175
     24  C2'      -14.6930    7.0770   53.2560 C.3   500  GPD500      0.2310
     25  O2'      -15.7990    7.5640   54.0160 O.3   500  GPD500     -0.2158
     26  C1'      -13.5030    6.7420   54.1480 C.3   500  GPD500      0.2293
     27  N9       -12.6280    7.9090   54.4080 N.pl3 500  GPD500     -0.2354
     28  C8       -11.8190    8.5110   53.5280 C.3   500  GPD500      0.2246
     29  N7       -11.1890    9.5350   54.1460 N.2   500  GPD500     -0.2322
     30  C4       -12.5030    8.5270   55.5840 C.2   500  GPD500      0.2300
     31  C5       -11.5960    9.5620   55.4310 C.2   500  GPD500      0.2182
     32  C6       -11.2940   10.3730   56.5220 C.1   500  GPD500      0.2372
     33  O6       -10.4870   11.3020   56.4120 O.2   500  GPD500     -0.2069
     34  N3       -13.0800    8.3300   56.7870 N.2   500  GPD500     -0.3074
     35  C2       -12.7760    9.1310   57.8310 C.1   500  GPD500      0.2531
     36  N1       -11.8850   10.1430   57.7070 N.2   500  GPD500     -0.2485
     37  N2       -13.3660    8.9000   59.0240 N.pl3 500  GPD500     -0.0226
@<TRIPOS>BOND
     1     1     2    1
     2     4     3    1
     3     3     2    1
     4     3     5    1
     5     7     6    1
     6     7     8    1
     7     7     9    1
     8     6     2    1
     9    13    11    2
    10    10     9    1
    11    10    11    1
    12     9     5    1
    13    11    12    1
    14    11    14    1
    15    14    15    1
    16    16    15    2
    17    17    15    1
    18    15    18    1
    19    18    19    1
    20    19    20    1
    21    20    22    1
    22    20    21    1
    23    22    24    1
    24    22    23    1
    25    24    25    1
    26    24    26    1
    27    21    26    1
    28    28    29    1
    29    28    27    1
    30    29    31    2
    31    26    27    1
    32    27    30    1
    33    31    30    1
    34    31    32    1
    35    30    34    2
    36    33    32    2
    37    32    36    2
    38    34    35    2
    39    36    35    2
    40    35    37    1
