@<TRIPOS>MOLECULE
3dr9_HEM_A_1.pdb
 43 50 0 0 0
SMALL
GASTEIGER

@<TRIPOS>ATOM
      1 FE          5.6370   -1.6520   12.0400 Fe    139  HEM139      0.0000
      2  CHA        7.2800   -4.6630   12.1070 C.2   139  HEM139      0.0000
      3  CHB        8.3640   -0.2560   10.4250 C.2   139  HEM139      0.0000
      4  CHC        4.4100    1.5260   12.5780 C.2   139  HEM139      0.0000
      5  CHD        3.1530   -2.9010   14.0380 C.2   139  HEM139      0.0000
      6  NA         7.5070   -2.3340   11.3960 N.ar  139  HEM139      0.0000
      7  C1A        7.9580   -3.6290   11.5060 C.ar  139  HEM139      0.0000
      8  C2A        9.2710   -3.7030   10.8910 C.ar  139  HEM139      0.0000
      9  C3A        9.5810   -2.4840   10.4270 C.ar  139  HEM139      0.0000
     10  C4A        8.4730   -1.5960   10.7330 C.ar  139  HEM139      0.0000
     11  CMA       10.8820   -2.0850    9.6940 C.3   139  HEM139      0.0000
     12  CAA       10.1340   -4.9850   10.8150 C.3   139  HEM139      0.0000
     13  CBA       10.7880   -5.2690   12.1690 C.3   139  HEM139      0.0000
     14  CGA       11.5890   -6.5530   12.1640 C.2   139  HEM139      0.0000
     15  O1A       12.7930   -6.4880   12.4920 O.co2 139  HEM139      0.0000
     16  O2A       11.0400   -7.6440   11.8730 O.co2 139  HEM139      0.0000
     17  NB         6.2700    0.2740   11.5820 N.2   139  HEM139      0.0000
     18  C1B        7.4010    0.6200   10.8740 C.2   139  HEM139      0.0000
     19  C2B        7.4170    2.0560   10.7120 C.2   139  HEM139      0.0000
     20  C3B        6.3230    2.5510   11.3080 C.2   139  HEM139      0.0000
     21  C4B        5.5840    1.4350   11.8650 C.2   139  HEM139      0.0000
     22  CMB        8.5390    2.8250    9.9800 C.3   139  HEM139      0.0000
     23  CAB        5.8970    4.0290   11.4060 C.2   139  HEM139      0.0000
     24  CBB        6.1530    4.9410   10.4650 C.2   139  HEM139      0.0000
     25  NC         4.0830   -0.8370   13.1240 N.ar  139  HEM139      0.0000
     26  C1C        3.7280    0.4960   13.1940 C.ar  139  HEM139      0.0000
     27  C2C        2.5450    0.6180   14.0210 C.ar  139  HEM139      0.0000
     28  C3C        2.2150   -0.6120   14.4250 C.ar  139  HEM139      0.0000
     29  C4C        3.1630   -1.5430   13.8640 C.ar  139  HEM139      0.0000
     30  CMC        1.8370    1.9520   14.3280 C.3   139  HEM139      0.0000
     31  CAC        1.0310   -1.0680   15.3060 C.2   139  HEM139      0.0000
     32  CBC        0.5340   -0.3380   16.3030 C.2   139  HEM139      0.0000
     33  ND         5.2800   -3.4720   12.9110 N.2   139  HEM139      0.0000
     34  C1D        4.1600   -3.7640   13.6880 C.2   139  HEM139      0.0000
     35  C2D        4.2020   -5.1470   14.0890 C.2   139  HEM139      0.0000
     36  C3D        5.4820   -5.7020   13.4900 C.2   139  HEM139      0.0000
     37  C4D        6.0900   -4.5950   12.7830 C.2   139  HEM139      0.0000
     38  CMD        3.1770   -5.9150   14.9400 C.3   139  HEM139      0.0000
     39  CAD        6.0100   -7.1320   13.6500 C.3   139  HEM139      0.0000
     40  CBD        6.7680   -7.1510   14.9770 C.3   139  HEM139      0.0000
     41  CGD        7.9530   -8.0850   14.9850 C.2   139  HEM139      0.0000
     42  O1D        8.8210   -7.8850   15.8730 O.co2 139  HEM139      0.0000
     43  O2D        8.0440   -9.0230   14.1430 O.co2 139  HEM139      0.0000
@<TRIPOS>BOND
     1    11     9    1
     2    22    19    1
     3     3    10    2
     4     3    18    1
     5     9    10   ar
     6     9     8   ar
     7    24    23    2
     8    19    18    1
     9    19    20    2
    10    10     6   ar
    11    12     8    1
    12    12    13    1
    13    18    17    2
    14     8     7   ar
    15    20    23    1
    16    20    21    1
    17     6     7   ar
    18     6     1    1
    19     7     2    2
    20    17    21    1
    21    17     1    1
    22    21     4    2
    23    16    14   ar
    24     1    33    1
    25     1    25    1
    26     2    37    1
    27    14    13    1
    28    14    15   ar
    29     4    26    1
    30    37    33    2
    31    37    36    1
    32    33    34    1
    33    25    26   ar
    34    25    29   ar
    35    26    27   ar
    36    36    39    1
    37    36    35    2
    38    39    40    1
    39    34     5    2
    40    34    35    1
    41    29     5    1
    42    29    28   ar
    43    27    30    1
    44    27    28   ar
    45    35    38    1
    46    43    41   ar
    47    28    31    1
    48    40    41    1
    49    41    42   ar
    50    31    32    2
