@<TRIPOS>MOLECULE
3drb_ADP_B_1.pdb
 27 29 0 0 0
SMALL
GASTEIGER

@<TRIPOS>ATOM
      1  PB       -54.3780    7.2840    8.8730 P.3   400  ADP400      0.5373
      2  O1B      -53.0040    6.7620    8.8350 O.3   400  ADP400     -0.1143
      3  O2B      -53.9430    7.5950    7.3710 O.2   400  ADP400     -0.2221
      4  O3B      -54.8550    8.8170    8.8170 O.3   400  ADP400     -0.1143
      5  PA       -54.6680    7.1020   11.4760 P.3   400  ADP400      0.2231
      6  O1A      -54.0790    5.9340   12.1320 O.2   400  ADP400     -0.5169
      7  O2A      -55.7710    8.0090   12.2180 O.3   400  ADP400     -0.4370
      8  O3A      -53.8010    7.7490   10.2570 O.3   400  ADP400     -0.2261
      9  O5'      -53.5240    8.0120   12.1920 O.3   400  ADP400     -0.3111
     10  C5'      -53.6170    8.1090   13.5850 C.3   400  ADP400      0.1813
     11  C4'      -52.4580    8.9810   14.0280 C.3   400  ADP400      0.1821
     12  O4'      -52.4110   10.2290   13.3000 O.3   400  ADP400     -0.3135
     13  C3'      -52.6110    9.2290   15.5070 C.3   400  ADP400      0.2184
     14  O3'      -51.5180    8.6730   16.2360 O.3   400  ADP400     -0.2174
     15  C2'      -52.7020   10.7530   15.6540 C.3   400  ADP400      0.2570
     16  O2'      -51.6810   11.1950   16.5190 O.3   400  ADP400     -0.2130
     17  C1'      -52.5120   11.3350   14.2190 C.3   400  ADP400      0.3186
     18  N9       -53.5530   12.2760   13.7830 N.pl3 400  ADP400     -0.1439
     19  C8       -54.6630   11.9810   13.0340 C.3   400  ADP400      0.3377
     20  N7       -55.3650   13.0540   12.8150 N.2   400  ADP400     -0.2095
     21  C5       -54.7580   14.1120   13.4010 C.2   400  ADP400      0.2526
     22  C6       -55.0310   15.5060   13.5050 C.2   400  ADP400      0.4393
     23  N6       -56.1560   16.0550   12.9110 N.pl3 400  ADP400      0.2180
     24  N1       -54.1660   16.2850   14.1970 N.2   400  ADP400      0.0021
     25  C2       -53.0720   15.7820   14.7800 C.3   400  ADP400      0.5254
     26  N3       -52.7780   14.4830   14.7070 N.2   400  ADP400     -0.0055
     27  C4       -53.5810   13.6230   14.0370 C.2   400  ADP400      0.3518
@<TRIPOS>BOND
     1     3     1    2
     2     4     1    1
     3     2     1    1
     4     1     8    1
     5     8     5    1
     6     5     6    2
     7     5     9    1
     8     5     7    1
     9     9    10    1
    10    20    19    1
    11    20    21    2
    12    23    22    1
    13    19    18    1
    14    12    11    1
    15    12    17    1
    16    21    22    1
    17    21    27    1
    18    22    24    2
    19    10    11    1
    20    18    27    1
    21    18    17    1
    22    11    13    1
    23    27    26    2
    24    24    25    1
    25    17    15    1
    26    26    25    1
    27    13    15    1
    28    13    14    1
    29    15    16    1
