@<TRIPOS>MOLECULE
3drc_MTX_A_1.pdb
 33 35 0 0 0
SMALL
GASTEIGER

@<TRIPOS>ATOM
      1  N1        22.8650   58.6860   24.2950 N.2   161  MTX161     -0.2684
      2  C2        23.4940   58.2610   23.2170 C.1   161  MTX161      0.2519
      3  NA2       24.7890   58.2380   23.2050 N.pl3 161  MTX161     -0.0226
      4  N3        22.7090   57.8380   22.1870 N.2   161  MTX161     -0.3033
      5  C4        21.3680   57.8910   22.0540 C.2   161  MTX161      0.2728
      6  NA4       20.7510   57.5040   21.0470 N.pl3 161  MTX161     -0.0887
      7  C4A       20.7560   58.4230   23.2790 C.2   161  MTX161      0.2518
      8  N5        19.4010   58.5760   23.2560 N.2   161  MTX161     -0.3917
      9  C6        18.8400   59.0240   24.4030 C.2   161  MTX161      0.1330
     10  C7        19.6720   59.3390   25.5120 C.3   161  MTX161      0.1930
     11  N8        20.9740   59.2580   25.5020 N.2   161  MTX161     -0.1998
     12  C8A       21.5060   58.7460   24.3000 C.1   161  MTX161      0.1314
     13  C9        17.3840   59.1380   24.3980 C.3   161  MTX161      0.1481
     14  N10       16.8750   60.0780   25.4920 N.pl3 161  MTX161     -0.2999
     15  CM        15.9480   59.4690   26.4920 C.3   161  MTX161      0.1125
     16  C11       17.9790   64.1460   25.6870 C.ar  161  MTX161      0.0551
     17  C12       17.0870   63.5620   26.6570 C.ar  161  MTX161      0.0058
     18  C13       16.7400   62.2390   26.5500 C.ar  161  MTX161      0.0147
     19  C14       17.2600   61.4440   25.4940 C.ar  161  MTX161      0.0482
     20  C15       18.1180   62.0390   24.5490 C.ar  161  MTX161      0.0147
     21  C16       18.4680   63.3370   24.6280 C.ar  161  MTX161      0.0058
     22  C         18.2980   65.5950   25.7870 C.2   161  MTX161      0.2652
     23  O         17.7020   66.2980   26.6670 O.2   161  MTX161     -0.2684
     24  N         19.1960   66.1160   24.9930 N.am  161  MTX161     -0.1918
     25  CA        19.6370   67.5450   24.9810 C.3   161  MTX161      0.1986
     26  CT        19.9750   67.7400   23.4990 C.2   161  MTX161      0.3842
     27  O1        20.2810   66.7200   22.7790 O.co2 161  MTX161     -0.2437
     28  O2        19.9170   68.9210   23.0960 O.co2 161  MTX161     -0.2437
     29  CB        20.9440   67.7520   25.7790 C.3   161  MTX161      0.0451
     30  CG        20.7970   67.6990   27.3430 C.3   161  MTX161      0.1164
     31  CD        19.9080   68.8420   27.8860 C.2   161  MTX161      0.3649
     32  OE1       19.4170   68.5550   29.0970 O.co2 161  MTX161     -0.2457
     33  OE2       19.6920   69.9370   27.2440 O.co2 161  MTX161     -0.2457
@<TRIPOS>BOND
     1     6     5    1
     2     5     4    2
     3     5     7    1
     4     4     2    2
     5    27    26   ar
     6    28    26   ar
     7     3     2    1
     8     2     1    2
     9     8     7    2
    10     8     9    2
    11     7    12    1
    12    26    25    1
    13     1    12    2
    14    12    11    2
    15    13     9    1
    16    13    14    1
    17     9    10    1
    18    20    21   ar
    19    20    19   ar
    20    21    16   ar
    21    25    24    1
    22    25    29    1
    23    24    22   am
    24    14    19    1
    25    14    15    1
    26    19    18   ar
    27    11    10    1
    28    16    22    1
    29    16    17   ar
    30    29    30    1
    31    22    23    2
    32    18    17   ar
    33    33    31   ar
    34    30    31    1
    35    31    32   ar
