@<TRIPOS>MOLECULE
3drf_III_B_1.pdb
 48 47 0 0 0
SMALL
GASTEIGER

@<TRIPOS>ATOM
      1  N         19.3070   45.7990   20.8730 N.3     1  ALA1       -0.1231
      2  CA        18.1080   45.5290   21.6420 C.3     1  ALA1        0.1694
      3  C         18.1600   46.3540   22.9600 C.2     1  ALA1        0.2593
      4  O         19.1420   46.3510   23.6510 O.2     1  ALA1       -0.2718
      5  CB        17.9970   43.9620   21.8380 C.3     1  ALA1        0.0304
      6  N         17.0640   47.0250   23.2710 N.am    2  SER2       -0.1938
      7  CA        17.0630   47.9510   24.3930 C.3     2  SER2        0.2055
      8  C         15.6560   48.0240   25.0170 C.2     2  SER2        0.2643
      9  O         14.7150   47.6050   24.4720 O.2     2  SER2       -0.2714
     10  CB        17.5560   49.3200   23.9460 C.3     2  SER2        0.2130
     11  OG        16.6370   49.8240   23.0160 O.3     2  SER2       -0.2179
     12  N         15.6010   48.5680   26.2020 N.am    3  ASN3       -0.1957
     13  CA        14.3260   48.8350   26.8910 C.3     3  ASN3        0.1819
     14  C         13.6730   50.0630   26.2760 C.2     3  ASN3        0.2622
     15  O         14.3260   51.0180   26.0560 O.2     3  ASN3       -0.2715
     16  CB        14.5150   49.0830   28.4100 C.3     3  ASN3        0.1195
     17  CG        15.0990   47.8890   29.1540 C.2     3  ASN3        0.2630
     18  OD1       14.4820   46.8760   29.2880 O.2     3  ASN3       -0.2716
     19  ND2       16.3250   48.0330   29.6040 N.am    3  ASN3       -0.0877
     20  N         12.3680   49.9650   26.0100 N.am    4  SER4       -0.1936
     21  CA        11.5750   51.0650   25.4310 C.3     4  SER4        0.2055
     22  C         10.2780   51.2400   26.2230 C.2     4  SER4        0.2643
     23  O          9.6740   50.3170   26.6070 O.2     4  SER4       -0.2714
     24  CB        11.3010   50.8280   23.9280 C.3     4  SER4        0.2130
     25  OG        12.5380   50.9600   23.1540 O.3     4  SER4       -0.2179
     26  N          9.9130   52.4850   26.4270 N.am    5  ILE5       -0.1963
     27  CA         8.6790   52.8420   27.1130 C.3     5  ILE5        0.1727
     28  C          7.4700   52.5930   26.2220 C.2     5  ILE5        0.2616
     29  O          7.3910   53.0890   25.1220 O.2     5  ILE5       -0.2715
     30  CB         8.6820   54.3440   27.4010 C.3     5  ILE5        0.0290
     31  CG1        9.8940   54.7700   28.2560 C.3     5  ILE5        0.0022
     32  CG2        7.4270   54.7520   28.0670 C.3     5  ILE5        0.0023
     33  CD1        9.9940   56.3340   28.4150 C.3     5  ILE5        0.0001
     34  N          6.5500   51.8030   26.7130 N.am    6  ALA6       -0.1963
     35  CA         5.3650   51.4160   25.9590 C.3     6  ALA6        0.1728
     36  C          4.1590   52.2530   26.4190 C.2     6  ALA6        0.2617
     37  O          4.0760   52.6160   27.4990 O.2     6  ALA6       -0.2715
     38  CB         5.0800   49.8860   26.1400 C.3     6  ALA6        0.0334
     39  N          3.2610   52.5340   25.4900 N.am    7  SER7       -0.1936
     40  CA         2.0820   53.3590   25.7960 C.3     7  SER7        0.2055
     41  C          0.9810   52.6430   26.5560 C.2     7  SER7        0.2643
     42  O          0.2770   53.2900   27.2750 O.2     7  SER7       -0.2714
     43  CB         1.5580   53.9880   24.5400 C.3     7  SER7        0.2130
     44  OG         1.1640   53.0100   23.6040 O.3     7  SER7       -0.2179
     45  N          0.8950   51.3360   26.4520 N.am    8  GLY8       -0.1954
     46  CA        -0.1770   50.6380   27.1320 C.3     8  GLY8        0.1869
     47  C          0.3210   50.1770   28.4570 C.2     8  GLY8        0.2309
     48  O          1.0570   49.2180   28.4410 O.2     8  GLY8       -0.2863
@<TRIPOS>BOND
     1     1     2    1
     2     2     5    1
     3     2     3    1
     4     3     6   am
     5     3     4    2
     6    11    10    1
     7    25    24    1
     8     6     7    1
     9    44    43    1
    10    24    21    1
    11    10     7    1
    12     7     8    1
    13     9     8    2
    14    43    40    1
    15     8    12   am
    16    29    28    2
    17    21    20    1
    18    21    22    1
    19    39    40    1
    20    39    36   am
    21    40    41    1
    22    35    38    1
    23    35    36    1
    24    35    34    1
    25    20    14   am
    26    15    14    2
    27    12    13    1
    28    28    34   am
    29    28    27    1
    30    22    26   am
    31    22    23    2
    32    14    13    1
    33    36    37    2
    34    26    27    1
    35    45    41   am
    36    45    46    1
    37    41    42    2
    38    13    16    1
    39    27    30    1
    40    46    47    1
    41    30    32    1
    42    30    31    1
    43    31    33    1
    44    16    17    1
    45    48    47    2
    46    17    18    2
    47    17    19   am
