@<TRIPOS>MOLECULE
3drh_III_B_1.pdb
 30 29 0 0 0
SMALL
GASTEIGER

@<TRIPOS>ATOM
      1  N         -3.8730   21.5900   -1.5760 N.3     1  ALA1       -0.1231
      2  CA        -3.9360   20.3080   -2.3610 C.3     1  ALA1        0.1694
      3  C         -2.6700   19.4560   -2.2650 C.2     1  ALA1        0.2592
      4  O         -2.6290   18.3590   -2.8300 O.2     1  ALA1       -0.2718
      5  CB        -4.2470   20.6000   -3.8160 C.3     1  ALA1        0.0304
      6  N         -1.6470   19.9780   -1.5830 N.am    2  ALA2       -0.1966
      7  CA        -0.4240   19.2350   -1.2780 C.3     2  ALA2        0.1728
      8  C         -0.4060   18.8810    0.2080 C.2     2  ALA2        0.2616
      9  O         -0.1550   17.7400    0.5730 O.2     2  ALA2       -0.2715
     10  CB         0.8100   20.0770   -1.6400 C.3     2  ALA2        0.0334
     11  N         -0.6600   19.8730    1.0600 N.am    3  ALA3       -0.1963
     12  CA        -0.6150   19.6770    2.5030 C.3     3  ALA3        0.1728
     13  C         -2.0230   19.3910    3.0380 C.2     3  ALA3        0.2616
     14  O         -3.0280   19.7620    2.4260 O.2     3  ALA3       -0.2715
     15  CB        -0.0140   20.8910    3.1900 C.3     3  ALA3        0.0334
     16  N         -2.0650   18.7070    4.1720 N.am    4  ALA4       -0.1963
     17  CA        -3.3070   18.3170    4.8120 C.3     4  ALA4        0.1728
     18  C         -3.2390   18.7260    6.2650 C.2     4  ALA4        0.2616
     19  O         -2.1700   18.6970    6.8920 O.2     4  ALA4       -0.2715
     20  CB        -3.5020   16.7890    4.7150 C.3     4  ALA4        0.0334
     21  N         -4.4000   19.0620    6.8020 N.am    5  ALA5       -0.1963
     22  CA        -4.5690   19.1650    8.2480 C.3     5  ALA5        0.1728
     23  C         -4.0990   17.8640    8.8830 C.2     5  ALA5        0.2616
     24  O         -4.4970   16.7810    8.4490 O.2     5  ALA5       -0.2715
     25  CB        -6.0250   19.4230    8.5820 C.3     5  ALA5        0.0334
     26  N         -3.2250   17.9630    9.8760 N.am    6  ALA6       -0.1977
     27  CA        -2.8150   16.8010   10.6610 C.3     6  ALA6        0.1597
     28  C         -1.4250   16.9470   11.2270 C.2     6  ALA6        0.2287
     29  O         -0.9530   16.0190   11.8940 O.2     6  ALA6       -0.2864
     30  CB        -2.9210   15.4940    9.8560 C.3     6  ALA6        0.0319
@<TRIPOS>BOND
     1     5     2    1
     2     4     3    2
     3     2     3    1
     4     2     1    1
     5     3     6   am
     6    10     7    1
     7     6     7    1
     8     7     8    1
     9     8     9    2
    10     8    11   am
    11    11    12    1
    12    14    13    2
    13    12    13    1
    14    12    15    1
    15    13    16   am
    16    16    17    1
    17    20    17    1
    18    17    18    1
    19    18    21   am
    20    18    19    2
    21    21    22    1
    22    22    25    1
    23    22    23    1
    24    24    23    2
    25    23    26   am
    26    30    27    1
    27    26    27    1
    28    27    28    1
    29    28    29    2
