@<TRIPOS>MOLECULE
3dri_III_B_1.pdb
 32 31 0 0 0
SMALL
GASTEIGER

@<TRIPOS>ATOM
      1  N         -3.6910   21.7610   -1.4650 N.3     1  ALA1       -0.1231
      2  CA        -3.8750   20.5110   -2.2770 C.3     1  ALA1        0.1694
      3  C         -2.6900   19.5610   -2.1860 C.2     1  ALA1        0.2592
      4  O         -2.7690   18.4180   -2.6540 O.2     1  ALA1       -0.2718
      5  CB        -4.1530   20.8610   -3.7160 C.3     1  ALA1        0.0304
      6  N         -1.5920   20.0460   -1.6110 N.am    2  ALA2       -0.1966
      7  CA        -0.4270   19.2250   -1.3090 C.3     2  ALA2        0.1728
      8  C         -0.4580   18.8200    0.1610 C.2     2  ALA2        0.2617
      9  O         -0.2540   17.6610    0.5050 O.2     2  ALA2       -0.2715
     10  CB         0.8390   20.0180   -1.5960 C.3     2  ALA2        0.0334
     11  N         -0.7070   19.7970    1.0250 N.am    3  SER3       -0.1936
     12  CA        -0.5960   19.6010    2.4550 C.3     3  SER3        0.2055
     13  C         -1.9790   19.3680    3.0590 C.2     3  SER3        0.2643
     14  O         -2.9850   19.8330    2.5180 O.2     3  SER3       -0.2714
     15  CB         0.0980   20.8110    3.0860 C.3     3  SER3        0.2130
     16  OG         1.3620   21.0450    2.4550 O.3     3  SER3       -0.2179
     17  N         -2.0080   18.6420    4.1750 N.am    4  ALA4       -0.1963
     18  CA        -3.2520   18.2770    4.8540 C.3     4  ALA4        0.1728
     19  C         -3.2120   18.7060    6.3060 C.2     4  ALA4        0.2617
     20  O         -2.1570   18.6860    6.9390 O.2     4  ALA4       -0.2715
     21  CB        -3.4660   16.7620    4.7870 C.3     4  ALA4        0.0334
     22  N         -4.3800   19.0650    6.8310 N.am    5  SER5       -0.1936
     23  CA        -4.5800   19.1550    8.2730 C.3     5  SER5        0.2055
     24  C         -4.1130   17.8430    8.9170 C.2     5  SER5        0.2642
     25  O         -4.5140   16.7560    8.4950 O.2     5  SER5       -0.2714
     26  CB        -6.0640   19.4040    8.5970 C.3     5  SER5        0.2130
     27  OG        -6.5120   20.6850    8.1420 O.3     5  SER5       -0.2179
     28  N         -3.2410   17.9380    9.9110 N.am    6  ALA6       -0.1977
     29  CA        -2.7820   16.7600   10.6310 C.3     6  ALA6        0.1597
     30  C         -1.5020   17.0280   11.3810 C.2     6  ALA6        0.2287
     31  O         -1.0050   16.1300   12.0670 O.2     6  ALA6       -0.2864
     32  CB        -2.5940   15.5570    9.6820 C.3     6  ALA6        0.0319
@<TRIPOS>BOND
     1     5     2    1
     2     4     3    2
     3     2     3    1
     4     2     1    1
     5     3     6   am
     6     6     7    1
     7    10     7    1
     8     7     8    1
     9     8     9    2
    10     8    11   am
    11    11    12    1
    12    12    13    1
    13    12    15    1
    14    16    15    1
    15    14    13    2
    16    13    17   am
    17    17    18    1
    18    21    18    1
    19    18    19    1
    20    19    22   am
    21    19    20    2
    22    22    23    1
    23    27    26    1
    24    23    26    1
    25    23    24    1
    26    25    24    2
    27    24    28   am
    28    32    29    1
    29    28    29    1
    30    29    30    1
    31    30    31    2
