@<TRIPOS>MOLECULE
3drj_III_B_1.pdb
 34 34 0 0 0
SMALL
GASTEIGER

@<TRIPOS>ATOM
      1  N         -1.9040   21.6120   -1.8570 N.3     1  ALA1       -0.1231
      2  CA        -1.0800   20.3920   -1.6030 C.3     1  ALA1        0.1694
      3  C         -1.1110   19.9630   -0.1380 C.2     1  ALA1        0.2592
      4  O         -0.9200   18.7940    0.1740 O.2     1  ALA1       -0.2718
      5  CB         0.3540   20.6450   -2.0170 C.3     1  ALA1        0.0304
      6  N         -1.3400   20.9120    0.7590 N.am    2  HIS2       -0.1962
      7  CA        -1.3110   20.6080    2.1890 C.3     2  HIS2        0.1784
      8  C         -2.7180   20.5410    2.7170 C.2     2  HIS2        0.2620
      9  O         -3.6280   21.2220    2.2190 O.2     2  HIS2       -0.2715
     10  CB        -0.5300   21.6510    2.9260 C.3     2  HIS2        0.0745
     11  CG         0.7170   22.0410    2.2260 C.2     2  HIS2        0.0653
     12  ND1        1.6910   21.1270    1.8790 N.2     2  HIS2       -0.2310
     13  CD2        1.1530   23.2450    1.7980 C.3     2  HIS2        0.1683
     14  CE1        2.6760   21.7580    1.2670 C.2     2  HIS2        0.1939
     15  NE2        2.3710   23.0430    1.2010 N.2     2  HIS2       -0.2440
     16  N         -2.8900   19.7190    3.7380 N.am    3  ALA3       -0.1963
     17  CA        -4.2140   19.4190    4.2390 C.3     3  ALA3        0.1728
     18  C         -4.2260   19.4260    5.7550 C.2     3  ALA3        0.2616
     19  O         -3.2030   19.1400    6.3860 O.2     3  ALA3       -0.2715
     20  CB        -4.6320   18.0760    3.7210 C.3     3  ALA3        0.0334
     21  N         -5.3980   19.7120    6.3180 N.am    4  LYS4       -0.1963
     22  CA        -5.5400   19.8380    7.7890 C.3     4  LYS4        0.1728
     23  C         -5.1290   18.5250    8.4000 C.2     4  LYS4        0.2616
     24  O         -5.5960   17.4610    7.9650 O.2     4  LYS4       -0.2715
     25  CB        -6.9760   20.1320    8.2510 C.3     4  LYS4        0.0311
     26  CG        -7.8010   21.0910    7.4370 C.3     4  LYS4        0.0038
     27  CD        -7.5930   22.5490    7.7960 C.3     4  LYS4        0.0206
     28  CE        -8.4380   23.4270    6.9370 C.3     4  LYS4        0.1093
     29  NZ        -9.5490   22.6660    6.2990 N.3     4  LYS4       -0.1314
     30  N         -4.2550   18.5720    9.3980 N.am    5  ALA5       -0.1977
     31  CA        -3.8100   17.3600   10.0620 C.3     5  ALA5        0.1597
     32  C         -2.5260   17.5510   10.8380 C.2     5  ALA5        0.2287
     33  O         -1.9470   16.5650   11.3200 O.2     5  ALA5       -0.2864
     34  CB        -3.6300   16.2340    9.0390 C.3     5  ALA5        0.0319
@<TRIPOS>BOND
     1     5     2    1
     2     1     2    1
     3     2     3    1
     4     3     4    2
     5     3     6   am
     6     6     7    1
     7    15    14    2
     8    15    13    1
     9    14    12    1
    10    13    11    1
    11    12    11    2
    12     7     8    1
    13     7    10    1
    14     9     8    2
    15    11    10    1
    16     8    16   am
    17    20    17    1
    18    16    17    1
    19    17    18    1
    20    18    21   am
    21    18    19    2
    22    29    28    1
    23    21    22    1
    24    28    27    1
    25    26    27    1
    26    26    25    1
    27    22    25    1
    28    22    23    1
    29    24    23    2
    30    23    30   am
    31    34    31    1
    32    30    31    1
    33    31    32    1
    34    32    33    2
