@<TRIPOS>MOLECULE
3drk_III_B_1.pdb
 34 34 0 0 0
SMALL
GASTEIGER

@<TRIPOS>ATOM
      1  N         -0.0920   18.1240   -1.8640 N.3     1  SER1       -0.1202
      2  CA        -0.4300   19.3440   -1.1840 C.3     1  SER1        0.2020
      3  C         -0.4560   18.9730    0.2560 C.2     1  SER1        0.2619
      4  O         -0.1410   17.8550    0.5680 O.2     1  SER1       -0.2717
      5  CB        -1.7350   19.8920   -1.7040 C.3     1  SER1        0.2103
      6  OG        -2.4550   18.8930   -2.3900 O.3     1  SER1       -0.2182
      7  N         -0.7660   19.9200    1.1170 N.am    2  PHE2       -0.1961
      8  CA        -0.7670   19.6160    2.5100 C.3     2  PHE2        0.1771
      9  C         -2.1330   19.3490    3.0350 C.2     2  PHE2        0.2619
     10  O         -3.1210   19.6670    2.4380 O.2     2  PHE2       -0.2715
     11  CB        -0.1630   20.7040    3.3200 C.3     2  PHE2        0.0574
     12  CG         0.9640   21.3170    2.6830 C.ar    2  PHE2       -0.0200
     13  CD1        1.9680   20.5480    2.1760 C.ar    2  PHE2       -0.0042
     14  CD2        1.0340   22.6510    2.5380 C.ar    2  PHE2       -0.0042
     15  CE1        2.9620   21.1040    1.6190 C.ar    2  PHE2       -0.0003
     16  CE2        2.0840   23.1710    1.9340 C.ar    2  PHE2       -0.0003
     17  CZ         3.0270   22.3990    1.5200 C.ar    2  PHE2       -0.0000
     18  N         -2.1240   18.7500    4.2030 N.am    3  ALA3       -0.1963
     19  CA        -3.3430   18.3470    4.7920 C.3     3  ALA3        0.1728
     20  C         -3.3240   18.7380    6.2490 C.2     3  ALA3        0.2616
     21  O         -2.3440   18.6490    6.8790 O.2     3  ALA3       -0.2715
     22  CB        -3.5230   16.8600    4.6510 C.3     3  ALA3        0.0334
     23  N         -4.4710   19.1630    6.7270 N.am    4  ASN4       -0.1958
     24  CA        -4.6540   19.2670    8.1480 C.3     4  ASN4        0.1819
     25  C         -4.1100   18.0150    8.7910 C.2     4  ASN4        0.2621
     26  O         -4.3220   16.9320    8.3230 O.2     4  ASN4       -0.2715
     27  CB        -6.1310   19.4390    8.4990 C.3     4  ASN4        0.1195
     28  CG        -6.6550   20.7780    8.1270 C.2     4  ASN4        0.2630
     29  OD1       -6.3300   21.7450    8.7570 O.2     4  ASN4       -0.2716
     30  ND2       -7.4350   20.8560    7.0680 N.am    4  ASN4       -0.0877
     31  N         -3.3810   18.1650    9.8670 N.am    5  GLY5       -0.1954
     32  CA        -2.9020   17.0250   10.5670 C.3     5  GLY5        0.1869
     33  C         -1.5380   17.1530   11.1380 C.2     5  GLY5        0.2309
     34  O         -1.1380   16.2900   11.8490 O.2     5  GLY5       -0.2863
@<TRIPOS>BOND
     1     6     5    1
     2     1     2    1
     3     5     2    1
     4     2     3    1
     5     3     4    2
     6     3     7   am
     7     7     8    1
     8    17    15   ar
     9    17    16   ar
    10    15    13   ar
    11    16    14   ar
    12    13    12   ar
    13    10     9    2
    14     8     9    1
    15     8    11    1
    16    14    12   ar
    17    12    11    1
    18     9    18   am
    19    18    19    1
    20    22    19    1
    21    19    20    1
    22    20    23   am
    23    20    21    2
    24    23    24    1
    25    30    28   am
    26    28    27    1
    27    28    29    2
    28    24    27    1
    29    24    25    1
    30    26    25    2
    31    25    31   am
    32    31    32    1
    33    32    33    1
    34    33    34    2
