@<TRIPOS>MOLECULE
3drp_R8E_A_1.pdb
 29 32 0 0 0
SMALL
GASTEIGER

@<TRIPOS>ATOM
      1 CL29       13.0190   11.9830   15.4960 Cl    601  R8E601     -0.0791
      2  C13       11.3250   12.3690   15.1180 C.ar  601  R8E601      0.0923
      3  C8        10.5430   12.2520   16.1620 C.ar  601  R8E601      0.1588
      4  O7        11.2340   11.9040   17.2670 O.3   601  R8E601     -0.4525
      5  C4        10.8940   12.5120   18.4920 C.ar  601  R8E601      0.1469
      6  C3        10.4590   11.6940   19.5590 C.ar  601  R8E601      0.0478
      7  C2        10.1010   12.2370   20.7920 C.ar  601  R8E601      0.0723
      8  C26        9.7680   11.4910   21.7840 C.1   601  R8E601      0.1005
      9  N27        9.4830   10.8500   22.6380 N.1   601  R8E601     -0.1908
     10  C5        10.9420   13.9140   18.6470 C.ar  601  R8E601      0.0489
     11  C6        10.5810   14.4390   19.9220 C.ar  601  R8E601      0.0614
     12 CL28       10.6090   16.1840   20.2970 Cl    601  R8E601     -0.0821
     13  C1        10.1750   13.6450   20.9950 C.ar  601  R8E601      0.0219
     14  C12       10.8900   12.7720   13.8970 C.ar  601  R8E601      0.0176
     15  C11        9.5550   13.0510   13.8650 C.ar  601  R8E601      0.0380
     16  C10        8.7310   12.9360   14.9050 C.ar  601  R8E601      0.1422
     17  C9         9.1780   12.5060   16.0970 C.ar  601  R8E601      0.0752
     18  O14        7.4210   13.2700   14.7690 O.3   601  R8E601     -0.4688
     19  C15        6.6560   13.1210   13.6150 C.3   601  R8E601      0.2533
     20  C16        6.6020   11.6260   13.5530 C.2   601  R8E601      0.1349
     21  N20        6.8550   10.9040   12.4500 N.2   601  R8E601     -0.1382
     22  N19        6.7180    9.5560   12.8370 N.2   601  R8E601     -0.0819
     23  C18        6.3820    9.3850   14.0850 C.1   601  R8E601      0.1090
     24  N24        6.1500    8.2880   14.8010 N.2   601  R8E601     -0.3349
     25  C23        5.8060    8.3490   16.1080 C.2   601  R8E601      0.2122
     26  N25        5.6010    7.0530   16.7920 N.pl3 601  R8E601     -0.0967
     27  C22        5.6760    9.5640   16.7650 C.3   601  R8E601      0.1058
     28  C21        5.9270   10.7390   16.0250 C.2   601  R8E601     -0.0047
     29  C17        6.2770   10.6300   14.6620 C.2   601  R8E601      0.0907
@<TRIPOS>BOND
     1    21    22    1
     2    21    20    2
     3    22    23    2
     4    20    19    1
     5    20    29    1
     6    19    18    1
     7    15    14   ar
     8    15    16   ar
     9    14     2   ar
    10    23    29    1
    11    23    24    2
    12    29    28    2
    13    18    16    1
    14    24    25    2
    15    16    17   ar
    16     2     1    1
    17     2     3   ar
    18    28    27    1
    19    17     3   ar
    20    25    27    1
    21    25    26    1
    22     3     4    1
    23     4     5    1
    24     5    10   ar
    25     5     6   ar
    26    10    11   ar
    27     6     7   ar
    28    11    12    1
    29    11    13   ar
    30     7    13   ar
    31     7     8    1
    32     8     9    3
