@<TRIPOS>MOLECULE
3drs_R8D_A_1.pdb
 28 31 0 0 0
SMALL
GASTEIGER

@<TRIPOS>ATOM
      1 CL28       12.3950   12.1000   15.4070 Cl    601  R8D601     -0.0791
      2  C13       10.6950   12.5360   14.9570 C.ar  601  R8D601      0.0923
      3  C8         9.8050   12.3700   15.9500 C.ar  601  R8D601      0.1588
      4  O7        10.5030   11.9530   17.0040 O.3   601  R8D601     -0.4525
      5  C4        10.4590   12.4190   18.2260 C.ar  601  R8D601      0.1469
      6  C3        10.1890   11.5120   19.2320 C.ar  601  R8D601      0.0478
      7  C2        10.0920   11.8460   20.5630 C.ar  601  R8D601      0.0723
      8  C25        9.8840   10.9530   21.4910 C.1   601  R8D601      0.1005
      9  N26        9.6930   10.1100   22.3690 N.1   601  R8D601     -0.1908
     10  C5        10.6690   13.6900   18.4690 C.ar  601  R8D601      0.0489
     11  C6        10.5610   13.9710   19.7720 C.ar  601  R8D601      0.0614
     12 CL27       10.7850   15.5820   20.0410 Cl    601  R8D601     -0.0821
     13  C1        10.2860   13.1810   20.8550 C.ar  601  R8D601      0.0219
     14  C12       10.2940   12.9930   13.7190 C.ar  601  R8D601      0.0176
     15  C11        8.9410   13.2470   13.5320 C.ar  601  R8D601      0.0380
     16  C10        8.0300   13.0150   14.5450 C.ar  601  R8D601      0.1422
     17  C9         8.4340   12.5720   15.8380 C.ar  601  R8D601      0.0752
     18  O14        6.7280   13.2330   14.1650 O.3   601  R8D601     -0.4688
     19  C15        5.7590   12.2080   14.4530 C.3   601  R8D601      0.2533
     20  C16        6.0240   10.8440   13.9210 C.2   601  R8D601      0.1342
     21  N20        6.5710   10.5630   12.7100 N.2   601  R8D601     -0.1392
     22  N19        6.7020    9.1420   12.5730 N.2   601  R8D601     -0.0937
     23  C18        6.2370    8.4830   13.7030 C.1   601  R8D601      0.0578
     24  N24        6.1280    7.1220   14.1060 N.2   601  R8D601     -0.1908
     25  C23        5.6080    6.7150   15.3170 C.2   601  R8D601      0.1096
     26  C22        5.1510    7.6860   16.1980 C.2   601  R8D601      0.0222
     27  C21        5.2700    9.0720   15.8420 C.2   601  R8D601      0.0131
     28  C17        5.7940    9.4890   14.5890 C.2   601  R8D601      0.0830
@<TRIPOS>BOND
     1    22    21    1
     2    22    23    2
     3    21    20    2
     4    15    14   ar
     5    15    16   ar
     6    23    24    2
     7    23    28    1
     8    14     2   ar
     9    20    19    1
    10    20    28    1
    11    24    25    1
    12    18    19    1
    13    18    16    1
    14    16    17   ar
    15    28    27    2
    16     2     1    1
    17     2     3   ar
    18    25    26    2
    19    17     3   ar
    20    27    26    1
    21     3     4    1
    22     4     5    1
    23     5    10   ar
    24     5     6   ar
    25    10    11   ar
    26     6     7   ar
    27    11    12    1
    28    11    13   ar
    29     7    13   ar
    30     7     8    1
    31     8     9    3
