@<TRIPOS>MOLECULE
3drw_AMP_A_1.pdb
 23 25 0 0 0
SMALL
GASTEIGER

@<TRIPOS>ATOM
      1  P         16.7790  -18.0480  -10.0670 P.3   1484  AMP1484     0.5327
      2  O1P       17.3050  -18.0810  -11.4960 O.2   1484  AMP1484    -0.2224
      3  O2P       17.6510  -17.5140   -8.9130 O.3   1484  AMP1484    -0.1145
      4  O3P       16.1080  -19.3720   -9.7670 O.3   1484  AMP1484    -0.1145
      5  O5'       15.5910  -16.9530  -10.1120 O.3   1484  AMP1484    -0.2675
      6  C5'       14.5970  -16.9120   -9.0920 C.3   1484  AMP1484     0.1860
      7  C4'       13.5120  -16.0350   -9.6370 C.3   1484  AMP1484     0.1823
      8  O4'       14.0540  -14.7680  -10.0230 O.3   1484  AMP1484    -0.3135
      9  C3'       12.9680  -16.6020  -10.9150 C.3   1484  AMP1484     0.2184
     10  O3'       11.9850  -17.5500  -10.5090 O.3   1484  AMP1484    -0.2174
     11  C2'       12.3590  -15.3420  -11.5300 C.3   1484  AMP1484     0.2570
     12  O2'       11.1110  -15.2960  -10.8370 O.3   1484  AMP1484    -0.2130
     13  C1'       13.3260  -14.2160  -11.1000 C.3   1484  AMP1484     0.3186
     14  N9        14.2300  -13.8740  -12.2300 N.pl3 1484  AMP1484    -0.1439
     15  C8        15.2040  -14.6610  -12.7500 C.3   1484  AMP1484     0.3377
     16  N7        15.7900  -14.0440  -13.8180 N.2   1484  AMP1484    -0.2095
     17  C5        15.1680  -12.8690  -14.0060 C.2   1484  AMP1484     0.2526
     18  C6        15.3110  -11.7450  -14.9600 C.2   1484  AMP1484     0.4393
     19  N6        16.2550  -11.8330  -15.9370 N.pl3 1484  AMP1484     0.2180
     20  N1        14.4790  -10.6860  -14.8030 N.2   1484  AMP1484     0.0021
     21  C2        13.5680  -10.6470  -13.8220 C.3   1484  AMP1484     0.5254
     22  N3        13.4010  -11.6190  -12.9070 N.2   1484  AMP1484    -0.0055
     23  C4        14.1560  -12.7520  -12.9640 C.2   1484  AMP1484     0.3518
@<TRIPOS>BOND
     1    19    18    1
     2    18    20    2
     3    18    17    1
     4    20    21    1
     5    17    16    2
     6    17    23    1
     7    21    22    1
     8    16    15    1
     9    23    22    2
    10    23    14    1
    11    15    14    1
    12    14    13    1
    13    11    13    1
    14    11     9    1
    15    11    12    1
    16     2     1    2
    17    13     8    1
    18     9    10    1
    19     9     7    1
    20     5     1    1
    21     5     6    1
    22     1     4    1
    23     1     3    1
    24     8     7    1
    25     7     6    1
