@<TRIPOS>MOLECULE
3dsi_HEM_A_1.pdb
 43 50 0 0 0
SMALL
GASTEIGER

@<TRIPOS>ATOM
      1  CHA       -1.5270   25.7310   36.3280 C.2   600  HEM600      0.0000
      2  CHB        0.9530   29.6230   34.8430 C.2   600  HEM600      0.0000
      3  CHC        4.9430   27.8020   36.9680 C.2   600  HEM600      0.0000
      4  CHD        2.6140   23.8080   38.1850 C.2   600  HEM600      0.0000
      5  C1A       -1.2240   26.9390   35.7620 C.ar  600  HEM600      0.0000
      6  C2A       -2.1700   27.8060   35.0910 C.ar  600  HEM600      0.0000
      7  C3A       -1.4790   28.8780   34.6880 C.ar  600  HEM600      0.0000
      8  C4A       -0.0950   28.7400   35.0950 C.ar  600  HEM600      0.0000
      9  CMA       -2.0130   30.0980   33.9090 C.3   600  HEM600      0.0000
     10  CAA       -3.6750   27.5140   34.8590 C.3   600  HEM600      0.0000
     11  CBA       -3.8640   26.4330   33.7770 C.3   600  HEM600      0.0000
     12  CGA       -5.3260   26.3330   33.4230 C.2   600  HEM600      0.0000
     13  O1A       -5.7620   27.1260   32.5580 O.co2 600  HEM600      0.0000
     14  O2A       -6.0520   25.4600   33.9700 O.co2 600  HEM600      0.0000
     15  C1B        2.2830   29.4440   35.1970 C.2   600  HEM600      0.0000
     16  C2B        3.4250   30.2510   34.8360 C.2   600  HEM600      0.0000
     17  C3B        4.5290   29.7380   35.4160 C.2   600  HEM600      0.0000
     18  C4B        4.1160   28.5710   36.1740 C.2   600  HEM600      0.0000
     19  CMB        3.3020   31.4820   33.9090 C.3   600  HEM600      0.0000
     20  CAB        5.9980   30.2050   35.3710 C.2   600  HEM600      0.0000
     21  CBB        6.3210   31.4990   35.2310 C.2   600  HEM600      0.0000
     22  C1C        4.6500   26.6250   37.6260 C.ar  600  HEM600      0.0000
     23  C2C        5.4770   25.8980   38.5870 C.ar  600  HEM600      0.0000
     24  C3C        4.8280   24.7720   38.9230 C.ar  600  HEM600      0.0000
     25  C4C        3.5810   24.7770   38.1770 C.ar  600  HEM600      0.0000
     26  CMC        6.8420   26.3660   39.1430 C.3   600  HEM600      0.0000
     27  CAC        5.3000   23.6640   39.9060 C.2   600  HEM600      0.0000
     28  CBC        4.4420   23.0210   40.6800 C.2   600  HEM600      0.0000
     29  C1D        1.3160   23.9700   37.7360 C.2   600  HEM600      0.0000
     30  C2D        0.3140   22.9550   37.8440 C.2   600  HEM600      0.0000
     31  C3D       -0.9580   23.5240   37.2920 C.2   600  HEM600      0.0000
     32  C4D       -0.6150   24.8740   36.8800 C.2   600  HEM600      0.0000
     33  CMD        0.4950   21.5380   38.4250 C.3   600  HEM600      0.0000
     34  CAD       -2.3260   22.8110   37.2370 C.3   600  HEM600      0.0000
     35  CBD       -2.9050   22.9690   38.6480 C.3   600  HEM600      0.0000
     36  CGD       -3.9540   21.9470   39.0170 C.2   600  HEM600      0.0000
     37  O1D       -4.1280   20.9620   38.2640 O.co2 600  HEM600      0.0000
     38  O2D       -4.6050   22.1600   40.0750 O.co2 600  HEM600      0.0000
     39  NA         0.0230   27.5380   35.7860 N.ar  600  HEM600      0.0000
     40  NB         2.7580   28.4140   35.9920 N.2   600  HEM600      0.0000
     41  NC         3.4850   25.9260   37.4030 N.ar  600  HEM600      0.0000
     42  ND         0.7260   25.1000   37.1510 N.2   600  HEM600      0.0000
     43 FE          1.6710   26.8870   36.8590 Fe    600  HEM600      0.0000
@<TRIPOS>BOND
     1    13    12   ar
     2    12    11    1
     3    12    14   ar
     4    11    10    1
     5    19    16    1
     6     9     7    1
     7     7     6   ar
     8     7     8   ar
     9    16    15    1
    10    16    17    2
    11     2     8    2
    12     2    15    1
    13    10     6    1
    14     6     5   ar
    15     8    39   ar
    16    15    40    2
    17    21    20    2
    18    20    17    1
    19    17    18    1
    20     5    39   ar
    21     5     1    2
    22    39    43    1
    23    40    18    1
    24    40    43    1
    25    18     3    2
    26     1    32    1
    27    43    42    1
    28    43    41    1
    29    32    42    2
    30    32    31    1
    31     3    22    1
    32    42    29    1
    33    34    31    1
    34    34    35    1
    35    31    30    2
    36    41    22   ar
    37    41    25   ar
    38    22    23   ar
    39    29    30    1
    40    29     4    2
    41    30    33    1
    42    25     4    1
    43    25    24   ar
    44    37    36   ar
    45    23    24   ar
    46    23    26    1
    47    35    36    1
    48    24    27    1
    49    36    38   ar
    50    27    28    2
