@<TRIPOS>MOLECULE
3dsi_T24_A_1.pdb
 21 20 0 0 0
SMALL
GASTEIGER

@<TRIPOS>ATOM
      1  CAR        5.2030   26.6280   27.4130 C.3   601  T24601      0.0050
      2  CAQ        4.0380   26.4780   28.4070 C.3   601  T24601      0.0257
      3  CAP        3.6230   27.7010   28.9450 C.2   601  T24601     -0.0306
      4  CAO        3.2530   27.8860   30.2790 C.2   601  T24601     -0.0277
      5  CAN        3.2250   26.8580   31.2470 C.3   601  T24601      0.0631
      6  CAM        2.2980   27.2260   32.4220 C.3   601  T24601      0.1783
      7  OAS        2.4360   26.3380   33.5680 O.3   601  T24601     -0.2179
      8  CAL        0.8030   27.2890   32.0310 C.2   601  T24601      0.0064
      9  CAK        0.2460   26.7870   30.8650 C.2   601  T24601     -0.0024
     10  CAJ       -1.1260   26.9660   30.6930 C.2   601  T24601     -0.0048
     11  CAI       -1.8500   26.5120   29.5950 C.2   601  T24601     -0.0261
     12  CAH       -1.2630   25.8110   28.5290 C.3   601  T24601      0.0260
     13  CAG       -1.2640   26.5930   27.2130 C.3   601  T24601      0.0047
     14  CAF       -0.1320   27.6410   27.2130 C.3   601  T24601      0.0003
     15  CAE       -0.1740   28.5490   25.9800 C.3   601  T24601      0.0000
     16  CAD        0.8200   29.7220   26.1380 C.3   601  T24601      0.0006
     17  CAC        0.8530   30.6800   24.9200 C.3   601  T24601      0.0118
     18  CAB       -0.5430   31.1590   24.4420 C.3   601  T24601      0.1141
     19  CAA       -1.3140   31.9970   25.4910 C.2   601  T24601      0.3649
     20  OAU       -0.6600   32.8520   26.1530 O.co2 601  T24601     -0.2457
     21  OAT       -2.5440   31.7690   25.6210 O.co2 601  T24601     -0.2457
@<TRIPOS>BOND
     1    18    17    1
     2    18    19    1
     3    17    16    1
     4    19    21   ar
     5    19    20   ar
     6    15    16    1
     7    15    14    1
     8    14    13    1
     9    13    12    1
    10     1     2    1
    11     2     3    1
    12    12    11    1
    13     3     4    2
    14    11    10    2
    15     4     5    1
    16    10     9    1
    17     9     8    2
    18     5     6    1
    19     8     6    1
    20     6     7    1
