@<TRIPOS>MOLECULE
3dsj_HEM_A_1.pdb
 43 50 0 0 0
SMALL
GASTEIGER

@<TRIPOS>ATOM
      1  CHA       -1.4920   25.7050   36.4350 C.2   600  HEM600      0.0000
      2  CHB        1.0100   29.5720   34.8780 C.2   600  HEM600      0.0000
      3  CHC        4.9950   27.7750   37.0490 C.2   600  HEM600      0.0000
      4  CHD        2.6510   23.7730   38.2460 C.2   600  HEM600      0.0000
      5  C1A       -1.1750   26.9080   35.8590 C.ar  600  HEM600      0.0000
      6  C2A       -2.1100   27.7690   35.1510 C.ar  600  HEM600      0.0000
      7  C3A       -1.4260   28.8480   34.7300 C.ar  600  HEM600      0.0000
      8  C4A       -0.0440   28.6990   35.1530 C.ar  600  HEM600      0.0000
      9  CMA       -1.9590   30.0530   33.9180 C.3   600  HEM600      0.0000
     10  CAA       -3.6110   27.4600   34.9380 C.3   600  HEM600      0.0000
     11  CBA       -3.7990   26.4500   33.8050 C.3   600  HEM600      0.0000
     12  CGA       -5.2690   26.3200   33.4690 C.2   600  HEM600      0.0000
     13  O1A       -5.7300   27.0770   32.5790 O.co2 600  HEM600      0.0000
     14  O2A       -5.9760   25.4560   34.0600 O.co2 600  HEM600      0.0000
     15  C1B        2.3440   29.3840   35.2270 C.2   600  HEM600      0.0000
     16  C2B        3.4860   30.1820   34.8400 C.2   600  HEM600      0.0000
     17  C3B        4.5910   29.6810   35.4480 C.2   600  HEM600      0.0000
     18  C4B        4.1770   28.5300   36.2320 C.2   600  HEM600      0.0000
     19  CMB        3.3850   31.4030   33.9010 C.3   600  HEM600      0.0000
     20  CAB        6.0610   30.1500   35.3830 C.2   600  HEM600      0.0000
     21  CBB        6.3950   31.4390   35.2460 C.2   600  HEM600      0.0000
     22  C1C        4.6850   26.6050   37.7100 C.ar  600  HEM600      0.0000
     23  C2C        5.5080   25.8830   38.6720 C.ar  600  HEM600      0.0000
     24  C3C        4.8570   24.7620   39.0010 C.ar  600  HEM600      0.0000
     25  C4C        3.6100   24.7430   38.2340 C.ar  600  HEM600      0.0000
     26  CMC        6.8560   26.3780   39.2450 C.3   600  HEM600      0.0000
     27  CAC        5.3380   23.6660   39.9870 C.2   600  HEM600      0.0000
     28  CBC        4.4670   23.0870   40.8030 C.2   600  HEM600      0.0000
     29  C1D        1.3500   23.9350   37.8130 C.2   600  HEM600      0.0000
     30  C2D        0.3580   22.9110   37.8960 C.2   600  HEM600      0.0000
     31  C3D       -0.9180   23.4790   37.3650 C.2   600  HEM600      0.0000
     32  C4D       -0.5860   24.8430   36.9840 C.2   600  HEM600      0.0000
     33  CMD        0.5930   21.4980   38.4630 C.3   600  HEM600      0.0000
     34  CAD       -2.2760   22.7540   37.3200 C.3   600  HEM600      0.0000
     35  CBD       -2.8210   22.9320   38.7560 C.3   600  HEM600      0.0000
     36  CGD       -3.9430   21.9810   39.0920 C.2   600  HEM600      0.0000
     37  O1D       -4.1440   21.0250   38.3240 O.co2 600  HEM600      0.0000
     38  O2D       -4.6330   22.1990   40.1320 O.co2 600  HEM600      0.0000
     39  NA         0.0780   27.5020   35.8650 N.ar  600  HEM600      0.0000
     40  NB         2.8170   28.3750   36.0480 N.2   600  HEM600      0.0000
     41  NC         3.5210   25.9060   37.4710 N.ar  600  HEM600      0.0000
     42  ND         0.7640   25.0680   37.2400 N.2   600  HEM600      0.0000
     43 FE          1.7180   26.8660   36.9340 Fe    600  HEM600      0.0000
@<TRIPOS>BOND
     1    13    12   ar
     2    12    11    1
     3    12    14   ar
     4    11    10    1
     5    19    16    1
     6     9     7    1
     7     7     6   ar
     8     7     8   ar
     9    16    15    1
    10    16    17    2
    11     2     8    2
    12     2    15    1
    13    10     6    1
    14     6     5   ar
    15     8    39   ar
    16    15    40    2
    17    21    20    2
    18    20    17    1
    19    17    18    1
    20     5    39   ar
    21     5     1    2
    22    39    43    1
    23    40    18    1
    24    40    43    1
    25    18     3    2
    26     1    32    1
    27    43    42    1
    28    43    41    1
    29    32    42    2
    30    32    31    1
    31     3    22    1
    32    42    29    1
    33    34    31    1
    34    34    35    1
    35    31    30    2
    36    41    22   ar
    37    41    25   ar
    38    22    23   ar
    39    29    30    1
    40    29     4    2
    41    30    33    1
    42    25     4    1
    43    25    24   ar
    44    37    36   ar
    45    23    24   ar
    46    23    26    1
    47    35    36    1
    48    24    27    1
    49    36    38   ar
    50    27    28    2
