@<TRIPOS>MOLECULE
3dsj_243_A_1.pdb
 21 20 0 0 0
SMALL
GASTEIGER

@<TRIPOS>ATOM
      1  OAS       -0.6010   32.9270   26.2520 O.co2 601  243601     -0.2457
      2  CAA       -1.1950   32.0820   25.5070 C.2   601  243601      0.3649
      3  OAT       -2.4250   31.8110   25.6010 O.co2 601  243601     -0.2457
      4  CAB       -0.4110   31.3110   24.4530 C.3   601  243601      0.1141
      5  CAC        0.9360   30.7580   24.9580 C.3   601  243601      0.0118
      6  CAD        0.8070   29.8610   26.1930 C.3   601  243601      0.0006
      7  CAE       -0.1460   28.6920   25.9170 C.3   601  243601      0.0000
      8  CAF       -0.1610   27.7220   27.0880 C.3   601  243601      0.0003
      9  CAG       -1.3350   26.7450   26.9770 C.3   601  243601      0.0047
     10  CAH       -1.3500   25.8520   28.1970 C.3   601  243601      0.0260
     11  CAI       -1.9540   26.5280   29.4240 C.2   601  243601     -0.0261
     12  CAJ       -1.2710   26.8250   30.5470 C.2   601  243601     -0.0048
     13  CAK        0.0500   26.6930   30.7530 C.2   601  243601     -0.0024
     14  CAL        0.5730   27.1110   31.9160 C.2   601  243601      0.0061
     15  CAM        2.0510   27.2960   32.2330 C.3   601  243601      0.1740
     16  OAU        2.3490   26.5760   33.4500 O.3   601  243601     -0.2183
     17  CAN        2.9850   26.8080   31.1390 C.3   601  243601      0.0375
     18  CAO        3.1020   27.8320   30.0170 C.3   601  243601      0.0030
     19  CAP        4.2000   27.4410   29.0410 C.3   601  243601      0.0001
     20  CAQ        3.8070   26.3560   28.0710 C.3   601  243601      0.0000
     21  CAR        5.0440   26.0070   27.2600 C.3   601  243601      0.0000
@<TRIPOS>BOND
     1     4     5    1
     2     4     2    1
     3     5     6    1
     4     2     3   ar
     5     2     1   ar
     6     7     6    1
     7     7     8    1
     8     9     8    1
     9     9    10    1
    10    21    20    1
    11    20    19    1
    12    10    11    1
    13    19    18    1
    14    11    12    2
    15    18    17    1
    16    12    13    1
    17    13    14    2
    18    17    15    1
    19    14    15    1
    20    15    16    1
