@<TRIPOS>MOLECULE
3dsk_HEM_A_1.pdb
 43 50 0 0 0
SMALL
GASTEIGER

@<TRIPOS>ATOM
      1  CHA       -1.6420   25.7600   36.4720 C.2   600  HEM600      0.0000
      2  CHB        0.8000   29.7060   35.0660 C.2   600  HEM600      0.0000
      3  CHC        4.8770   27.9530   37.0310 C.2   600  HEM600      0.0000
      4  CHD        2.5600   23.9860   38.2940 C.2   600  HEM600      0.0000
      5  C1A       -1.3730   26.9940   35.9290 C.ar  600  HEM600      0.0000
      6  C2A       -2.3240   27.8660   35.2530 C.ar  600  HEM600      0.0000
      7  C3A       -1.6450   28.9600   34.8650 C.ar  600  HEM600      0.0000
      8  C4A       -0.2520   28.8140   35.2860 C.ar  600  HEM600      0.0000
      9  CMA       -2.2170   30.1790   34.1000 C.3   600  HEM600      0.0000
     10  CAA       -3.8200   27.5430   35.0110 C.3   600  HEM600      0.0000
     11  CBA       -3.9820   26.5020   33.8990 C.3   600  HEM600      0.0000
     12  CGA       -5.4450   26.3500   33.5160 C.2   600  HEM600      0.0000
     13  O1A       -5.8800   27.0870   32.5950 O.co2 600  HEM600      0.0000
     14  O2A       -6.1640   25.4960   34.0980 O.co2 600  HEM600      0.0000
     15  C1B        2.1500   29.5480   35.3630 C.2   600  HEM600      0.0000
     16  C2B        3.2900   30.3820   34.9450 C.2   600  HEM600      0.0000
     17  C3B        4.4060   29.8630   35.4850 C.2   600  HEM600      0.0000
     18  C4B        4.0210   28.7100   36.2750 C.2   600  HEM600      0.0000
     19  CMB        3.1550   31.6030   34.0070 C.3   600  HEM600      0.0000
     20  CAB        5.8910   30.2880   35.4210 C.2   600  HEM600      0.0000
     21  CBB        6.2870   31.5370   35.2040 C.2   600  HEM600      0.0000
     22  C1C        4.6060   26.7760   37.6990 C.ar  600  HEM600      0.0000
     23  C2C        5.4250   26.0450   38.6510 C.ar  600  HEM600      0.0000
     24  C3C        4.7700   24.9380   39.0050 C.ar  600  HEM600      0.0000
     25  C4C        3.5260   24.9450   38.2590 C.ar  600  HEM600      0.0000
     26  CMC        6.7920   26.4780   39.2290 C.3   600  HEM600      0.0000
     27  CAC        5.2640   23.8400   39.9780 C.2   600  HEM600      0.0000
     28  CBC        4.4340   23.0750   40.6660 C.2   600  HEM600      0.0000
     29  C1D        1.2620   24.1110   37.8650 C.2   600  HEM600      0.0000
     30  C2D        0.3010   23.0420   38.0090 C.2   600  HEM600      0.0000
     31  C3D       -0.9880   23.5750   37.4730 C.2   600  HEM600      0.0000
     32  C4D       -0.7090   24.9330   37.0180 C.2   600  HEM600      0.0000
     33  CMD        0.5210   21.6440   38.6140 C.3   600  HEM600      0.0000
     34  CAD       -2.3200   22.8240   37.4200 C.3   600  HEM600      0.0000
     35  CBD       -2.9040   22.9080   38.8420 C.3   600  HEM600      0.0000
     36  CGD       -4.0600   21.9650   39.0860 C.2   600  HEM600      0.0000
     37  O1D       -4.3100   21.0530   38.2830 O.co2 600  HEM600      0.0000
     38  O2D       -4.7580   22.1710   40.1110 O.co2 600  HEM600      0.0000
     39  NA        -0.1350   27.6160   35.9590 N.ar  600  HEM600      0.0000
     40  NB         2.6570   28.5480   36.1340 N.2   600  HEM600      0.0000
     41  NC         3.4320   26.0800   37.5010 N.ar  600  HEM600      0.0000
     42  ND         0.6310   25.2000   37.2630 N.2   600  HEM600      0.0000
     43 FE          1.5710   27.0280   36.9970 Fe    600  HEM600      0.0000
@<TRIPOS>BOND
     1    13    12   ar
     2    12    11    1
     3    12    14   ar
     4    11    10    1
     5    19    16    1
     6     9     7    1
     7     7     6   ar
     8     7     8   ar
     9    16    15    1
    10    16    17    2
    11    10     6    1
    12     2     8    2
    13     2    15    1
    14    21    20    2
    15     6     5   ar
    16     8    39   ar
    17    15    40    2
    18    20    17    1
    19    17    18    1
    20     5    39   ar
    21     5     1    2
    22    39    43    1
    23    40    18    1
    24    40    43    1
    25    18     3    2
    26     1    32    1
    27    43    42    1
    28    43    41    1
    29    32    42    2
    30    32    31    1
    31     3    22    1
    32    42    29    1
    33    34    31    1
    34    34    35    1
    35    31    30    2
    36    41    22   ar
    37    41    25   ar
    38    22    23   ar
    39    29    30    1
    40    29     4    2
    41    30    33    1
    42    25     4    1
    43    25    24   ar
    44    37    36   ar
    45    23    24   ar
    46    23    26    1
    47    35    36    1
    48    24    27    1
    49    36    38   ar
    50    27    28    2
