@<TRIPOS>MOLECULE
3dsk_T25_A_1.pdb
 21 21 0 0 0
SMALL
GASTEIGER

@<TRIPOS>ATOM
      1  O1        -2.5650   31.8330   25.7970 O.co2 601  T25601     -0.2457
      2  C1        -1.3380   32.0940   25.6380 C.2   601  T25601      0.3649
      3  O2        -0.7070   32.9040   26.3750 O.co2 601  T25601     -0.2457
      4  C2        -0.6060   31.4070   24.4970 C.3   601  T25601      0.1141
      5  C3         0.7700   30.8550   24.8890 C.3   601  T25601      0.0118
      6  C4         0.7440   29.9260   26.1040 C.3   601  T25601      0.0006
      7  C5        -0.1090   28.6650   25.9130 C.3   601  T25601      0.0000
      8  C6        -0.1450   27.8990   27.2290 C.3   601  T25601      0.0003
      9  C7        -1.1160   26.7180   27.2370 C.3   601  T25601      0.0047
     10  C8        -1.0270   25.9900   28.5810 C.3   601  T25601      0.0257
     11  C9        -1.7870   26.7550   29.6700 C.2   601  T25601     -0.0306
     12  C10       -1.2380   26.7970   31.1010 C.2   601  T25601     -0.0281
     13  C11        0.0500   26.0910   31.5230 C.3   601  T25601      0.0577
     14  C12        0.6700   26.9460   32.6280 C.3   601  T25601      0.1465
     15  O3         1.7610   26.2980   33.2740 O.3   601  T25601     -0.3534
     16  C13        2.1240   27.4010   32.4320 C.3   601  T25601      0.1425
     17  C14        2.8730   26.8810   31.2070 C.3   601  T25601      0.0321
     18  C15        2.7310   27.8510   30.0360 C.3   601  T25601      0.0026
     19  C16        3.8480   27.7080   28.9960 C.3   601  T25601      0.0001
     20  C17        3.7800   26.3910   28.2440 C.3   601  T25601      0.0000
     21  C18        4.9640   26.2110   27.3150 C.3   601  T25601      0.0000
@<TRIPOS>BOND
     1     4     5    1
     2     4     2    1
     3     5     6    1
     4     2     1   ar
     5     2     3   ar
     6     7     6    1
     7     7     8    1
     8     8     9    1
     9     9    10    1
    10    21    20    1
    11    20    19    1
    12    10    11    1
    13    19    18    1
    14    11    12    2
    15    18    17    1
    16    12    13    1
    17    17    16    1
    18    13    14    1
    19    16    14    1
    20    16    15    1
    21    14    15    1
