@<TRIPOS>MOLECULE
3dsl_TRP_A_1.pdb
 15 16 0 0 0
SMALL
GASTEIGER

@<TRIPOS>ATOM
      1  N         -1.5120   -1.9980    2.7610 N.3   505  TRP505     -0.1205
      2  CA        -0.3340   -1.2600    3.1770 C.3   505  TRP505      0.1984
      3  C         -0.3570   -0.8020    4.6400 C.2   505  TRP505      0.3822
      4  O         -1.3000   -0.9930    5.4180 O.co2 505  TRP505     -0.2440
      5  CB        -0.1150   -0.0690    2.2440 C.3   505  TRP505      0.0549
      6  CG        -1.0540    1.0920    2.4600 C.2   505  TRP505     -0.0138
      7  CD1       -2.3000    1.0580    3.0200 C.2   505  TRP505      0.0907
      8  CD2       -0.8220    2.4570    2.0870 C.3   505  TRP505      0.0819
      9  NE1       -2.8530    2.3260    3.0370 N.2   505  TRP505     -0.2482
     10  CE2       -1.9650    3.2000    2.4670 C.2   505  TRP505      0.0665
     11  CE3        0.2460    3.1260    1.4770 C.2   505  TRP505     -0.0164
     12  CZ2       -2.0730    4.5660    2.2530 C.2   505  TRP505      0.0153
     13  CZ3        0.1410    4.4890    1.2670 C.2   505  TRP505     -0.0038
     14  CH2       -1.0130    5.1960    1.6560 C.2   505  TRP505      0.0009
     15  OXT        0.6260   -0.2150    5.0960 O.co2 505  TRP505     -0.2440
@<TRIPOS>BOND
     1    13    11    2
     2    13    14    1
     3    11     8    1
     4    14    12    2
     5     8     6    1
     6     8    10    1
     7     5     6    1
     8     5     2    1
     9    12    10    1
    10     6     7    2
    11    10     9    2
    12     1     2    1
    13     7     9    1
    14     2     3    1
    15     3    15   ar
    16     3     4   ar
