@<TRIPOS>MOLECULE
3dsl_FLE_A_1.pdb
 15 15 0 0 0
SMALL
GASTEIGER

@<TRIPOS>ATOM
      1  N         -2.6230   -3.7170   -0.2360 N.am  504  FLE504     -0.1928
      2  CA        -2.7920   -3.3930    1.2170 C.3   504  FLE504      0.1600
      3  CB        -3.6450   -4.3290    2.1550 C.3   504  FLE504      0.0297
      4  CG        -4.0620   -5.7030    1.5510 C.3   504  FLE504      0.0022
      5  CD1       -4.5640   -6.6550    2.6350 C.3   504  FLE504      0.0001
      6  CD2       -5.1050   -5.5660    0.4260 C.3   504  FLE504      0.0001
      7  C         -1.4520   -2.8660    1.7530 C.2   504  FLE504      0.2287
      8  O         -0.4080   -3.2110    1.2310 O.2   504  FLE504     -0.2864
      9  C2        -2.8160   -2.6300   -1.1030 C.2   504  FLE504      0.2998
     10  O3        -3.3830   -1.6680   -0.5960 O.2   504  FLE504     -0.2650
     11  C4        -2.6560   -2.5280   -2.6010 C.ar  504  FLE504      0.2002
     12  O8        -3.2730   -1.5280   -3.3240 O.2   504  FLE504     -0.4458
     13  C5        -1.9270   -3.3130   -3.4690 C.ar  504  FLE504      0.0455
     14  C6        -2.1170   -2.7730   -4.7920 C.ar  504  FLE504      0.0440
     15  C7        -2.9410   -1.6900   -4.6460 C.ar  504  FLE504      0.1798
@<TRIPOS>BOND
     1    14    15   ar
     2    14    13   ar
     3    15    12   ar
     4    13    11   ar
     5    12    11   ar
     6    11     9    1
     7     9    10    2
     8     9     1   am
     9     1     2    1
    10     6     4    1
    11     2     7    1
    12     2     3    1
    13     8     7    2
    14     4     3    1
    15     4     5    1
