@<TRIPOS>MOLECULE
3dsr_ADP_A_1.pdb
 27 29 0 0 0
SMALL
GASTEIGER

@<TRIPOS>ATOM
      1  PB       -28.3750  -15.7280   28.4310 P.3   461  ADP461      0.5373
      2  O1B      -29.5490  -16.2980   29.2050 O.3   461  ADP461     -0.1143
      3  O2B      -27.0190  -16.2870   28.8170 O.3   461  ADP461     -0.1143
      4  O3B      -28.5970  -15.6550   26.9400 O.2   461  ADP461     -0.2221
      5  PA       -29.0620  -13.0260   28.1070 P.3   461  ADP461      0.2231
      6  O1A      -30.4100  -13.5410   27.6530 O.2   461  ADP461     -0.5169
      7  O2A      -28.9810  -11.7490   28.9140 O.3   461  ADP461     -0.4370
      8  O3A      -28.3170  -14.1930   28.9290 O.3   461  ADP461     -0.2261
      9  O5'      -28.0980  -12.8990   26.8270 O.3   461  ADP461     -0.3111
     10  C5'      -28.3110  -11.8700   25.8730 C.3   461  ADP461      0.1813
     11  C4'      -27.4820  -10.6790   26.3060 C.3   461  ADP461      0.1821
     12  O4'      -26.3530  -10.5030   25.4520 O.3   461  ADP461     -0.3135
     13  C3'      -28.2960   -9.4030   26.2480 C.3   461  ADP461      0.2184
     14  O3'      -28.5410   -8.9500   27.5820 O.3   461  ADP461     -0.2174
     15  C2'      -27.4190   -8.4190   25.5020 C.3   461  ADP461      0.2570
     16  O2'      -27.1830   -7.2270   26.2510 O.3   461  ADP461     -0.2130
     17  C1'      -26.0840   -9.1050   25.3480 C.3   461  ADP461      0.3186
     18  N9       -25.5020   -8.7110   24.0510 N.pl3 461  ADP461     -0.1439
     19  C8       -25.0480   -7.4840   23.7690 C.3   461  ADP461      0.3377
     20  N7       -24.5700   -7.4360   22.5040 N.2   461  ADP461     -0.2095
     21  C5       -24.7220   -8.6460   21.9580 C.2   461  ADP461      0.2526
     22  C6       -24.4320   -9.2670   20.6530 C.2   461  ADP461      0.4393
     23  N6       -23.8640   -8.5520   19.6640 N.pl3 461  ADP461      0.2180
     24  N1       -24.7520  -10.5630   20.4790 N.2   461  ADP461      0.0021
     25  C2       -25.3180  -11.2750   21.4660 C.3   461  ADP461      0.5254
     26  N3       -25.6120  -10.7750   22.6770 N.2   461  ADP461     -0.0055
     27  C4       -25.3430   -9.4870   22.9820 C.2   461  ADP461      0.3518
@<TRIPOS>BOND
     1    23    22    1
     2    24    22    2
     3    24    25    1
     4    22    21    1
     5    25    26    1
     6    21    20    2
     7    21    27    1
     8    20    19    1
     9    26    27    2
    10    27    18    1
    11    19    18    1
    12    18    17    1
    13    17    12    1
    14    17    15    1
    15    12    11    1
    16    15    13    1
    17    15    16    1
    18    10    11    1
    19    10     9    1
    20    13    11    1
    21    13    14    1
    22     9     5    1
    23     4     1    2
    24     6     5    2
    25     5     7    1
    26     5     8    1
    27     1     3    1
    28     1     8    1
    29     1     2    1
