@<TRIPOS>MOLECULE
3dst_GRG_B_1.pdb
 29 28 0 0 0
SMALL
GASTEIGER

@<TRIPOS>ATOM
      1  C20        3.5530   26.5290   18.2310 C.3   334  GRG334      0.0260
      2  C19        5.1100   28.5920   17.7190 C.3   334  GRG334      0.0260
      3  C18        4.9480   27.1710   18.2780 C.2   334  GRG334     -0.0478
      4  C17        6.0270   26.4410   18.8050 C.2   334  GRG334     -0.0342
      5  C16        7.3660   26.8390   18.9460 C.3   334  GRG334      0.0297
      6  C14        8.9550   24.6690   20.8870 C.3   334  GRG334      0.0260
      7  C13        8.3960   24.5220   19.4830 C.2   334  GRG334     -0.0478
      8  C15        8.3920   25.7430   18.5350 C.3   334  GRG334      0.0263
      9  C12        7.8860   23.3060   19.0550 C.2   334  GRG334     -0.0342
     10  C11        7.8120   22.1150   19.7830 C.3   334  GRG334      0.0297
     11  C9         7.5970   20.9100   18.8610 C.3   334  GRG334      0.0263
     12  C8         7.6040   19.5700   19.6180 C.2   334  GRG334     -0.0478
     13  C10        8.9490   18.9860   20.0440 C.3   334  GRG334      0.0260
     14  C7         6.4060   18.9040   19.8750 C.2   334  GRG334     -0.0342
     15  C6         6.2490   17.6770   20.5180 C.3   334  GRG334      0.0297
     16  C5         5.1650   17.6950   21.5960 C.3   334  GRG334      0.0264
     17  C3         4.7970   16.2600   22.0090 C.2   334  GRG334     -0.0454
     18  C4         3.3320   15.8260   21.9250 C.3   334  GRG334      0.0261
     19  C2         5.8050   15.3890   22.4430 C.2   334  GRG334     -0.0024
     20  C1         5.7110   14.0620   22.8630 C.3   334  GRG334      0.1747
     21  O1         6.6760   13.2470   22.1650 O.3   334  GRG334     -0.3089
     22  PA         7.0710   11.7480   22.6550 P.3   334  GRG334      0.2233
     23  O1A        8.2410   11.7980   23.5570 O.3   334  GRG334     -0.4370
     24  O3A        5.8390   11.3010   23.5790 O.3   334  GRG334     -0.2261
     25  O2A        7.0960   10.8740   21.4670 O.2   334  GRG334     -0.5169
     26  PB         4.6460   10.4030   22.9600 P.3   334  GRG334      0.5373
     27  O1B        3.8030    9.9200   24.2580 O.3   334  GRG334     -0.1143
     28  O2B        5.3720    9.0710   22.4070 O.3   334  GRG334     -0.1143
     29  O3B        3.8710   11.1550   21.9280 O.2   334  GRG334     -0.2221
@<TRIPOS>BOND
     1     2     3    1
     2     1     3    1
     3     3     4    2
     4     8     5    1
     5     8     7    1
     6     4     5    1
     7    11    12    1
     8    11    10    1
     9     9     7    2
    10     9    10    1
    11     7     6    1
    12    12    14    2
    13    12    13    1
    14    14    15    1
    15    15    16    1
    16    25    22    2
    17    16    17    1
    18    18    17    1
    19    29    26    2
    20    17    19    2
    21    21    22    1
    22    21    20    1
    23    28    26    1
    24    19    20    1
    25    22    23    1
    26    22    24    1
    27    26    24    1
    28    26    27    1
