@<TRIPOS>MOLECULE
3dsu_FPP_B_1.pdb
 24 23 0 0 0
SMALL
GASTEIGER

@<TRIPOS>ATOM
      1  C1         8.1360   17.4420   20.3000 C.3   334  FPP334      0.1747
      2  O1         8.0570   17.6070   21.7260 O.3   334  FPP334     -0.3089
      3  C2         8.2990   18.6840   19.6740 C.2   334  FPP334     -0.0024
      4  C3         7.3200   19.6640   19.4770 C.2   334  FPP334     -0.0454
      5  C4         5.8590   19.4600   19.9340 C.3   334  FPP334      0.0261
      6  C5         7.6880   20.9740   18.7570 C.3   334  FPP334      0.0264
      7  C6         7.2420   22.1960   19.5750 C.3   334  FPP334      0.0297
      8  C7         7.4330   23.3870   18.8710 C.2   334  FPP334     -0.0342
      9  C8         7.9830   24.5740   19.3460 C.2   334  FPP334     -0.0478
     10  C10        8.4360   24.6940   20.8020 C.3   334  FPP334      0.0260
     11  C9         8.0920   25.7760   18.3970 C.3   334  FPP334      0.0263
     12  C11        7.1440   26.9510   18.7700 C.3   334  FPP334      0.0297
     13  C12        5.7810   26.6360   18.7700 C.2   334  FPP334     -0.0342
     14  C13        4.7180   27.4100   18.2630 C.2   334  FPP334     -0.0478
     15  C14        4.9260   28.7580   17.5680 C.3   334  FPP334      0.0260
     16  C15        3.2710   26.9060   18.3730 C.3   334  FPP334      0.0260
     17  PA         7.6410   16.4310   22.7790 P.3   334  FPP334      0.2233
     18  O1A        6.8020   17.0590   23.8230 O.3   334  FPP334     -0.4370
     19  O2A        8.8690   15.7050   23.1570 O.2   334  FPP334     -0.5169
     20  O3A        6.7120   15.4310   21.8810 O.3   334  FPP334     -0.2261
     21  PB         5.7820   14.2130   22.4600 P.3   334  FPP334      0.5373
     22  O1B        4.3920   14.2920   21.9420 O.2   334  FPP334     -0.2221
     23  O2B        6.5420   12.8430   22.0320 O.3   334  FPP334     -0.1143
     24  O3B        5.8270   14.2270   24.0820 O.3   334  FPP334     -0.1143
@<TRIPOS>BOND
     1    15    14    1
     2    14    16    1
     3    14    13    2
     4    11    12    1
     5    11     9    1
     6     6     4    1
     7     6     7    1
     8    12    13    1
     9     8     9    2
    10     8     7    1
    11     9    10    1
    12     4     3    2
    13     4     5    1
    14     3     1    1
    15     1     2    1
    16     2    17    1
    17    20    21    1
    18    20    17    1
    19    22    21    2
    20    23    21    1
    21    21    24    1
    22    17    19    2
    23    17    18    1
