@<TRIPOS>MOLECULE
3dsv_GER_B_1.pdb
 15 14 0 0 0
SMALL
GASTEIGER

@<TRIPOS>ATOM
      1  C6         5.2240   18.2670   20.4130 C.3   334  GER334      0.0300
      2  C7         5.7360   19.3920   19.7560 C.2   334  GER334     -0.0342
      3  C8         7.0730   19.7270   19.5210 C.2   334  GER334     -0.0478
      4  C9         8.2390   18.8310   19.9720 C.3   334  GER334      0.0260
      5  C10        7.3910   21.0140   18.7550 C.3   334  GER334      0.0263
      6  C11        7.2370   22.2400   19.6460 C.3   334  GER334      0.0297
      7  C12        7.3680   23.4290   18.9290 C.2   334  GER334     -0.0342
      8  C13        7.9500   24.6060   19.3900 C.2   334  GER334     -0.0478
      9  C14        8.5190   24.7020   20.8040 C.3   334  GER334      0.0260
     10  C15        8.0020   25.8420   18.4860 C.3   334  GER334      0.0263
     11  C16        7.0320   26.9280   18.9960 C.3   334  GER334      0.0297
     12  C17        5.6890   26.5780   18.8240 C.2   334  GER334     -0.0342
     13  C18        4.6410   27.2840   18.2220 C.2   334  GER334     -0.0478
     14  C19        4.8170   28.6700   17.5960 C.3   334  GER334      0.0260
     15  C20        3.2240   26.6560   18.1790 C.3   334  GER334      0.0260
@<TRIPOS>BOND
     1    14    13    1
     2    15    13    1
     3    13    12    2
     4    10    11    1
     5    10     8    1
     6     5     3    1
     7     5     6    1
     8    12    11    1
     9     7     8    2
    10     7     6    1
    11     8     9    1
    12     3     2    2
    13     3     4    1
    14     2     1    1
