@<TRIPOS>MOLECULE
3dsw_GER_B_1.pdb
 12 11 0 0 0
SMALL
GASTEIGER

@<TRIPOS>ATOM
      1  C8         6.8060   19.6290   19.6630 C.3   334  GER334      0.0050
      2  C10        7.0930   20.8390   18.7350 C.3   334  GER334      0.0257
      3  C11        7.3680   22.1010   19.5880 C.2   334  GER334     -0.0307
      4  C12        7.4860   23.3040   18.8720 C.2   334  GER334     -0.0310
      5  C13        7.9630   24.5150   19.3820 C.3   334  GER334      0.0220
      6  C14        8.4140   24.6330   20.8400 C.3   334  GER334      0.0047
      7  C15        8.0420   25.7780   18.5110 C.3   334  GER334      0.0090
      8  C16        7.0880   26.8810   19.0090 C.3   334  GER334      0.0257
      9  C17        5.7470   26.5560   18.7700 C.2   334  GER334     -0.0346
     10  C18        4.7350   27.3160   18.1640 C.2   334  GER334     -0.0478
     11  C19        4.9700   28.7280   17.6200 C.3   334  GER334      0.0260
     12  C20        3.3190   26.7320   18.0210 C.3   334  GER334      0.0260
@<TRIPOS>BOND
     1    11    10    1
     2    12    10    1
     3    10     9    2
     4     7     8    1
     5     7     5    1
     6     2     3    1
     7     2     1    1
     8     9     8    1
     9     4     5    1
    10     4     3    2
    11     5     6    1
