@<TRIPOS>MOLECULE
3dsx_GER_B_1.pdb
 20 19 0 0 0
SMALL
GASTEIGER

@<TRIPOS>ATOM
      1  C1         6.0510   15.2290   22.5870 C.3   334  GER334      0.0300
      2  C2         4.7280   15.6350   22.4410 C.2   334  GER334     -0.0342
      3  C3         4.2600   16.8890   22.0710 C.2   334  GER334     -0.0478
      4  C4         2.7610   17.1110   21.9670 C.3   334  GER334      0.0260
      5  C5         5.1970   18.0530   21.7400 C.3   334  GER334      0.0263
      6  C6         5.3650   18.0900   20.2250 C.3   334  GER334      0.0297
      7  C7         5.8310   19.2870   19.6920 C.2   334  GER334     -0.0342
      8  C8         7.1260   19.7950   19.6000 C.2   334  GER334     -0.0478
      9  C9         8.3570   19.0570   20.1490 C.3   334  GER334      0.0260
     10  C10        7.3180   21.1320   18.8970 C.3   334  GER334      0.0263
     11  C11        7.4800   22.3110   19.8430 C.3   334  GER334      0.0297
     12  C12        7.5250   23.4900   19.1090 C.2   334  GER334     -0.0342
     13  C13        8.0880   24.7000   19.4690 C.2   334  GER334     -0.0478
     14  C14        8.7590   24.9220   20.8100 C.3   334  GER334      0.0260
     15  C15        7.9980   25.8620   18.4910 C.3   334  GER334      0.0263
     16  C16        7.0060   26.9010   19.0230 C.3   334  GER334      0.0297
     17  C17        5.6690   26.5550   18.8010 C.2   334  GER334     -0.0342
     18  C18        4.6760   27.3570   18.2210 C.2   334  GER334     -0.0478
     19  C19        4.9620   28.7720   17.7130 C.3   334  GER334      0.0260
     20  C20        3.2500   26.8140   18.0640 C.3   334  GER334      0.0260
@<TRIPOS>BOND
     1    19    18    1
     2    20    18    1
     3    18    17    2
     4    15    16    1
     5    15    13    1
     6    17    16    1
     7    10     8    1
     8    10    11    1
     9    12    13    2
    10    12    11    1
    11    13    14    1
    12     8     7    2
    13     8     9    1
    14     7     6    1
    15     6     5    1
    16     5     3    1
    17     4     3    1
    18     3     2    2
    19     2     1    1
