@<TRIPOS>MOLECULE
3dsy_SPN_M_1.pdb
 43 42 0 0 0
SMALL
GASTEIGER

@<TRIPOS>ATOM
      1  CMA       43.2860   85.1360   55.8120 C.3   600  SPN600      0.1745
      2  O1        44.0910   86.4160   55.9740 O.3   600  SPN600     -0.3486
      3  CM1       46.0440   87.8930   55.4310 C.3   600  SPN600      0.0376
      4  CM2       46.1850   85.4450   54.9320 C.3   600  SPN600      0.0376
      5  C1        45.2430   86.6540   55.0130 C.3   600  SPN600      0.1476
      6  C2        44.5840   86.8820   53.6580 C.2   600  SPN600      0.1969
      7  O2        45.2090   86.7260   52.6040 O.2   600  SPN600     -0.2889
      8  C3        43.0960   87.4530   53.4770 C.2   600  SPN600      0.0353
      9  C4        42.9300   88.3900   52.4400 C.2   600  SPN600     -0.0231
     10  C5        41.5320   88.9770   52.1790 C.3   600  SPN600      0.0265
     11  CM3       40.6720   89.4730   53.3720 C.3   600  SPN600      0.0050
     12  C6        41.5110   89.6880   50.9730 C.3   600  SPN600      0.0300
     13  C7        40.2050   90.3110   50.4680 C.2   600  SPN600     -0.0304
     14  C8        40.2600   90.8860   49.1930 C.2   600  SPN600     -0.0310
     15  C9        38.9840   91.4910   48.6110 C.3   600  SPN600      0.0217
     16  CM4       37.7700   91.8310   49.5050 C.3   600  SPN600      0.0047
     17  C10       39.1790   92.1020   47.3800 C.3   600  SPN600      0.0047
     18  C11       37.9790   92.7220   46.6460 C.3   600  SPN600      0.0047
     19  C12       38.3590   93.3060   45.4320 C.3   600  SPN600      0.0220
     20  C13       37.2950   93.9940   44.5900 C.2   600  SPN600     -0.0439
     21  CM5       35.8230   93.9720   45.0560 C.3   600  SPN600      0.0264
     22  C14       37.8160   94.7630   43.5480 C.2   600  SPN600     -0.0085
     23  C15       36.7810   95.5160   42.7100 C.2   600  SPN600     -0.0007
     24  C16       37.1990   96.3770   41.7050 C.2   600  SPN600     -0.0007
     25  C17       38.6620   96.5850   41.4110 C.2   600  SPN600     -0.0085
     26  C18       39.0830   97.3650   40.3460 C.2   600  SPN600     -0.0439
     27  CM6       38.2290   97.8780   39.1840 C.3   600  SPN600      0.0264
     28  C19       40.6160   97.4070   40.2590 C.3   600  SPN600      0.0220
     29  C20       41.1900   97.9970   39.1440 C.3   600  SPN600      0.0043
     30  C21       42.7140   97.9490   39.1660 C.3   600  SPN600      0.0003
     31  C22       43.4680   98.4710   38.1270 C.3   600  SPN600      0.0000
     32  CM7       42.9760   98.7990   36.7160 C.3   600  SPN600      0.0000
     33  C23       44.9730   98.6860   38.3780 C.3   600  SPN600      0.0000
     34  C24       45.3910  100.1110   38.0780 C.3   600  SPN600      0.0000
     35  C25       46.8610  100.3770   38.4270 C.3   600  SPN600      0.0000
     36  C26       47.3570  101.2740   39.3890 C.3   600  SPN600      0.0003
     37  CM8       46.5490  102.5250   39.7840 C.3   600  SPN600      0.0000
     38  C27       48.8800  101.4580   39.6080 C.3   600  SPN600      0.0046
     39  C28       49.5800  101.5340   38.2580 C.3   600  SPN600      0.0254
     40  C29       51.0790  101.8800   38.3620 C.2   600  SPN600     -0.0346
     41  C30       51.9950  101.7100   37.3080 C.2   600  SPN600     -0.0478
     42  CM9       51.5740  101.1660   35.9250 C.3   600  SPN600      0.0260
     43  CMB       53.4880  102.0780   37.4040 C.3   600  SPN600      0.0260
@<TRIPOS>BOND
     1    42    41    1
     2    32    31    1
     3    41    43    1
     4    41    40    2
     5    34    33    1
     6    34    35    1
     7    31    33    1
     8    31    30    1
     9    39    40    1
    10    39    38    1
    11    35    36    1
    12    29    30    1
    13    29    28    1
    14    27    26    1
    15    36    38    1
    16    36    37    1
    17    28    26    1
    18    26    25    2
    19    25    24    1
    20    24    23    2
    21    23    22    1
    22    22    20    2
    23    20    21    1
    24    20    19    1
    25    19    18    1
    26    18    17    1
    27    17    15    1
    28    15    14    1
    29    15    16    1
    30    14    13    2
    31    13    12    1
    32    12    10    1
    33    10     9    1
    34    10    11    1
    35     9     8    2
    36     7     6    2
    37     8     6    1
    38     6     5    1
    39     4     5    1
    40     5     3    1
    41     5     2    1
    42     1     2    1
