@<TRIPOS>MOLECULE
3dsy_U10_L_1.pdb
 48 48 0 0 0
SMALL
GASTEIGER

@<TRIPOS>ATOM
      1  C1        36.0930   75.8300   33.0610 C.2   504  U10504      0.0198
      2  C2        36.5050   74.6470   32.3250 C.2   504  U10504      0.2282
      3  C3        36.1920   74.5180   30.9250 C.2   504  U10504      0.2140
      4  C4        35.4440   75.4580   30.3180 C.2   504  U10504      0.2140
      5  C5        34.9640   76.6000   31.0690 C.2   504  U10504      0.2285
      6  C6        35.3590   76.7950   32.4530 C.2   504  U10504      0.0235
      7  C1M       36.5710   75.9490   34.5070 C.3   504  U10504      0.0343
      8  C3M       36.8450   73.1680   28.8640 C.3   504  U10504      0.2528
      9  C4M       35.9040   76.5490   28.1050 C.3   504  U10504      0.2528
     10  C7        35.0290   78.1460   33.1900 C.3   504  U10504      0.0548
     11  C8        33.9140   78.0800   34.1410 C.2   504  U10504     -0.0298
     12  C9        33.8030   78.5090   35.4650 C.2   504  U10504     -0.0475
     13  C10       34.9340   79.1950   36.2950 C.3   504  U10504      0.0260
     14  C11       32.4940   78.3400   36.2490 C.3   504  U10504      0.0264
     15  C12       32.6750   77.8840   37.6900 C.3   504  U10504      0.0297
     16  C13       31.4680   78.1510   38.4420 C.2   504  U10504     -0.0342
     17  C14       31.2840   78.7040   39.7110 C.2   504  U10504     -0.0478
     18  C15       32.4490   79.1340   40.6550 C.3   504  U10504      0.0260
     19  C16       29.8760   78.9580   40.3210 C.3   504  U10504      0.0263
     20  C17       29.2730   80.3200   39.9280 C.3   504  U10504      0.0297
     21  C18       28.3610   80.7260   40.9080 C.2   504  U10504     -0.0342
     22  C19       28.5670   81.3990   42.0980 C.2   504  U10504     -0.0478
     23  C20       29.9390   81.9700   42.5340 C.3   504  U10504      0.0260
     24  C21       27.4050   81.6840   43.1090 C.3   504  U10504      0.0263
     25  C22       27.4630   80.8260   44.4050 C.3   504  U10504      0.0297
     26  C23       26.1370   80.7620   45.1700 C.2   504  U10504     -0.0342
     27  C24       25.6600   79.8230   46.0940 C.2   504  U10504     -0.0478
     28  C25       26.4530   78.5660   46.5430 C.3   504  U10504      0.0260
     29  C26       24.2750   79.9300   46.7700 C.3   504  U10504      0.0263
     30  C27       23.6830   78.5630   47.1560 C.3   504  U10504      0.0297
     31  C28       22.2580   78.6590   47.7150 C.2   504  U10504     -0.0342
     32  C29       21.7530   79.2170   48.9030 C.2   504  U10504     -0.0478
     33  C30       22.6310   79.9380   49.9550 C.3   504  U10504      0.0260
     34  C31       20.2340   79.2070   49.3000 C.3   504  U10504      0.0263
     35  C32       19.5180   80.5210   48.9240 C.3   504  U10504      0.0297
     36  C33       18.5710   81.0520   49.9820 C.2   504  U10504     -0.0342
     37  C34       18.4750   82.3230   50.5780 C.2   504  U10504     -0.0478
     38  C35       19.4640   83.4920   50.2920 C.3   504  U10504      0.0260
     39  C36       17.3660   82.6680   51.6420 C.3   504  U10504      0.0263
     40  C37       17.2280   84.1670   51.9670 C.3   504  U10504      0.0297
     41  C38       16.4070   84.4310   53.2200 C.2   504  U10504     -0.0342
     42  C39       15.9590   85.6400   53.7730 C.2   504  U10504     -0.0478
     43  C40       16.2040   87.0270   53.1480 C.3   504  U10504      0.0260
     44  C41       15.1510   85.7540   55.0670 C.3   504  U10504      0.0260
     45  O2        37.1540   73.7810   32.8650 O.2   504  U10504     -0.2836
     46  O3        36.9970   73.5020   30.2230 O.2   504  U10504     -0.4652
     47  O4        35.3470   75.5400   28.8620 O.2   504  U10504     -0.4652
     48  O5        34.2020   77.4130   30.5320 O.2   504  U10504     -0.2835
@<TRIPOS>BOND
     1     9    47    1
     2    47     4    1
     3     8    46    1
     4    46     3    1
     5     4     3    2
     6     4     5    1
     7    48     5    2
     8     3     2    1
     9     5     6    1
    10     2    45    2
    11     2     1    1
    12     6     1    2
    13     6    10    1
    14     1     7    1
    15    10    11    1
    16    11    12    2
    17    12    14    1
    18    12    13    1
    19    14    15    1
    20    15    16    1
    21    16    17    2
    22    17    19    1
    23    17    18    1
    24    20    19    1
    25    20    21    1
    26    21    22    2
    27    22    23    1
    28    22    24    1
    29    24    25    1
    30    25    26    1
    31    26    27    2
    32    27    28    1
    33    27    29    1
    34    29    30    1
    35    30    31    1
    36    31    32    2
    37    32    34    1
    38    32    33    1
    39    35    34    1
    40    35    36    1
    41    36    37    2
    42    38    37    1
    43    37    39    1
    44    39    40    1
    45    40    41    1
    46    43    42    1
    47    41    42    2
    48    42    44    1
