@<TRIPOS>MOLECULE
3dsz_LIZ_A_1.pdb
 49 50 0 0 0
SMALL
GASTEIGER

@<TRIPOS>ATOM
      1  N1        -1.1940   57.3830   68.6820 N.3   187  LIZ187     -0.2533
      2  N3         0.5960   61.6400   67.4580 N.3   187  LIZ187     -0.2537
      3  C4        -0.4540   57.1230   69.9240 C.3   187  LIZ187      0.1882
      4  C5        -1.5890   58.5140   65.2810 C.2   187  LIZ187      0.3809
      5  C6        -0.0880   58.7930   65.3010 C.3   187  LIZ187      0.1878
      6  C7         0.1460   62.2210   69.7970 C.2   187  LIZ187      0.3809
      7  C8         1.2260   62.0240   68.7310 C.3   187  LIZ187      0.1882
      8  C10       -0.0290   62.8220   66.8510 C.3   187  LIZ187      0.1882
      9  C13        1.7460   59.5670   66.6930 C.3   187  LIZ187      0.0726
     10  C15        2.6860   59.0460   65.6040 C.3   187  LIZ187      0.0173
     11  C17        3.8840   61.2720   65.5710 C.3   187  LIZ187      0.0015
     12  C20       -0.5750   54.3430   65.4220 C.ar  187  LIZ187     -0.0029
     13  C21       -0.0840   53.6380   64.3330 C.ar  187  LIZ187      0.0162
     14  C22        1.1600   52.9980   64.4100 C.ar  187  LIZ187      0.0724
     15  C24        1.3760   53.7840   66.6900 C.ar  187  LIZ187     -0.0029
     16  C26        1.3550   52.1310   62.1570 C.2   187  LIZ187      0.1746
     17  C28        1.9310   51.0710   59.9800 C.3   187  LIZ187      0.1689
     18  O7        -1.0140   61.8640   69.5030 O.co2 187  LIZ187     -0.2441
     19  O8         0.5010   62.7090   70.8910 O.co2 187  LIZ187     -0.2441
     20  C9        -1.0250   62.3860   65.7730 C.2   187  LIZ187      0.3809
     21  O10       -1.2070   63.1670   64.8160 O.co2 187  LIZ187     -0.2441
     22  O9        -1.5870   61.2820   65.9370 O.co2 187  LIZ187     -0.2441
     23  C14        1.5610   61.0710   66.5060 C.3   187  LIZ187      0.0731
     24  C18        2.9110   61.7820   66.6330 C.3   187  LIZ187      0.0174
     25  C16        4.0410   59.7530   65.6680 C.3   187  LIZ187      0.0015
     26  N2         0.4690   58.8310   66.6630 N.3   187  LIZ187     -0.2620
     27  O6        -2.0710   58.0300   64.2340 O.co2 187  LIZ187     -0.2441
     28  O5        -2.2520   58.8010   66.3030 O.co2 187  LIZ187     -0.2441
     29  C12        0.7200   57.4570   67.1340 C.3   187  LIZ187      0.0890
     30  C11       -0.5720   56.7350   67.5150 C.3   187  LIZ187      0.0788
     31  C3         0.5480   58.2510   70.1940 C.2   187  LIZ187      0.3809
     32  O4         1.4440   58.0320   71.0360 O.co2 187  LIZ187     -0.2441
     33  O3         0.3960   59.3100   69.5490 O.co2 187  LIZ187     -0.2441
     34  C2        -2.5900   56.9380   68.8260 C.3   187  LIZ187      0.1882
     35  C1        -3.3910   58.0080   69.5690 C.2   187  LIZ187      0.3809
     36  O2        -4.5020   57.6650   70.0300 O.co2 187  LIZ187     -0.2441
     37  O1        -2.8800   59.1450   69.6640 O.co2 187  LIZ187     -0.2441
     38  C25       -0.3230   55.2490   67.8090 C.3   187  LIZ187      0.0437
     39  C19        0.1580   54.4360   66.6080 C.ar  187  LIZ187     -0.0207
     40  C23        1.8650   53.0640   65.6010 C.ar  187  LIZ187      0.0162
     41  N4         1.7400   52.3220   63.4250 N.am  187  LIZ187     -0.1906
     42  S1         0.0470   53.0500   61.4440 S.2   187  LIZ187     -0.0152
     43  N5         2.1410   51.3630   61.4050 N.am  187  LIZ187     -0.2120
     44  C29        2.2350   52.3110   59.1360 C.3   187  LIZ187      0.2070
     45  O11        3.6250   52.6330   59.2170 O.3   187  LIZ187     -0.2184
     46  C30        0.4990   50.6180   59.6960 C.3   187  LIZ187      0.2070
     47  O12        0.4750   49.2140   59.4300 O.3   187  LIZ187     -0.2184
     48  C27        2.8920   49.9510   59.5820 C.3   187  LIZ187      0.2070
     49  O13        4.2360   50.3130   59.9140 O.3   187  LIZ187     -0.2184
@<TRIPOS>BOND
     1    44    45    1
     2    44    17    1
     3    47    46    1
     4    48    49    1
     5    48    17    1
     6    46    17    1
     7    17    43    1
     8    43    16    1
     9    42    16    2
    10    16    41    1
    11    41    14    1
    12    27     4   ar
    13    13    14   ar
    14    13    12   ar
    15    14    40   ar
    16    21    20   ar
    17     4     5    1
    18     4    28   ar
    19     5    26    1
    20    12    39   ar
    21    11    25    1
    22    11    24    1
    23    40    15   ar
    24    10    25    1
    25    10     9    1
    26    20    22   ar
    27    20     8    1
    28    23    24    1
    29    23     9    1
    30    23     2    1
    31    39    15   ar
    32    39    38    1
    33    26     9    1
    34    26    29    1
    35     8     2    1
    36    29    30    1
    37     2     7    1
    38    30    38    1
    39    30     1    1
    40     1    34    1
    41     1     3    1
    42     7     6    1
    43    34    35    1
    44    18     6   ar
    45    33    31   ar
    46    35    37   ar
    47    35    36   ar
    48     6    19   ar
    49     3    31    1
    50    31    32   ar
