@<TRIPOS>MOLECULE
3dt0_16U_H_1.pdb
 23 24 0 0 0
SMALL
GASTEIGER

@<TRIPOS>ATOM
      1  C15       17.5380  -15.0070   23.2390 C.3   901  16U901      0.0853
      2  C10       18.2490  -14.7550   24.6030 C.3   901  16U901      0.0096
      3  C11       19.6670  -14.1270   24.4600 C.3   901  16U901      0.0005
      4  C12       20.7230  -15.1430   23.9490 C.3   901  16U901      0.0000
      5  C18       20.1470  -13.4510   25.7670 C.3   901  16U901      0.0000
      6  C14       17.2560  -13.6840   22.5360 C.2   901  16U901      0.2259
      7  O32       16.1810  -13.1700   22.8210 O.2   901  16U901     -0.2749
      8  N1        18.0930  -13.0830   21.6440 N.am  901  16U901     -0.2730
      9  C1        17.8230  -11.7570   21.1220 C.3   901  16U901      0.1535
     10  C7        16.4460  -11.5460   20.5500 C.2   901  16U901      0.2598
     11  O22       15.8390  -12.4690   20.0200 O.2   901  16U901     -0.2715
     12  C2        18.9180  -11.6050   20.0490 C.3   901  16U901      0.0310
     13  C3        19.5730  -12.9840   19.8700 C.3   901  16U901      0.0237
     14  C4        19.3380  -13.7200   21.2060 C.3   901  16U901      0.0939
     15  N23       15.8690  -10.3190   20.6180 N.am  901  16U901     -0.1992
     16  C24       14.4870  -10.1690   20.1420 C.3   901  16U901      0.1415
     17  C25       13.5050  -10.1750   21.3250 C.ar  901  16U901      0.0003
     18  C26       12.7110  -11.3120   21.5180 C.ar  901  16U901     -0.0025
     19  C27       11.8050  -11.3700   22.5750 C.ar  901  16U901      0.0006
     20  C28       11.6880  -10.2870   23.4490 C.ar  901  16U901      0.0114
     21  C29       12.4720   -9.1430   23.2720 C.ar  901  16U901      0.0574
     22  C30       13.3790   -9.0920   22.2090 C.ar  901  16U901      0.0088
     23 CL21       12.2900   -7.8030   24.3970 Cl    901  16U901     -0.0823
@<TRIPOS>BOND
     1    13    12    1
     2    13    14    1
     3    11    10    2
     4    12     9    1
     5    16    15    1
     6    16    17    1
     7    10    15   am
     8    10     9    1
     9     9     8    1
    10    14     8    1
    11    17    18   ar
    12    17    22   ar
    13    18    19   ar
    14     8     6   am
    15    22    21   ar
    16     6     7    2
    17     6     1    1
    18    19    20   ar
    19     1     2    1
    20    21    20   ar
    21    21    23    1
    22     4     3    1
    23     3     2    1
    24     3     5    1
