@<TRIPOS>MOLECULE
3dt2_GTP_A_1.pdb
 32 34 0 0 0
SMALL
GASTEIGER

@<TRIPOS>ATOM
      1  PG         2.9710   -1.7290   22.3740 P.3   900  GTP900      0.5373
      2  O1G        3.0290   -0.6190   21.3690 O.2   900  GTP900     -0.2221
      3  O2G        3.2620   -3.0590   21.7580 O.3   900  GTP900     -0.1143
      4  O3G        3.7440   -1.4220   23.6390 O.3   900  GTP900     -0.1143
      5  O3B        1.3810   -1.9170   22.7090 O.3   900  GTP900     -0.2258
      6  PB         0.3060   -0.9680   23.4140 P.3   900  GTP900      0.2277
      7  O1B        0.4040    0.4630   22.9180 O.2   900  GTP900     -0.5168
      8  O2B        0.2800   -1.1590   24.9020 O.3   900  GTP900     -0.4368
      9  O3A       -1.0850   -1.5850   22.8590 O.3   900  GTP900     -0.2700
     10  PA        -2.1810   -0.8790   21.8980 P.3   900  GTP900      0.2189
     11  O1A       -1.5860   -0.6900   20.5420 O.2   900  GTP900     -0.5170
     12  O2A       -2.8050    0.3190   22.5630 O.3   900  GTP900     -0.4371
     13  O5'       -3.2970   -2.0360   21.8890 O.3   900  GTP900     -0.3112
     14  C5'       -2.9820   -3.3250   21.3840 C.3   900  GTP900      0.1813
     15  C4'       -4.2620   -4.0380   20.9470 C.3   900  GTP900      0.1799
     16  O4'       -5.1700   -4.0370   22.0390 O.3   900  GTP900     -0.3326
     17  C3'       -4.9640   -3.3540   19.7700 C.3   900  GTP900      0.2158
     18  O3'       -5.4660   -4.3410   18.8980 O.3   900  GTP900     -0.2175
     19  C2'       -6.1000   -2.5850   20.4140 C.3   900  GTP900      0.2310
     20  O2'       -7.2470   -2.4220   19.5730 O.3   900  GTP900     -0.2158
     21  C1'       -6.3840   -3.4260   21.6800 C.3   900  GTP900      0.2293
     22  N9        -6.9270   -2.6010   22.7560 N.pl3 900  GTP900     -0.2354
     23  C8        -6.3840   -1.4440   23.2520 C.3   900  GTP900      0.2246
     24  N7        -7.1920   -1.0140   24.2400 N.2   900  GTP900     -0.2322
     25  C5        -8.2240   -1.8820   24.4010 C.2   900  GTP900      0.2182
     26  C6        -9.3310   -1.8840   25.2520 C.1   900  GTP900      0.2372
     27  O6        -9.5990   -0.9870   26.0670 O.2   900  GTP900     -0.2069
     28  N1       -10.1890   -2.9540   25.1390 N.2   900  GTP900     -0.2485
     29  C2        -9.9810   -3.9540   24.1980 C.1   900  GTP900      0.2531
     30  N2       -10.8440   -4.9600   24.1260 N.pl3 900  GTP900     -0.0226
     31  N3        -8.9020   -3.9610   23.3330 N.2   900  GTP900     -0.3074
     32  C4        -8.0470   -2.8960   23.4510 C.2   900  GTP900      0.2300
@<TRIPOS>BOND
     1    18    17    1
     2    20    19    1
     3    17    19    1
     4    17    15    1
     5    19    21    1
     6    11    10    2
     7    15    14    1
     8    15    16    1
     9     2     1    2
    10    14    13    1
    11    21    16    1
    12    21    22    1
    13     3     1    1
    14    13    10    1
    15    10    12    1
    16    10     9    1
    17     1     5    1
    18     1     4    1
    19     5     6    1
    20    22    23    1
    21    22    32    1
    22     9     6    1
    23     7     6    2
    24    23    24    1
    25    31    32    2
    26    31    29    2
    27     6     8    1
    28    32    25    1
    29    30    29    1
    30    29    28    2
    31    24    25    2
    32    25    26    1
    33    28    26    2
    34    26    27    2
