@<TRIPOS>MOLECULE
3dt3_369_A_1.pdb
 27 30 0 0 0
SMALL
GASTEIGER

@<TRIPOS>ATOM
      1  C10       42.2490   -1.7720   15.9690 C.ar    1  3691        0.1448
      2  C12       42.8450   -2.3210   18.6640 C.ar    1  3691        0.0408
      3  C13       43.1050   -2.7390   19.9510 C.ar    1  3691        0.0452
      4  C15       44.6410   -4.3730   19.1330 C.ar    1  3691        0.0452
      5  C19       41.9060   -4.3200   14.3880 C.ar    1  3691        0.0003
      6  C21       41.1000   -6.5160   14.7350 C.ar    1  3691        0.0420
      7  C22       40.2310   -6.0090   15.6710 C.ar    1  3691        0.1957
      8  C23       40.1810   -4.6660   15.9810 C.ar    1  3691        0.0421
      9  C1        38.7360   -2.1540   14.7180 C.3     1  3691        0.0311
     10  C2        40.0170   -1.5690   15.2070 C.ar    1  3691       -0.0189
     11  C3        40.1120   -0.2050   15.3360 C.ar    1  3691       -0.0040
     12  C4        41.2820    0.3860   15.7610 C.ar    1  3691        0.0058
     13  C5        41.3580    1.7550   15.8690 C.ar    1  3691        0.0421
     14  C6        42.5270    2.3370   16.3020 C.ar    1  3691        0.1957
     15  O1        42.5910    3.7130   16.4050 O.3     1  3691       -0.2866
     16  C7        43.6210    1.5750   16.6290 C.ar    1  3691        0.0421
     17  C8        43.5350    0.2060   16.5170 C.ar    1  3691        0.0063
     18  C9        42.3680   -0.3970   16.0840 C.ar    1  3691        0.0347
     19  O2        43.3080   -2.5980   16.2830 O.3     1  3691       -0.4535
     20  C11       43.4880   -2.9420   17.6130 C.ar    1  3691        0.1455
     21  C14       44.0010   -3.7570   20.1800 C.ar    1  3691        0.1959
     22  O3        44.2560   -4.1630   21.4800 O.3     1  3691       -0.2866
     23  C16       44.3800   -3.9610   17.8490 C.ar    1  3691        0.0408
     24  C17       41.0910   -2.3740   15.5280 C.ar    1  3691        0.0307
     25  C18       41.0390   -3.8060   15.3290 C.ar    1  3691        0.0058
     26  C20       41.9490   -5.6590   14.0860 C.ar    1  3691        0.0033
     27  O4        39.4030   -6.9130   16.2910 O.3     1  3691       -0.2866
@<TRIPOS>BOND
     1    26     5   ar
     2    26     6   ar
     3     5    25   ar
     4     9    10    1
     5     6     7   ar
     6    10    11   ar
     7    10    24   ar
     8    25    24    1
     9    25     8   ar
    10    11    12   ar
    11    24     1   ar
    12     7     8   ar
    13     7    27    1
    14    12    13   ar
    15    12    18   ar
    16    13    14   ar
    17     1    18   ar
    18     1    19    1
    19    18    17   ar
    20    19    20    1
    21    14    15    1
    22    14    16   ar
    23    17    16   ar
    24    20    23   ar
    25    20     2   ar
    26    23     4   ar
    27     2     3   ar
    28     4    21   ar
    29     3    21   ar
    30    21    22    1
