@<TRIPOS>MOLECULE
3dt4_GTP_A_1.pdb
 32 34 0 0 0
SMALL
GASTEIGER

@<TRIPOS>ATOM
      1  PG        12.6720   -1.9260   45.0310 P.3   900  GTP900      0.5373
      2  O1G       12.6410   -2.8860   43.8970 O.2   900  GTP900     -0.2221
      3  O2G       13.3720   -0.6180   44.7490 O.3   900  GTP900     -0.1143
      4  O3G       12.9370   -2.5020   46.3950 O.3   900  GTP900     -0.1143
      5  O3B       11.0930   -1.4830   45.2390 O.3   900  GTP900     -0.2258
      6  PB         9.9430   -0.8270   44.3290 P.3   900  GTP900      0.2277
      7  O1B        9.9780    0.6520   44.5290 O.3   900  GTP900     -0.4368
      8  O2B       10.0330   -1.2670   42.8890 O.2   900  GTP900     -0.5168
      9  O3A        8.5510   -1.3350   44.9510 O.3   900  GTP900     -0.2700
     10  PA         7.4260   -2.2740   44.2940 P.3   900  GTP900      0.2189
     11  O1A        7.9810   -3.6410   44.1720 O.3   900  GTP900     -0.4371
     12  O2A        6.8010   -1.6320   43.1210 O.2   900  GTP900     -0.5170
     13  O5'        6.3640   -2.2170   45.4500 O.3   900  GTP900     -0.3112
     14  C5'        6.6510   -2.7080   46.7420 C.3   900  GTP900      0.1813
     15  C4'        5.3490   -3.1550   47.4140 C.3   900  GTP900      0.1799
     16  O4'        4.4570   -2.0400   47.4380 O.3   900  GTP900     -0.3326
     17  C3'        4.6560   -4.3280   46.7260 C.3   900  GTP900      0.2158
     18  O3'        4.1590   -5.1780   47.7850 O.3   900  GTP900     -0.2175
     19  C2'        3.5340   -3.6270   45.9680 C.3   900  GTP900      0.2310
     20  O2'        2.3790   -4.4700   45.8490 O.3   900  GTP900     -0.2158
     21  C1'        3.2210   -2.4230   46.8790 C.3   900  GTP900      0.2293
     22  N9         2.7220   -1.2910   46.0740 N.pl3 900  GTP900     -0.2354
     23  C8         3.2140   -0.8770   44.8550 C.3   900  GTP900      0.2246
     24  N7         2.4330    0.1290   44.4160 N.2   900  GTP900     -0.2322
     25  C5         1.4190    0.3380   45.3170 C.2   900  GTP900      0.2182
     26  C6         0.3130    1.1940   45.3550 C.1   900  GTP900      0.2372
     27  O6         0.0450    2.0230   44.4600 O.2   900  GTP900     -0.2069
     28  N1        -0.5220    1.1180   46.4390 N.2   900  GTP900     -0.2485
     29  C2        -0.2990    0.2050   47.4130 C.1   900  GTP900      0.2531
     30  N2        -1.1600    0.1840   48.4540 N.pl3 900  GTP900     -0.0226
     31  N3         0.7410   -0.6530   47.4300 N.2   900  GTP900     -0.3074
     32  C4         1.6060   -0.5770   46.3600 C.2   900  GTP900      0.2300
@<TRIPOS>BOND
     1     8     6    2
     2    12    10    2
     3     2     1    2
     4    11    10    1
     5    10     9    1
     6    10    13    1
     7     6     7    1
     8     6     9    1
     9     6     5    1
    10    24    23    1
    11    24    25    2
    12    27    26    2
    13     3     1    1
    14    23    22    1
    15     1     5    1
    16     1     4    1
    17    25    26    1
    18    25    32    1
    19    26    28    2
    20    13    14    1
    21    20    19    1
    22    19    17    1
    23    19    21    1
    24    22    32    1
    25    22    21    1
    26    32    31    2
    27    28    29    2
    28    17    15    1
    29    17    18    1
    30    14    15    1
    31    21    16    1
    32    29    31    2
    33    29    30    1
    34    15    16    1
