@<TRIPOS>MOLECULE
3dt7_GTP_A_1.pdb
 32 34 0 0 0
SMALL
GASTEIGER

@<TRIPOS>ATOM
      1  PG        21.0330    1.9240    7.5690 P.3   800  GTP800      0.5373
      2  O1G       21.7810    0.6660    7.2610 O.3   800  GTP800     -0.1143
      3  O2G       20.2830    2.4500    6.4490 O.2   800  GTP800     -0.2221
      4  O3G       21.7950    2.9890    8.3690 O.3   800  GTP800     -0.1143
      5  O3B       19.7050    1.5150    8.4940 O.3   800  GTP800     -0.2258
      6  PB        19.5850    0.9070    9.9560 P.3   800  GTP800      0.2277
      7  O1B       19.4790   -0.5950    9.8240 O.2   800  GTP800     -0.5168
      8  O2B       20.6010    1.4180   10.9150 O.3   800  GTP800     -0.4368
      9  O3A       18.1670    1.3900   10.4660 O.3   800  GTP800     -0.2700
     10  PA        17.8260    2.3040   11.7490 P.3   800  GTP800      0.2189
     11  O1A       18.2060    1.6910   13.0310 O.3   800  GTP800     -0.4371
     12  O2A       18.2430    3.6980   11.4250 O.2   800  GTP800     -0.5170
     13  O5'       16.2000    2.1930   11.7050 O.3   800  GTP800     -0.3112
     14  C5'       15.5470    2.5480   10.5380 C.3   800  GTP800      0.1813
     15  C4'       14.1830    3.1180   10.9230 C.3   800  GTP800      0.1799
     16  O4'       13.4600    2.0720   11.5010 O.3   800  GTP800     -0.3326
     17  C3'       14.1050    4.3350   11.8560 C.3   800  GTP800      0.2158
     18  O3'       13.0190    5.2020   11.3790 O.3   800  GTP800     -0.2175
     19  C2'       13.8020    3.7200   13.2060 C.3   800  GTP800      0.2310
     20  O2'       13.1020    4.6310   14.1060 O.3   800  GTP800     -0.2158
     21  C1'       13.0150    2.4360   12.8090 C.3   800  GTP800      0.2293
     22  N9        13.2210    1.3440   13.7930 N.pl3 800  GTP800     -0.2354
     23  C8        14.3910    0.8870   14.2830 C.3   800  GTP800      0.2246
     24  N7        14.1780   -0.0890   15.1730 N.2   800  GTP800     -0.2322
     25  C5        12.8480   -0.3170   15.2170 C.2   800  GTP800      0.2182
     26  C6        12.0190   -1.1360   15.9760 C.1   800  GTP800      0.2372
     27  O6        12.4160   -1.9210   16.8740 O.2   800  GTP800     -0.2069
     28  N1        10.6800   -1.0820   15.8130 N.2   800  GTP800     -0.2485
     29  C2        10.1490   -0.2030   14.8880 C.1   800  GTP800      0.2531
     30  N2         8.8010   -0.0950   14.7140 N.pl3 800  GTP800     -0.0226
     31  N3        10.9230    0.6450   14.1790 N.2   800  GTP800     -0.3074
     32  C4        12.2760    0.6020   14.3340 C.2   800  GTP800      0.2300
@<TRIPOS>BOND
     1     3     1    2
     2     2     1    1
     3     1     4    1
     4     1     5    1
     5     5     6    1
     6     7     6    2
     7     6     9    1
     8     6     8    1
     9     9    10    1
    10    14    15    1
    11    14    13    1
    12    15    16    1
    13    15    17    1
    14    18    17    1
    15    12    10    2
    16    16    21    1
    17    13    10    1
    18    10    11    1
    19    17    19    1
    20    21    19    1
    21    21    22    1
    22    19    20    1
    23    22    23    1
    24    22    32    1
    25    31    32    2
    26    31    29    2
    27    23    24    1
    28    32    25    1
    29    30    29    1
    30    29    28    2
    31    24    25    2
    32    25    26    1
    33    28    26    2
    34    26    27    2
