@<TRIPOS>MOLECULE
3dt7_SPV_A_1.pdb
 10 9 0 0 0
SMALL
GASTEIGER

@<TRIPOS>ATOM
      1  C1        22.2770    2.0400    3.8970 C.2   900  SPV900      0.4235
      2  O1        22.4130    0.8380    4.3330 O.co2 900  SPV900     -0.2373
      3  O2'       21.5560    2.4030    2.8840 O.co2 900  SPV900     -0.2373
      4  C2        23.0300    3.0530    4.6170 C.2   900  SPV900      0.2719
      5  C3        23.0790    4.5010    4.0900 C.3   900  SPV900      0.1810
      6  O2        23.6940    2.6950    5.5940 O.2   900  SPV900     -0.2825
      7  S         24.1890    4.8080    2.7950 S.3   900  SPV900     -0.1882
      8  O1S       23.7960    6.0620    2.1650 O.3   900  SPV900     -0.3071
      9  O2S       24.1710    3.6750    1.8960 O.3   900  SPV900     -0.3071
     10  O3S       25.4830    4.9890    3.4720 O.3   900  SPV900     -0.3071
@<TRIPOS>BOND
     1     9     7    1
     2     8     7    1
     3     7    10    1
     4     7     5    1
     5     3     1   ar
     6     1     2   ar
     7     1     4    1
     8     5     4    1
     9     4     6    2
