@<TRIPOS>MOLECULE
3dt9_GD7_A_1.pdb
 10 9 0 0 0
SMALL
GASTEIGER

@<TRIPOS>ATOM
      1  C1        65.2200   24.8330  -22.9050 C.3   347  GD7347      0.0024
      2  C2        63.7420   26.1930  -24.3370 C.3   347  GD7347      0.0024
      3  C3        64.6800   24.0120  -25.1880 C.3   347  GD7347      0.0024
      4  C4        62.1930   24.8050  -22.3040 C.3   347  GD7347      0.0325
      5  C5        62.8940   24.0050  -23.4250 C.3   347  GD7347      0.1212
      6  C6        64.1110   24.7340  -23.9630 C.3   347  GD7347      0.0254
      7  C7        61.1460   21.2170  -21.8810 C.3   347  GD7347      0.0904
      8  OH        63.2420   22.6490  -23.0400 O.3   347  GD7347     -0.3199
      9  P1        62.1100   21.5480  -23.3740 P.3   347  GD7347      0.2205
     10  O11       61.2040   21.9970  -24.5790 O.3   347  GD7347     -0.1774
@<TRIPOS>BOND
     1     3     6    1
     2    10     9    1
     3     2     6    1
     4     6     5    1
     5     6     1    1
     6     5     8    1
     7     5     4    1
     8     9     8    1
     9     9     7    1
