@<TRIPOS>MOLECULE
3dta_U10_L_1.pdb
 48 48 0 0 0
SMALL
GASTEIGER

@<TRIPOS>ATOM
      1  C1        36.0890   75.5540   33.0050 C.2   504  U10504      0.0198
      2  C2        36.4980   74.3690   32.2680 C.2   504  U10504      0.2282
      3  C3        36.1820   74.2420   30.8690 C.2   504  U10504      0.2140
      4  C4        35.4360   75.1830   30.2630 C.2   504  U10504      0.2140
      5  C5        34.9590   76.3260   31.0150 C.2   504  U10504      0.2285
      6  C6        35.3560   76.5200   32.3980 C.2   504  U10504      0.0235
      7  C1M       36.5700   75.6720   34.4500 C.3   504  U10504      0.0343
      8  C3M       36.8290   72.8900   28.8060 C.3   504  U10504      0.2528
      9  C4M       35.8950   76.2730   28.0490 C.3   504  U10504      0.2528
     10  C7        35.0300   77.8720   33.1350 C.3   504  U10504      0.0548
     11  C8        33.9170   77.8080   34.0890 C.2   504  U10504     -0.0298
     12  C9        33.8080   78.2370   35.4130 C.2   504  U10504     -0.0475
     13  C10       34.9420   78.9210   36.2410 C.3   504  U10504      0.0260
     14  C11       32.5010   78.0710   36.1980 C.3   504  U10504      0.0264
     15  C12       32.6820   77.6140   37.6390 C.3   504  U10504      0.0297
     16  C13       31.4770   77.8840   38.3930 C.2   504  U10504     -0.0342
     17  C14       31.2960   78.4380   39.6620 C.2   504  U10504     -0.0478
     18  C15       32.4640   78.8650   40.6050 C.3   504  U10504      0.0260
     19  C16       29.8890   78.6940   40.2740 C.3   504  U10504      0.0263
     20  C17       29.2890   80.0580   39.8820 C.3   504  U10504      0.0297
     21  C18       28.3800   80.4650   40.8630 C.2   504  U10504     -0.0342
     22  C19       28.5880   81.1390   42.0530 C.2   504  U10504     -0.0478
     23  C20       29.9620   81.7060   42.4880 C.3   504  U10504      0.0260
     24  C21       27.4290   81.4260   43.0660 C.3   504  U10504      0.0263
     25  C22       27.4870   80.5680   44.3610 C.3   504  U10504      0.0297
     26  C23       26.1610   80.5070   45.1290 C.2   504  U10504     -0.0342
     27  C24       25.6840   79.5690   46.0530 C.2   504  U10504     -0.0478
     28  C25       26.4750   78.3090   46.5010 C.3   504  U10504      0.0260
     29  C26       24.3000   79.6780   46.7310 C.3   504  U10504      0.0263
     30  C27       23.7050   78.3130   47.1180 C.3   504  U10504      0.0297
     31  C28       22.2820   78.4110   47.6790 C.2   504  U10504     -0.0342
     32  C29       21.7790   78.9710   48.8680 C.2   504  U10504     -0.0478
     33  C30       22.6610   79.6890   49.9180 C.3   504  U10504      0.0260
     34  C31       20.2610   78.9640   49.2660 C.3   504  U10504      0.0263
     35  C32       19.5470   80.2790   48.8920 C.3   504  U10504      0.0297
     36  C33       18.6030   80.8130   49.9510 C.2   504  U10504     -0.0342
     37  C34       18.5110   82.0840   50.5470 C.2   504  U10504     -0.0478
     38  C35       19.5010   83.2500   50.2600 C.3   504  U10504      0.0260
     39  C36       17.4030   82.4310   51.6130 C.3   504  U10504      0.0263
     40  C37       17.2690   83.9300   51.9380 C.3   504  U10504      0.0297
     41  C38       16.4510   84.1960   53.1920 C.2   504  U10504     -0.0342
     42  C39       16.0060   85.4060   53.7460 C.2   504  U10504     -0.0478
     43  C40       16.2530   86.7920   53.1210 C.3   504  U10504      0.0260
     44  C41       15.2000   85.5220   55.0410 C.3   504  U10504      0.0260
     45  O2        37.1460   73.5020   32.8080 O.2   504  U10504     -0.2836
     46  O3        36.9840   73.2230   30.1650 O.2   504  U10504     -0.4652
     47  O4        35.3370   75.2650   28.8070 O.2   504  U10504     -0.4652
     48  O5        34.1980   77.1410   30.4790 O.2   504  U10504     -0.2835
@<TRIPOS>BOND
     1     9    47    1
     2     8    46    1
     3    47     4    1
     4    46     3    1
     5     4     3    2
     6     4     5    1
     7    48     5    2
     8     3     2    1
     9     5     6    1
    10     2    45    2
    11     2     1    1
    12     6     1    2
    13     6    10    1
    14     1     7    1
    15    10    11    1
    16    11    12    2
    17    12    14    1
    18    12    13    1
    19    14    15    1
    20    15    16    1
    21    16    17    2
    22    17    19    1
    23    17    18    1
    24    20    19    1
    25    20    21    1
    26    21    22    2
    27    22    23    1
    28    22    24    1
    29    24    25    1
    30    25    26    1
    31    26    27    2
    32    27    28    1
    33    27    29    1
    34    29    30    1
    35    30    31    1
    36    31    32    2
    37    32    34    1
    38    32    33    1
    39    35    34    1
    40    35    36    1
    41    36    37    2
    42    38    37    1
    43    37    39    1
    44    39    40    1
    45    40    41    1
    46    43    42    1
    47    41    42    2
    48    42    44    1
