@<TRIPOS>MOLECULE
3dta_SPN_M_1.pdb
 43 42 0 0 0
SMALL
GASTEIGER

@<TRIPOS>ATOM
      1  CMA       43.3360   84.8420   55.7470 C.3   600  SPN600      0.1745
      2  O1        44.1430   86.1200   55.9070 O.3   600  SPN600     -0.3486
      3  CM1       46.0990   87.5930   55.3620 C.3   600  SPN600      0.0376
      4  CM2       46.2340   85.1440   54.8630 C.3   600  SPN600      0.0376
      5  C1        45.2950   86.3550   54.9450 C.3   600  SPN600      0.1476
      6  C2        44.6340   86.5850   53.5910 C.2   600  SPN600      0.1969
      7  O2        45.2570   86.4270   52.5360 O.2   600  SPN600     -0.2889
      8  C3        43.1470   87.1590   53.4120 C.2   600  SPN600      0.0353
      9  C4        42.9820   88.0970   52.3750 C.2   600  SPN600     -0.0231
     10  C5        41.5840   88.6870   52.1170 C.3   600  SPN600      0.0265
     11  CM3       40.7280   89.1850   53.3100 C.3   600  SPN600      0.0050
     12  C6        41.5630   89.3980   50.9100 C.3   600  SPN600      0.0300
     13  C7        40.2580   90.0240   50.4070 C.2   600  SPN600     -0.0304
     14  C8        40.3120   90.5990   49.1330 C.2   600  SPN600     -0.0310
     15  C9        39.0370   91.2070   48.5520 C.3   600  SPN600      0.0217
     16  CM4       37.8250   91.5490   49.4480 C.3   600  SPN600      0.0047
     17  C10       39.2310   91.8180   47.3210 C.3   600  SPN600      0.0047
     18  C11       38.0320   92.4400   46.5890 C.3   600  SPN600      0.0047
     19  C12       38.4110   93.0240   45.3740 C.3   600  SPN600      0.0220
     20  C13       37.3470   93.7140   44.5330 C.2   600  SPN600     -0.0439
     21  CM5       35.8760   93.6950   45.0010 C.3   600  SPN600      0.0264
     22  C14       37.8690   94.4820   43.4910 C.2   600  SPN600     -0.0085
     23  C15       36.8340   95.2370   42.6550 C.2   600  SPN600     -0.0007
     24  C16       37.2530   96.0980   41.6490 C.2   600  SPN600     -0.0007
     25  C17       38.7160   96.3020   41.3520 C.2   600  SPN600     -0.0085
     26  C18       39.1370   97.0820   40.2880 C.2   600  SPN600     -0.0439
     27  CM6       38.2820   97.5960   39.1260 C.3   600  SPN600      0.0264
     28  C19       40.6700   97.1200   40.1980 C.3   600  SPN600      0.0220
     29  C20       41.2440   97.7090   39.0820 C.3   600  SPN600      0.0043
     30  C21       42.7680   97.6580   39.1020 C.3   600  SPN600      0.0003
     31  C22       43.5210   98.1780   38.0620 C.3   600  SPN600      0.0000
     32  CM7       43.0280   98.5070   36.6520 C.3   600  SPN600      0.0000
     33  C23       45.0270   98.3890   38.3110 C.3   600  SPN600      0.0000
     34  C24       45.4470   99.8140   38.0100 C.3   600  SPN600      0.0000
     35  C25       46.9190  100.0760   38.3580 C.3   600  SPN600      0.0000
     36  C26       47.4180  100.9720   39.3190 C.3   600  SPN600      0.0003
     37  CM8       46.6130  102.2250   39.7150 C.3   600  SPN600      0.0000
     38  C27       48.9420  101.1530   39.5360 C.3   600  SPN600      0.0046
     39  C28       49.6400  101.2270   38.1850 C.3   600  SPN600      0.0254
     40  C29       51.1400  101.5700   38.2870 C.2   600  SPN600     -0.0346
     41  C30       52.0540  101.3980   37.2320 C.2   600  SPN600     -0.0478
     42  CM9       51.6300  100.8550   35.8490 C.3   600  SPN600      0.0260
     43  CMB       53.5480  101.7630   37.3250 C.3   600  SPN600      0.0260
@<TRIPOS>BOND
     1    42    41    1
     2    32    31    1
     3    41    43    1
     4    41    40    2
     5    34    33    1
     6    34    35    1
     7    31    33    1
     8    31    30    1
     9    39    40    1
    10    39    38    1
    11    35    36    1
    12    29    30    1
    13    29    28    1
    14    27    26    1
    15    36    38    1
    16    36    37    1
    17    28    26    1
    18    26    25    2
    19    25    24    1
    20    24    23    2
    21    23    22    1
    22    22    20    2
    23    20    21    1
    24    20    19    1
    25    19    18    1
    26    18    17    1
    27    17    15    1
    28    15    14    1
    29    15    16    1
    30    14    13    2
    31    13    12    1
    32    12    10    1
    33    10     9    1
    34    10    11    1
    35     9     8    2
    36     7     6    2
    37     8     6    1
    38     6     5    1
    39     4     5    1
    40     5     3    1
    41     5     2    1
    42     1     2    1
