@<TRIPOS>MOLECULE
3dtb_GDP_A_1.pdb
 28 30 0 0 0
SMALL
GASTEIGER

@<TRIPOS>ATOM
      1  PB        19.4230    0.9600   10.0050 P.3   800  GDP800      0.5373
      2  O1B       19.2930   -0.5140    9.7220 O.3   800  GDP800     -0.1143
      3  O2B       19.3560    1.8710    8.7650 O.2   800  GDP800     -0.2221
      4  O3B       20.6160    1.2930   10.8870 O.3   800  GDP800     -0.1143
      5  O3A       18.1110    1.2360   10.8850 O.3   800  GDP800     -0.2261
      6  PA        17.7550    2.3030   12.0270 P.3   800  GDP800      0.2231
      7  O1A       18.0100    1.7260   13.3690 O.3   800  GDP800     -0.4370
      8  O2A       18.3850    3.5900   11.7100 O.2   800  GDP800     -0.5169
      9  O5'       16.1820    2.4280   11.9310 O.3   800  GDP800     -0.3111
     10  C5'       15.5610    2.7130   10.6890 C.3   800  GDP800      0.1813
     11  C4'       14.1370    3.1560   10.9340 C.3   800  GDP800      0.1799
     12  O4'       13.4290    2.0910   11.5610 O.3   800  GDP800     -0.3326
     13  C3'       14.0240    4.3880   11.8380 C.3   800  GDP800      0.2158
     14  O3'       12.9130    5.1910   11.3910 O.3   800  GDP800     -0.2175
     15  C2'       13.7400    3.7420   13.1750 C.3   800  GDP800      0.2310
     16  O2'       13.0080    4.5870   14.0750 O.3   800  GDP800     -0.2158
     17  C1'       12.9510    2.4720   12.8260 C.3   800  GDP800      0.2293
     18  N9        13.1820    1.3770   13.7790 N.pl3 800  GDP800     -0.2354
     19  C8        14.3710    0.9590   14.2920 C.3   800  GDP800      0.2246
     20  N7        14.2140   -0.0640   15.1460 N.2   800  GDP800     -0.2322
     21  C5        12.8970   -0.2990   15.2310 C.2   800  GDP800      0.2182
     22  C6        12.0340   -1.1950   15.9700 C.1   800  GDP800      0.2372
     23  O6        12.4460   -1.9930   16.8190 O.2   800  GDP800     -0.2069
     24  N1        10.7210   -1.0790   15.7130 N.2   800  GDP800     -0.2485
     25  C2        10.1670   -0.2100   14.8570 C.1   800  GDP800      0.2531
     26  N2         8.8230   -0.1740   14.6710 N.pl3 800  GDP800     -0.0226
     27  N3        10.8740    0.6540   14.1370 N.2   800  GDP800     -0.3074
     28  C4        12.2170    0.6190   14.3120 C.2   800  GDP800      0.2300
@<TRIPOS>BOND
     1     3     1    2
     2     2     1    1
     3     1     5    1
     4     1     4    1
     5    10    11    1
     6    10     9    1
     7     5     6    1
     8    11    12    1
     9    11    13    1
    10    14    13    1
    11    12    17    1
    12     8     6    2
    13    13    15    1
    14     9     6    1
    15     6     7    1
    16    17    15    1
    17    17    18    1
    18    15    16    1
    19    18    19    1
    20    18    28    1
    21    27    28    2
    22    27    25    2
    23    19    20    1
    24    28    21    1
    25    26    25    1
    26    25    24    2
    27    20    21    2
    28    21    22    1
    29    24    22    2
    30    22    23    2
