@<TRIPOS>MOLECULE
3dtg_PLP_A_1.pdb
 15 15 0 0 0
SMALL
GASTEIGER

@<TRIPOS>ATOM
      1  N1         2.5980  -15.0480    6.7720 N.ar  369  PLP369     -0.2452
      2  C2         3.0890  -14.3820    7.8990 C.ar  369  PLP369      0.0978
      3  C2A        2.1100  -14.0190    8.9540 C.3   369  PLP369      0.0555
      4  C3         4.4700  -14.0930    7.9610 C.ar  369  PLP369      0.2049
      5  O3         5.0030  -13.4360    9.0400 O.3   369  PLP369     -0.2857
      6  C4         5.3430  -14.5130    6.8500 C.ar  369  PLP369      0.0182
      7  C4A        6.7800  -14.2250    6.9010 C.3   369  PLP369      0.0342
      8  C5         4.7730  -15.1990    5.7230 C.ar  369  PLP369      0.0261
      9  C6         3.3700  -15.4610    5.7040 C.ar  369  PLP369      0.0965
     10  C5A        5.5130  -15.6990    4.5140 C.3   369  PLP369      0.1815
     11  O4P        6.1850  -14.7720    3.7560 O.3   369  PLP369     -0.2653
     12  P          7.2880  -15.2960    2.7590 P.3   369  PLP369      0.5329
     13  O1P        6.6160  -16.1620    1.7400 O.2   369  PLP369     -0.2224
     14  O2P        8.4450  -15.8280    3.4200 O.3   369  PLP369     -0.1145
     15  O3P        7.7220  -13.9360    2.1790 O.3   369  PLP369     -0.1145
@<TRIPOS>BOND
     1    13    12    2
     2    15    12    1
     3    12    14    1
     4    12    11    1
     5    11    10    1
     6    10     8    1
     7     9     8   ar
     8     9     1   ar
     9     8     6   ar
    10     1     2   ar
    11     6     7    1
    12     6     4   ar
    13     2     4   ar
    14     2     3    1
    15     4     5    1
