@<TRIPOS>MOLECULE
3dtr_SPN_M_1.pdb
 43 42 0 0 0
SMALL
GASTEIGER

@<TRIPOS>ATOM
      1  CMA       43.4310   84.8740   55.7610 C.3   600  SPN600      0.1745
      2  O1        44.2400   86.1510   55.9200 O.3   600  SPN600     -0.3486
      3  CM1       46.1950   87.6230   55.3710 C.3   600  SPN600      0.0376
      4  CM2       46.3280   85.1740   54.8710 C.3   600  SPN600      0.0376
      5  C1        45.3890   86.3860   54.9550 C.3   600  SPN600      0.1476
      6  C2        44.7270   86.6170   53.6030 C.2   600  SPN600      0.1969
      7  O2        45.3470   86.4590   52.5460 O.2   600  SPN600     -0.2889
      8  C3        43.2390   87.1920   53.4270 C.2   600  SPN600      0.0353
      9  C4        43.0720   88.1300   52.3910 C.2   600  SPN600     -0.0231
     10  C5        41.6750   88.7210   52.1360 C.3   600  SPN600      0.0265
     11  CM3       40.8210   89.2180   53.3310 C.3   600  SPN600      0.0050
     12  C6        41.6520   89.4320   50.9300 C.3   600  SPN600      0.0300
     13  C7        40.3460   90.0590   50.4300 C.2   600  SPN600     -0.0304
     14  C8        40.3980   90.6340   49.1550 C.2   600  SPN600     -0.0310
     15  C9        39.1220   91.2440   48.5770 C.3   600  SPN600      0.0217
     16  CM4       37.9120   91.5860   49.4760 C.3   600  SPN600      0.0047
     17  C10       39.3140   91.8550   47.3460 C.3   600  SPN600      0.0047
     18  C11       38.1130   92.4780   46.6170 C.3   600  SPN600      0.0047
     19  C12       38.4910   93.0620   45.4020 C.3   600  SPN600      0.0220
     20  C13       37.4250   93.7530   44.5630 C.2   600  SPN600     -0.0439
     21  CM5       35.9550   93.7350   45.0340 C.3   600  SPN600      0.0264
     22  C14       37.9450   94.5210   43.5200 C.2   600  SPN600     -0.0085
     23  C15       36.9090   95.2770   42.6860 C.2   600  SPN600     -0.0007
     24  C16       37.3260   96.1380   41.6790 C.2   600  SPN600     -0.0007
     25  C17       38.7890   96.3410   41.3800 C.2   600  SPN600     -0.0085
     26  C18       39.2080   97.1210   40.3150 C.2   600  SPN600     -0.0439
     27  CM6       38.3510   97.6370   39.1550 C.3   600  SPN600      0.0264
     28  C19       40.7410   97.1590   40.2220 C.3   600  SPN600      0.0220
     29  C20       41.3130   97.7480   39.1050 C.3   600  SPN600      0.0043
     30  C21       42.8370   97.6960   39.1230 C.3   600  SPN600      0.0003
     31  C22       43.5880   98.2160   38.0810 C.3   600  SPN600      0.0000
     32  CM7       43.0920   98.5460   36.6720 C.3   600  SPN600      0.0000
     33  C23       45.0950   98.4260   38.3270 C.3   600  SPN600      0.0000
     34  C24       45.5150   99.8510   38.0260 C.3   600  SPN600      0.0000
     35  C25       46.9880  100.1120   38.3700 C.3   600  SPN600      0.0000
     36  C26       47.4900  101.0080   39.3310 C.3   600  SPN600      0.0003
     37  CM8       46.6860  102.2610   39.7290 C.3   600  SPN600      0.0000
     38  C27       49.0140  101.1880   39.5450 C.3   600  SPN600      0.0046
     39  C28       49.7090  101.2620   38.1930 C.3   600  SPN600      0.0254
     40  C29       51.2100  101.6040   38.2910 C.2   600  SPN600     -0.0346
     41  C30       52.1220  101.4320   37.2340 C.2   600  SPN600     -0.0478
     42  CM9       51.6940  100.8900   35.8520 C.3   600  SPN600      0.0260
     43  CMB       53.6160  101.7960   37.3250 C.3   600  SPN600      0.0260
@<TRIPOS>BOND
     1    42    41    1
     2    32    31    1
     3    41    43    1
     4    41    40    2
     5    34    33    1
     6    34    35    1
     7    31    33    1
     8    31    30    1
     9    39    40    1
    10    39    38    1
    11    35    36    1
    12    29    30    1
    13    29    28    1
    14    27    26    1
    15    36    38    1
    16    36    37    1
    17    28    26    1
    18    26    25    2
    19    25    24    1
    20    24    23    2
    21    23    22    1
    22    22    20    2
    23    20    21    1
    24    20    19    1
    25    19    18    1
    26    18    17    1
    27    17    15    1
    28    15    14    1
    29    15    16    1
    30    14    13    2
    31    13    12    1
    32    12    10    1
    33    10     9    1
    34    10    11    1
    35     9     8    2
    36     7     6    2
    37     8     6    1
    38     6     5    1
    39     4     5    1
    40     5     3    1
    41     5     2    1
    42     1     2    1
