@<TRIPOS>MOLECULE
3dtr_U10_L_1.pdb
 48 48 0 0 0
SMALL
GASTEIGER

@<TRIPOS>ATOM
      1  C1        36.1330   75.5980   33.0300 C.2   504  U10504      0.0198
      2  C2        36.5400   74.4140   32.2920 C.2   504  U10504      0.2282
      3  C3        36.2210   74.2870   30.8930 C.2   504  U10504      0.2140
      4  C4        35.4740   75.2290   30.2890 C.2   504  U10504      0.2140
      5  C5        34.9990   76.3720   31.0430 C.2   504  U10504      0.2285
      6  C6        35.4000   76.5650   32.4250 C.2   504  U10504      0.0235
      7  C1M       36.6170   75.7150   34.4740 C.3   504  U10504      0.0343
      8  C3M       36.8630   72.9360   28.8290 C.3   504  U10504      0.2528
      9  C4M       35.9290   76.3190   28.0750 C.3   504  U10504      0.2528
     10  C7        35.0760   77.9170   33.1640 C.3   504  U10504      0.0548
     11  C8        33.9640   77.8530   34.1190 C.2   504  U10504     -0.0298
     12  C9        33.8590   78.2820   35.4440 C.2   504  U10504     -0.0475
     13  C10       34.9940   78.9640   36.2690 C.3   504  U10504      0.0260
     14  C11       32.5530   78.1160   36.2320 C.3   504  U10504      0.0264
     15  C12       32.7370   77.6590   37.6720 C.3   504  U10504      0.0297
     16  C13       31.5340   77.9290   38.4280 C.2   504  U10504     -0.0342
     17  C14       31.3550   78.4830   39.6980 C.2   504  U10504     -0.0478
     18  C15       32.5250   78.9080   40.6390 C.3   504  U10504      0.0260
     19  C16       29.9500   78.7390   40.3130 C.3   504  U10504      0.0263
     20  C17       29.3490   80.1040   39.9220 C.3   504  U10504      0.0297
     21  C18       28.4420   80.5110   40.9060 C.2   504  U10504     -0.0342
     22  C19       28.6540   81.1840   42.0960 C.2   504  U10504     -0.0478
     23  C20       30.0290   81.7500   42.5280 C.3   504  U10504      0.0260
     24  C21       27.4970   81.4710   43.1110 C.3   504  U10504      0.0263
     25  C22       27.5570   80.6130   44.4060 C.3   504  U10504      0.0297
     26  C23       26.2330   80.5520   45.1760 C.2   504  U10504     -0.0342
     27  C24       25.7570   79.6140   46.1010 C.2   504  U10504     -0.0478
     28  C25       26.5480   78.3540   46.5470 C.3   504  U10504      0.0260
     29  C26       24.3740   79.7240   46.7820 C.3   504  U10504      0.0263
     30  C27       23.7800   78.3590   47.1700 C.3   504  U10504      0.0297
     31  C28       22.3570   78.4580   47.7330 C.2   504  U10504     -0.0342
     32  C29       21.8580   79.0170   48.9230 C.2   504  U10504     -0.0478
     33  C30       22.7420   79.7350   49.9720 C.3   504  U10504      0.0260
     34  C31       20.3400   79.0110   49.3250 C.3   504  U10504      0.0263
     35  C32       19.6260   80.3270   48.9530 C.3   504  U10504      0.0297
     36  C33       18.6850   80.8610   50.0140 C.2   504  U10504     -0.0342
     37  C34       18.5940   82.1310   50.6110 C.2   504  U10504     -0.0478
     38  C35       19.5850   83.2980   50.3220 C.3   504  U10504      0.0260
     39  C36       17.4890   82.4790   51.6790 C.3   504  U10504      0.0263
     40  C37       17.3570   83.9780   52.0050 C.3   504  U10504      0.0297
     41  C38       16.5410   84.2440   53.2610 C.2   504  U10504     -0.0342
     42  C39       16.0980   85.4540   53.8160 C.2   504  U10504     -0.0478
     43  C40       16.3450   86.8400   53.1910 C.3   504  U10504      0.0260
     44  C41       15.2950   85.5700   55.1130 C.3   504  U10504      0.0260
     45  O2        37.1880   73.5460   32.8300 O.2   504  U10504     -0.2836
     46  O3        37.0200   73.2680   30.1880 O.2   504  U10504     -0.4652
     47  O4        35.3720   75.3120   28.8330 O.2   504  U10504     -0.4652
     48  O5        34.2380   77.1870   30.5090 O.2   504  U10504     -0.2835
@<TRIPOS>BOND
     1     9    47    1
     2     8    46    1
     3    47     4    1
     4    46     3    1
     5     4     3    2
     6     4     5    1
     7    48     5    2
     8     3     2    1
     9     5     6    1
    10     2    45    2
    11     2     1    1
    12     6     1    2
    13     6    10    1
    14     1     7    1
    15    10    11    1
    16    11    12    2
    17    12    14    1
    18    12    13    1
    19    14    15    1
    20    15    16    1
    21    16    17    2
    22    17    19    1
    23    17    18    1
    24    20    19    1
    25    20    21    1
    26    21    22    2
    27    22    23    1
    28    22    24    1
    29    24    25    1
    30    25    26    1
    31    26    27    2
    32    27    28    1
    33    27    29    1
    34    29    30    1
    35    30    31    1
    36    31    32    2
    37    32    34    1
    38    32    33    1
    39    35    34    1
    40    35    36    1
    41    36    37    2
    42    38    37    1
    43    37    39    1
    44    39    40    1
    45    40    41    1
    46    43    42    1
    47    41    42    2
    48    42    44    1
