@<TRIPOS>MOLECULE
3dts_SPN_M_1.pdb
 43 42 0 0 0
SMALL
GASTEIGER

@<TRIPOS>ATOM
      1  CMA       43.2190   84.5350   55.8870 C.3   600  SPN600      0.1745
      2  O1        44.0290   85.8110   56.0540 O.3   600  SPN600     -0.3486
      3  CM1       45.9890   87.2820   55.5190 C.3   600  SPN600      0.0376
      4  CM2       46.1190   84.8350   55.0090 C.3   600  SPN600      0.0376
      5  C1        45.1820   86.0480   55.0950 C.3   600  SPN600      0.1476
      6  C2        44.5260   86.2840   53.7410 C.2   600  SPN600      0.1969
      7  O2        45.1500   86.1300   52.6860 O.2   600  SPN600     -0.2889
      8  C3        43.0400   86.8640   53.5610 C.2   600  SPN600      0.0353
      9  C4        42.8780   87.8050   52.5290 C.2   600  SPN600     -0.0231
     10  C5        41.4820   88.3990   52.2690 C.3   600  SPN600      0.0265
     11  CM3       40.6250   88.8950   53.4640 C.3   600  SPN600      0.0050
     12  C6        41.4650   89.1160   51.0660 C.3   600  SPN600      0.0300
     13  C7        40.1630   89.7470   50.5630 C.2   600  SPN600     -0.0304
     14  C8        40.2210   90.3270   49.2910 C.2   600  SPN600     -0.0310
     15  C9        38.9480   90.9410   48.7100 C.3   600  SPN600      0.0220
     16  CM4       37.7360   91.2820   49.6070 C.3   600  SPN600      0.0047
     17  C10       39.1460   91.5570   47.4820 C.3   600  SPN600      0.0090
     18  C11       37.9500   92.1840   46.7510 C.3   600  SPN600      0.0260
     19  C12       38.3330   92.7730   45.5400 C.2   600  SPN600     -0.0304
     20  C13       37.2720   93.4690   44.7000 C.2   600  SPN600     -0.0261
     21  CM5       35.8000   93.4510   45.1640 C.3   600  SPN600      0.0307
     22  C14       37.7980   94.2400   43.6610 C.2   600  SPN600     -0.0046
     23  C15       36.7650   95.0010   42.8270 C.2   600  SPN600     -0.0003
     24  C16       37.1880   95.8650   41.8250 C.2   600  SPN600     -0.0003
     25  C17       38.6530   96.0670   41.5330 C.2   600  SPN600     -0.0046
     26  C18       39.0770   96.8510   40.4720 C.2   600  SPN600     -0.0261
     27  CM6       38.2260   97.3710   39.3120 C.3   600  SPN600      0.0307
     28  C19       40.6110   96.8870   40.3850 C.2   600  SPN600     -0.0304
     29  C20       41.1880   97.4780   39.2730 C.3   600  SPN600      0.0257
     30  C21       42.7120   97.4240   39.2960 C.3   600  SPN600      0.0047
     31  C22       43.4690   97.9470   38.2600 C.3   600  SPN600      0.0003
     32  CM7       42.9780   98.2830   36.8500 C.3   600  SPN600      0.0000
     33  C23       44.9740   98.1540   38.5130 C.3   600  SPN600      0.0000
     34  C24       45.3980   99.5790   38.2180 C.3   600  SPN600      0.0000
     35  C25       46.8700   99.8360   38.5700 C.3   600  SPN600      0.0000
     36  C26       47.3680  100.7260   39.5360 C.3   600  SPN600      0.0003
     37  CM8       46.5660  101.9800   39.9360 C.3   600  SPN600      0.0000
     38  C27       48.8920  100.9030   39.7570 C.3   600  SPN600      0.0046
     39  C28       49.5940  100.9810   38.4080 C.3   600  SPN600      0.0254
     40  C29       51.0950  101.3210   38.5140 C.2   600  SPN600     -0.0346
     41  C30       52.0110  101.1510   37.4600 C.2   600  SPN600     -0.0478
     42  CM9       51.5880  100.6160   36.0750 C.3   600  SPN600      0.0260
     43  CMB       53.5050  101.5130   37.5580 C.3   600  SPN600      0.0260
@<TRIPOS>BOND
     1    42    41    1
     2    32    31    1
     3    41    43    1
     4    41    40    2
     5    34    33    1
     6    34    35    1
     7    31    33    1
     8    31    30    1
     9    39    40    1
    10    39    38    1
    11    35    36    1
    12    29    30    1
    13    29    28    1
    14    27    26    1
    15    36    38    1
    16    36    37    1
    17    28    26    2
    18    26    25    1
    19    25    24    2
    20    24    23    1
    21    23    22    2
    22    22    20    1
    23    20    21    1
    24    20    19    2
    25    19    18    1
    26    18    17    1
    27    17    15    1
    28    15    14    1
    29    15    16    1
    30    14    13    2
    31    13    12    1
    32    12    10    1
    33    10     9    1
    34    10    11    1
    35     9     8    2
    36     7     6    2
    37     8     6    1
    38     6     5    1
    39     4     5    1
    40     5     3    1
    41     5     2    1
    42     1     2    1
