@<TRIPOS>MOLECULE
3dts_U10_L_1.pdb
 48 48 0 0 0
SMALL
GASTEIGER

@<TRIPOS>ATOM
      1  C1        35.1510   75.3300   28.4230 C.2   504  U10504      0.0198
      2  C2        34.6860   74.6900   27.1960 C.2   504  U10504      0.2282
      3  C3        34.9030   73.2670   26.9420 C.2   504  U10504      0.2140
      4  C4        35.5490   72.5770   27.9120 C.2   504  U10504      0.2140
      5  C5        36.0230   73.1930   29.1300 C.2   504  U10504      0.2285
      6  C6        35.8060   74.6190   29.3810 C.2   504  U10504      0.0235
      7  C1M       34.8850   76.8150   28.6100 C.3   504  U10504      0.0343
      8  C3M       34.7530   72.7850   24.3480 C.3   504  U10504      0.2528
      9  C4M       37.0620   70.8330   27.0340 C.3   504  U10504      0.2528
     10  C7        36.3500   75.1520   30.7000 C.3   504  U10504      0.0548
     11  C8        35.3650   75.3970   31.7300 C.2   504  U10504     -0.0298
     12  C9        35.5090   75.2710   33.1090 C.2   504  U10504     -0.0478
     13  C10       36.8030   74.8440   33.8130 C.3   504  U10504      0.0260
     14  C11       34.3700   75.5820   34.0870 C.3   504  U10504      0.0217
     15  C12       34.4210   77.0500   34.5040 C.3   504  U10504      0.0043
     16  C13       33.2600   77.3870   35.3460 C.3   504  U10504      0.0003
     17  C14       33.3720   78.1220   36.5400 C.3   504  U10504      0.0003
     18  C15       34.1710   79.4550   36.5370 C.3   504  U10504      0.0000
     19  C16       32.8150   77.7690   37.9000 C.3   504  U10504      0.0046
     20  C17       31.3510   77.3910   38.0150 C.3   504  U10504      0.0254
     21  C18       30.7190   78.1210   39.1140 C.2   504  U10504     -0.0346
     22  C19       29.7470   77.7770   40.0440 C.2   504  U10504     -0.0482
     23  C20       29.0860   76.3790   40.1250 C.3   504  U10504      0.0260
     24  C21       29.2090   78.6900   41.1450 C.3   504  U10504      0.0217
     25  C22       28.5810   80.0000   40.7230 C.3   504  U10504      0.0043
     26  C23       27.7860   80.5550   41.8210 C.3   504  U10504      0.0003
     27  C24       28.2180   81.4180   42.8350 C.3   504  U10504      0.0003
     28  C25       29.5050   82.2390   42.6620 C.3   504  U10504      0.0000
     29  C26       27.4860   81.6330   44.1590 C.3   504  U10504      0.0046
     30  C27       27.7190   80.5150   45.1710 C.3   504  U10504      0.0254
     31  C28       26.4870   79.9680   45.6640 C.2   504  U10504     -0.0342
     32  C29       25.7420   78.8140   45.7240 C.2   504  U10504     -0.0432
     33  C30       26.1880   77.4420   45.1620 C.3   504  U10504      0.0264
     34  C31       24.3640   79.0340   46.5450 C.3   504  U10504      0.0560
     35  C32       24.4310   79.3950   48.0280 C.2   504  U10504      0.0189
     36  C33       23.2650   79.2270   48.8040 C.1   504  U10504     -0.1141
     37  C34       22.4020   78.8930   49.8070 C.2   504  U10504     -0.0096
     38  C35       22.9160   78.1450   51.0550 C.3   504  U10504      0.0347
     39  C36       20.8980   79.2110   49.7900 C.3   504  U10504      0.0344
     40  C37       20.5680   80.3500   50.7360 C.3   504  U10504      0.0303
     41  C38       19.1960   80.8150   50.7420 C.2   504  U10504     -0.0342
     42  C39       18.6870   82.1080   50.8670 C.2   504  U10504     -0.0478
     43  C40       19.5600   83.3750   50.9870 C.3   504  U10504      0.0260
     44  C41       17.1930   82.4500   50.8830 C.3   504  U10504      0.0260
     45  O2        34.0920   75.2670   26.2960 O.2   504  U10504     -0.2836
     46  O3        34.3740   72.8330   25.6720 O.2   504  U10504     -0.4652
     47  O4        35.8470   71.1490   27.7100 O.2   504  U10504     -0.4652
     48  O5        36.6150   72.6170   30.0370 O.2   504  U10504     -0.2835
@<TRIPOS>BOND
     1     8    46    1
     2    46     3    1
     3    45     2    2
     4     3     2    1
     5     3     4    2
     6     9    47    1
     7     2     1    1
     8    47     4    1
     9     4     5    1
    10     1     7    1
    11     1     6    2
    12     5     6    1
    13     5    48    2
    14     6    10    1
    15    10    11    1
    16    11    12    2
    17    12    13    1
    18    12    14    1
    19    14    15    1
    20    15    16    1
    21    16    17    1
    22    18    17    1
    23    17    19    1
    24    19    20    1
    25    20    21    1
    26    21    22    2
    27    22    23    1
    28    22    24    1
    29    25    24    1
    30    25    26    1
    31    26    27    1
    32    28    27    1
    33    27    29    1
    34    29    30    1
    35    33    32    1
    36    30    31    1
    37    31    32    2
    38    32    34    1
    39    34    35    1
    40    35    36    2
    41    36    37    2
    42    39    37    1
    43    39    40    1
    44    37    38    1
    45    40    41    1
    46    41    42    2
    47    42    44    1
    48    42    43    1
