@<TRIPOS>MOLECULE
3dtt_NAP_A_1.pdb
 48 52 0 0 0
SMALL
GASTEIGER

@<TRIPOS>ATOM
      1  PA        22.4170   44.9230   21.0760 P.3   300  NAP300      0.2189
      2  O1A       21.9770   44.5400   19.7130 O.2   300  NAP300     -0.5170
      3  O2A       22.0420   43.9220   22.1040 O.3   300  NAP300     -0.4371
      4  O5B       21.6990   46.3090   21.4150 O.3   300  NAP300     -0.3112
      5  C5B       21.7260   46.8180   22.7270 C.3   300  NAP300      0.1813
      6  C4B       21.2950   48.2730   22.6580 C.3   300  NAP300      0.1820
      7  O4B       20.0420   48.3480   21.9820 O.3   300  NAP300     -0.3136
      8  C3B       21.1220   48.8650   24.0530 C.3   300  NAP300      0.2157
      9  O3B       21.6350   50.1770   24.1480 O.3   300  NAP300     -0.2175
     10  C2B       19.6270   48.8690   24.2180 C.3   300  NAP300      0.2314
     11  O2B       19.1320   49.9120   25.0320 O.3   300  NAP300     -0.2630
     12  C1B       19.1300   49.0390   22.7860 C.3   300  NAP300      0.3158
     13  N9A       17.7640   48.5220   22.7030 N.pl3 300  NAP300     -0.1439
     14  C8A       17.3320   47.2160   22.8120 C.3   300  NAP300      0.3377
     15  N7A       15.9810   47.2240   22.7050 N.2   300  NAP300     -0.2095
     16  C5A       15.5490   48.4970   22.5480 C.2   300  NAP300      0.2526
     17  C6A       14.2810   49.0830   22.4020 C.2   300  NAP300      0.4393
     18  N6A       13.1640   48.3580   22.3390 N.pl3 300  NAP300      0.2180
     19  N1A       14.1960   50.4580   22.2410 N.2   300  NAP300      0.0021
     20  C2A       15.3290   51.2540   22.2540 C.3   300  NAP300      0.5254
     21  N3A       16.5760   50.6710   22.4080 N.2   300  NAP300     -0.0055
     22  C4A       16.6760   49.3190   22.5480 C.2   300  NAP300      0.3518
     23  O3        23.9480   45.3450   21.2300 O.3   300  NAP300     -0.2703
     24  PN        25.2370   44.9240   20.3830 P.3   300  NAP300      0.2189
     25  O1N       26.3100   45.8230   20.8400 O.3   300  NAP300     -0.4371
     26  O2N       25.4600   43.4620   20.4560 O.2   300  NAP300     -0.5170
     27  O5D       24.8620   45.2980   18.8550 O.3   300  NAP300     -0.3112
     28  C5D       24.4950   46.6090   18.5060 C.3   300  NAP300      0.1813
     29  C4D       24.1920   46.6940   17.0150 C.3   300  NAP300      0.1799
     30  O4D       25.3830   46.4510   16.2880 O.3   300  NAP300     -0.3327
     31  C3D       23.1630   45.6820   16.5180 C.3   300  NAP300      0.2158
     32  O3D       22.2950   46.2490   15.5480 O.3   300  NAP300     -0.2175
     33  C2D       23.9990   44.5800   15.8950 C.3   300  NAP300      0.2309
     34  O2D       23.2920   43.8450   14.9300 O.3   300  NAP300     -0.2158
     35  C1D       25.1560   45.4120   15.3450 C.3   300  NAP300      0.2263
     36  N1N       26.4440   44.7160   15.1860 N.pl3 300  NAP300     -0.2787
     37  C2N       26.9280   43.9160   16.2030 C.3   300  NAP300      0.1244
     38  C3N       28.1720   43.3070   16.0570 C.2   300  NAP300      0.0544
     39  C7N       28.8020   42.5950   17.2130 C.2   300  NAP300      0.2818
     40  O7N       30.1930   42.4990   17.2880 O.2   300  NAP300     -0.2670
     41  N7N       28.0180   42.0890   18.1500 N.am  300  NAP300     -0.0839
     42  C4N       28.9080   43.4890   14.8970 C.2   300  NAP300      0.0033
     43  C5N       28.4110   44.3090   13.8940 C.2   300  NAP300      0.0157
     44  C6N       27.1770   44.9310   14.0460 C.2   300  NAP300      0.0633
     45  P2B       19.5080   49.9630   26.6000 P.3   300  NAP300      0.5328
     46  O1X       20.8880   50.5280   26.7000 O.2   300  NAP300     -0.2224
     47  O2X       18.5140   50.8580   27.3010 O.3   300  NAP300     -0.1145
     48  O3X       19.4540   48.5410   27.0890 O.3   300  NAP300     -0.1145
@<TRIPOS>BOND
     1    43    44    2
     2    43    42    1
     3    44    36    1
     4    42    38    2
     5    34    33    1
     6    36    35    1
     7    36    37    1
     8    35    33    1
     9    35    30    1
    10    32    31    1
    11    33    31    1
    12    38    37    1
    13    38    39    1
    14    30    29    1
    15    31    29    1
    16    29    28    1
    17    39    40    2
    18    39    41   am
    19    28    27    1
    20    27    24    1
    21     2     1    2
    22    24    26    2
    23    24    25    1
    24    24    23    1
    25     1    23    1
    26     1     4    1
    27     1     3    1
    28     4     5    1
    29     7     6    1
    30     7    12    1
    31    19    20    1
    32    19    17    2
    33    20    21    1
    34    18    17    1
    35    17    16    1
    36    21    22    2
    37    22    16    1
    38    22    13    1
    39    16    15    2
    40     6     5    1
    41     6     8    1
    42    13    12    1
    43    13    14    1
    44    15    14    1
    45    12    10    1
    46     8     9    1
    47     8    10    1
    48    10    11    1
    49    11    45    1
    50    45    46    2
    51    45    48    1
    52    45    47    1
