@<TRIPOS>MOLECULE
3dtu_DXC_C_1.pdb
 28 31 0 0 0
SMALL
GASTEIGER

@<TRIPOS>ATOM
      1  C1       -43.5220  -29.0110  -44.4280 C.3   576  DXC576      0.1520
      2  C2       -43.2870  -29.6180  -43.0390 C.3   576  DXC576      0.0329
      3  C3       -43.4430  -28.6430  -41.8570 C.3   576  DXC576      0.0025
      4  C4       -42.6690  -27.3230  -42.0580 C.3   576  DXC576      0.0002
      5  C5       -43.1120  -26.7060  -43.3900 C.3   576  DXC576      0.0026
      6  C6       -42.9110  -27.6200  -44.6010 C.3   576  DXC576      0.0329
      7  C7       -43.0590  -29.3740  -40.5620 C.3   576  DXC576      0.0001
      8  C8       -41.5520  -29.6120  -40.4410 C.3   576  DXC576      0.0000
      9  C9       -40.7160  -28.3500  -40.6880 C.3   576  DXC576      0.0002
     10  C10      -41.1430  -27.6140  -41.9830 C.3   576  DXC576      0.0025
     11  C11      -39.2220  -28.6850  -40.7750 C.3   576  DXC576      0.0024
     12  C12      -38.3220  -27.4680  -40.9930 C.3   576  DXC576      0.0282
     13  C13      -38.7190  -26.7890  -42.3180 C.3   576  DXC576      0.1519
     14  C14      -40.2140  -26.4380  -42.3520 C.3   576  DXC576      0.0329
     15  C15      -38.5680  -29.4700  -39.6360 C.3   576  DXC576      0.0001
     16  C16      -37.0690  -29.1850  -39.8110 C.3   576  DXC576      0.0001
     17  C17      -36.9300  -28.1270  -40.9250 C.3   576  DXC576      0.0024
     18  C18      -43.0810  -26.2860  -40.9990 C.3   576  DXC576      0.0000
     19  C19      -35.7130  -27.1680  -40.8330 C.3   576  DXC576      0.0006
     20  O1       -38.4020  -27.6110  -43.4550 O.3   576  DXC576     -0.2232
     21  O2       -42.8930  -29.8590  -45.3880 O.3   576  DXC576     -0.2232
     22  C20      -38.4850  -26.4560  -39.8420 C.3   576  DXC576      0.0025
     23  C21      -34.4780  -27.6550  -40.0470 C.3   576  DXC576      0.0118
     24  C22      -33.7660  -28.9130  -40.5620 C.3   576  DXC576      0.1141
     25  C23      -32.5790  -28.6210  -41.4610 C.2   576  DXC576      0.3649
     26  O3       -31.9570  -27.5340  -41.3730 O.co2 576  DXC576     -0.2457
     27  O4       -32.2590  -29.5010  -42.2960 O.co2 576  DXC576     -0.2457
     28  C24      -35.3020  -26.6440  -42.2100 C.3   576  DXC576      0.0000
@<TRIPOS>BOND
     1    21     1    1
     2     6     1    1
     3     6     5    1
     4     1     2    1
     5    20    13    1
     6     5     4    1
     7     2     3    1
     8    14    13    1
     9    14    10    1
    10    13    12    1
    11    27    25   ar
    12    28    19    1
    13     4    10    1
    14     4     3    1
    15     4    18    1
    16    10     9    1
    17     3     7    1
    18    25    26   ar
    19    25    24    1
    20    12    17    1
    21    12    11    1
    22    12    22    1
    23    17    19    1
    24    17    16    1
    25    19    23    1
    26    11     9    1
    27    11    15    1
    28     9     8    1
    29     7     8    1
    30    24    23    1
    31    16    15    1
