@<TRIPOS>MOLECULE
3dtu_DMU_A_1.pdb
 33 34 0 0 0
SMALL
GASTEIGER

@<TRIPOS>ATOM
      1  C1       -23.6560  -20.6960  -49.7730 C.3   567  DMU567      0.2404
      2  C2       -22.3190  -21.4200  -49.6380 C.3   567  DMU567      0.2167
      3  C3       -22.1580  -22.0290  -48.2400 C.3   567  DMU567      0.1804
      4  C4       -23.3750  -22.9230  -47.9430 C.3   567  DMU567      0.1803
      5  O5       -24.6090  -22.1860  -48.1040 O.3   567  DMU567     -0.3257
      6  C6       -24.7780  -21.6790  -49.4430 C.3   567  DMU567      0.2695
      7  O7       -20.9470  -22.8100  -48.1950 O.3   567  DMU567     -0.3257
      8  O16      -26.0480  -21.0480  -49.5700 O.3   567  DMU567     -0.3286
      9  C18      -26.8970  -21.7760  -50.4540 C.3   567  DMU567      0.1449
     10  C19      -27.1510  -20.9320  -51.6940 C.3   567  DMU567      0.0322
     11  C22      -28.3040  -21.4960  -52.5060 C.3   567  DMU567      0.0026
     12  C25      -29.0660  -20.3560  -53.1560 C.3   567  DMU567      0.0001
     13  C28      -30.0130  -20.8720  -54.2270 C.3   567  DMU567      0.0000
     14  C31      -31.4180  -21.0770  -53.6720 C.3   567  DMU567      0.0000
     15  C34      -32.1700  -19.7580  -53.6310 C.3   567  DMU567      0.0000
     16  C37      -33.5450  -19.9550  -53.0240 C.3   567  DMU567      0.0000
     17  C40      -34.0350  -18.6460  -52.4360 C.3   567  DMU567      0.0000
     18  C43      -35.3660  -18.8840  -51.7750 C.3   567  DMU567      0.0000
     19  O49      -23.8190  -20.2380  -51.1070 O.3   567  DMU567     -0.2149
     20  O55      -21.2570  -20.5260  -49.9370 O.3   567  DMU567     -0.2175
     21  C57      -23.3700  -23.5880  -46.5700 C.3   567  DMU567      0.2141
     22  O61      -23.6020  -22.6330  -45.5460 O.3   567  DMU567     -0.2176
     23  C5       -18.5680  -22.9790  -47.7680 C.3   567  DMU567      0.2406
     24  C7       -18.6680  -24.4060  -47.2260 C.3   567  DMU567      0.2198
     25  C8       -18.8600  -24.3680  -45.7160 C.3   567  DMU567      0.2144
     26  C9       -20.1480  -23.6040  -45.4230 C.3   567  DMU567      0.1835
     27  O1       -20.0760  -22.2720  -46.0100 O.3   567  DMU567     -0.3256
     28  C10      -19.8540  -22.2240  -47.4430 C.3   567  DMU567      0.2695
     29  O2       -18.9400  -25.6990  -45.2370 O.3   567  DMU567     -0.2176
     30  O3       -18.3960  -23.0190  -49.1710 O.3   567  DMU567     -0.2149
     31  O4       -17.5250  -25.1860  -47.5470 O.3   567  DMU567     -0.2174
     32  C11      -20.4880  -23.5430  -43.9290 C.3   567  DMU567      0.2142
     33  O6       -21.2470  -24.6750  -43.5150 O.3   567  DMU567     -0.2176
@<TRIPOS>BOND
     1    13    14    1
     2    13    12    1
     3    14    15    1
     4    15    16    1
     5    12    11    1
     6    16    17    1
     7    11    10    1
     8    17    18    1
     9    10     9    1
    10    19     1    1
    11     9     8    1
    12    20     2    1
    13     1     2    1
    14     1     6    1
    15     2     3    1
    16     8     6    1
    17     6     5    1
    18    30    23    1
    19     3     7    1
    20     3     4    1
    21     7    28    1
    22     5     4    1
    23     4    21    1
    24    23    28    1
    25    23    24    1
    26    31    24    1
    27    28    27    1
    28    24    25    1
    29    21    22    1
    30    27    26    1
    31    25    26    1
    32    25    29    1
    33    26    32    1
    34    32    33    1
