@<TRIPOS>MOLECULE
3dtw_A96_A_1.pdb
 30 33 0 0 0
SMALL
GASTEIGER

@<TRIPOS>ATOM
      1  N1        40.5560   28.0730   11.8050 N.ar  501  A96501     -0.2210
      2  C2        39.5770   29.0240   11.7100 C.ar  501  A96501      0.1188
      3  C3        38.9160   29.5480   12.8430 C.ar  501  A96501      0.1119
      4  C4        39.3550   29.0000   14.0820 C.ar  501  A96501      0.1188
      5  N5        40.3230   28.0570   14.1920 N.ar  501  A96501     -0.2210
      6  C6        40.8860   27.6300   13.0430 C.ar  501  A96501      0.1990
      7  N10       37.9240   30.5090   12.8000 N.am  501  A96501     -0.1722
      8  C11       37.7330   31.5440   13.6670 C.2   501  A96501      0.2730
      9  C12       36.6290   32.4490   13.3160 C.ar  501  A96501      0.1031
     10  O13       38.4570   31.7310   14.6400 O.2   501  A96501     -0.2679
     11  C14       36.9740   33.7960   13.1090 C.ar  501  A96501      0.1834
     12  C15       35.9850   34.7840   12.7710 C.ar  501  A96501      0.0739
     13  C16       34.6490   34.4210   12.6470 C.ar  501  A96501      0.0070
     14  C17       34.2670   33.0540   12.8550 C.ar  501  A96501      0.0118
     15  C18       35.2490   32.0770   13.1900 C.ar  501  A96501      0.0651
     16  O21       38.1550   34.4850   13.1480 O.2   501  A96501     -0.3519
     17  N22       38.0910   35.7730   12.8940 N.ar  501  A96501     -0.0600
     18  C23       36.7740   36.0070   12.6550 C.ar  501  A96501      0.1937
     19 CL24       34.6700   30.4650   13.4280 Cl    501  A96501     -0.0820
     20  N25       36.0430   37.2580   12.3100 N.pl3 501  A96501     -0.1914
     21  C26       36.6640   38.4900   12.2020 C.ar  501  A96501      0.0722
     22  C27       36.0560   39.6320   12.7720 C.ar  501  A96501      0.0165
     23  C28       36.6730   40.9010   12.6600 C.ar  501  A96501      0.0013
     24  C29       37.8990   41.0430   11.9800 C.ar  501  A96501      0.0039
     25  C30       38.5390   39.9180   11.3960 C.ar  501  A96501      0.0727
     26  C31       37.9080   38.6350   11.5120 C.ar  501  A96501      0.0204
     27  C36       39.8760   40.0720   10.6630 C.3   501  A96501      0.4186
     28  F37       40.5980   38.9680   10.7770 F     501  A96501     -0.1659
     29  F38       40.5350   41.0970   11.1890 F     501  A96501     -0.1659
     30  F39       39.6120   40.3080    9.4000 F     501  A96501     -0.1659
@<TRIPOS>BOND
     1    30    27    1
     2    27    28    1
     3    27    29    1
     4    27    25    1
     5    25    26   ar
     6    25    24   ar
     7    26    21   ar
     8     2     1   ar
     9     2     3   ar
    10     1     6   ar
    11    24    23   ar
    12    21    20    1
    13    21    22   ar
    14    20    18    1
    15    13    12   ar
    16    13    14   ar
    17    18    12   ar
    18    18    17   ar
    19    23    22   ar
    20    12    11   ar
    21     7     3    1
    22     7     8   am
    23     3     4   ar
    24    14    15   ar
    25    17    16   ar
    26     6     5   ar
    27    11    16   ar
    28    11     9   ar
    29    15     9   ar
    30    15    19    1
    31     9     8    1
    32     8    10    2
    33     4     5   ar
