@<TRIPOS>MOLECULE
3du2_SPN_M_1.pdb
 43 42 0 0 0
SMALL
GASTEIGER

@<TRIPOS>ATOM
      1  CMA       43.2700   84.9470   55.8440 C.3   600  SPN600      0.1745
      2  O1        44.0770   86.2250   56.0080 O.3   600  SPN600     -0.3486
      3  CM1       46.0340   87.6980   55.4680 C.3   600  SPN600      0.0376
      4  CM2       46.1690   85.2500   54.9650 C.3   600  SPN600      0.0376
      5  C1        45.2300   86.4610   55.0480 C.3   600  SPN600      0.1476
      6  C2        44.5720   86.6930   53.6930 C.2   600  SPN600      0.1969
      7  O2        45.1970   86.5370   52.6390 O.2   600  SPN600     -0.2889
      8  C3        43.0850   87.2680   53.5130 C.2   600  SPN600      0.0353
      9  C4        42.9210   88.2070   52.4770 C.2   600  SPN600     -0.0231
     10  C5        41.5240   88.7970   52.2170 C.3   600  SPN600      0.0265
     11  CM3       40.6660   89.2930   53.4100 C.3   600  SPN600      0.0050
     12  C6        41.5050   89.5100   51.0120 C.3   600  SPN600      0.0300
     13  C7        40.2010   90.1370   50.5080 C.2   600  SPN600     -0.0304
     14  C8        40.2570   90.7140   49.2340 C.2   600  SPN600     -0.0310
     15  C9        38.9830   91.3240   48.6520 C.3   600  SPN600      0.0217
     16  CM4       37.7700   91.6640   49.5470 C.3   600  SPN600      0.0047
     17  C10       39.1790   91.9360   47.4230 C.3   600  SPN600      0.0047
     18  C11       37.9820   92.5600   46.6900 C.3   600  SPN600      0.0047
     19  C12       38.3630   93.1450   45.4770 C.3   600  SPN600      0.0220
     20  C13       37.3000   93.8370   44.6350 C.2   600  SPN600     -0.0439
     21  CM5       35.8280   93.8180   45.1010 C.3   600  SPN600      0.0264
     22  C14       37.8240   94.6070   43.5940 C.2   600  SPN600     -0.0085
     23  C15       36.7900   95.3630   42.7580 C.2   600  SPN600     -0.0007
     24  C16       37.2110   96.2250   41.7540 C.2   600  SPN600     -0.0007
     25  C17       38.6740   96.4300   41.4610 C.2   600  SPN600     -0.0085
     26  C18       39.0970   97.2110   40.3980 C.2   600  SPN600     -0.0439
     27  CM6       38.2440   97.7270   39.2360 C.3   600  SPN600      0.0264
     28  C19       40.6300   97.2500   40.3100 C.3   600  SPN600      0.0220
     29  C20       41.2060   97.8410   39.1970 C.3   600  SPN600      0.0043
     30  C21       42.7300   97.7890   39.2190 C.3   600  SPN600      0.0003
     31  C22       43.4850   98.3110   38.1810 C.3   600  SPN600      0.0000
     32  CM7       42.9940   98.6430   36.7710 C.3   600  SPN600      0.0000
     33  C23       44.9900   98.5220   38.4330 C.3   600  SPN600      0.0000
     34  C24       45.4110   99.9470   38.1350 C.3   600  SPN600      0.0000
     35  C25       46.8820  100.2090   38.4860 C.3   600  SPN600      0.0000
     36  C26       47.3800  101.1030   39.4490 C.3   600  SPN600      0.0003
     37  CM8       46.5750  102.3550   39.8460 C.3   600  SPN600      0.0000
     38  C27       48.9030  101.2840   39.6680 C.3   600  SPN600      0.0046
     39  C28       49.6030  101.3590   38.3190 C.3   600  SPN600      0.0254
     40  C29       51.1040  101.7020   38.4240 C.2   600  SPN600     -0.0346
     41  C30       52.0200  101.5320   37.3700 C.2   600  SPN600     -0.0478
     42  CM9       51.5970  100.9920   35.9860 C.3   600  SPN600      0.0260
     43  CMB       53.5130  101.8970   37.4670 C.3   600  SPN600      0.0260
@<TRIPOS>BOND
     1    42    41    1
     2    32    31    1
     3    41    43    1
     4    41    40    2
     5    34    33    1
     6    34    35    1
     7    31    33    1
     8    31    30    1
     9    39    40    1
    10    39    38    1
    11    35    36    1
    12    29    30    1
    13    29    28    1
    14    27    26    1
    15    36    38    1
    16    36    37    1
    17    28    26    1
    18    26    25    2
    19    25    24    1
    20    24    23    2
    21    23    22    1
    22    22    20    2
    23    20    21    1
    24    20    19    1
    25    19    18    1
    26    18    17    1
    27    17    15    1
    28    15    14    1
    29    15    16    1
    30    14    13    2
    31    13    12    1
    32    12    10    1
    33    10     9    1
    34    10    11    1
    35     9     8    2
    36     7     6    2
    37     8     6    1
    38     6     5    1
    39     4     5    1
    40     5     3    1
    41     5     2    1
    42     1     2    1
