@<TRIPOS>MOLECULE
3du2_U10_L_1.pdb
 48 48 0 0 0
SMALL
GASTEIGER

@<TRIPOS>ATOM
      1  C1        35.7920   75.7320   32.5570 C.2   504  U10504      0.0198
      2  C2        36.1600   74.5740   31.7600 C.2   504  U10504      0.2282
      3  C3        35.8110   74.5140   30.3640 C.2   504  U10504      0.2140
      4  C4        35.0710   75.4960   29.8170 C.2   504  U10504      0.2140
      5  C5        34.6350   76.6140   30.6280 C.2   504  U10504      0.2285
      6  C6        35.0660   76.7390   32.0090 C.2   504  U10504      0.0235
      7  C1M       36.3060   75.7770   33.9950 C.3   504  U10504      0.0343
      8  C3M       36.3850   73.2420   28.2320 C.3   504  U10504      0.2528
      9  C4M       35.5050   76.6730   27.6440 C.3   504  U10504      0.2528
     10  C7        34.7850   78.0630   32.8130 C.3   504  U10504      0.0548
     11  C8        33.6920   77.9800   33.7870 C.2   504  U10504     -0.0298
     12  C9        33.6210   78.3530   35.1310 C.2   504  U10504     -0.0475
     13  C10       34.7870   78.9760   35.9610 C.3   504  U10504      0.0260
     14  C11       32.3280   78.1790   35.9380 C.3   504  U10504      0.0264
     15  C12       32.5310   77.6550   37.3530 C.3   504  U10504      0.0297
     16  C13       31.3490   77.9150   38.1440 C.2   504  U10504     -0.0342
     17  C14       31.2060   78.4160   39.4400 C.2   504  U10504     -0.0478
     18  C15       32.4030   78.7780   40.3750 C.3   504  U10504      0.0260
     19  C16       29.8190   78.6740   40.0950 C.3   504  U10504      0.0263
     20  C17       29.2390   80.0650   39.7760 C.3   504  U10504      0.0297
     21  C18       28.3600   80.4470   40.7950 C.2   504  U10504     -0.0342
     22  C19       28.6080   81.0630   42.0070 C.2   504  U10504     -0.0478
     23  C20       30.0030   81.5830   42.4350 C.3   504  U10504      0.0260
     24  C21       27.4780   81.3290   43.0580 C.3   504  U10504      0.0263
     25  C22       27.5450   80.4140   44.3140 C.3   504  U10504      0.0297
     26  C23       26.2370   80.3450   45.1060 C.2   504  U10504     -0.0342
     27  C24       25.7590   79.3780   45.9990 C.2   504  U10504     -0.0478
     28  C25       26.5340   78.0840   46.3750 C.3   504  U10504      0.0260
     29  C26       24.3940   79.4840   46.7140 C.3   504  U10504      0.0263
     30  C27       23.7780   78.1160   47.0530 C.3   504  U10504      0.0297
     31  C28       22.3700   78.2180   47.6500 C.2   504  U10504     -0.0342
     32  C29       21.9050   78.7340   48.8740 C.2   504  U10504     -0.0478
     33  C30       22.8240   79.3880   49.9340 C.3   504  U10504      0.0260
     34  C31       20.3960   78.7400   49.3060 C.3   504  U10504      0.0263
     35  C32       19.7020   80.0850   49.0060 C.3   504  U10504      0.0297
     36  C33       18.7930   80.5900   50.1080 C.2   504  U10504     -0.0342
     37  C34       18.7400   81.8360   50.7600 C.2   504  U10504     -0.0478
     38  C35       19.7480   82.9930   50.5030 C.3   504  U10504      0.0260
     39  C36       17.6640   82.1580   51.8660 C.3   504  U10504      0.0263
     40  C37       17.5690   83.6440   52.2580 C.3   504  U10504      0.0297
     41  C38       16.7830   83.8710   53.5410 C.2   504  U10504     -0.0342
     42  C39       16.3760   85.0630   54.1570 C.2   504  U10504     -0.0478
     43  C40       16.6390   86.4700   53.5880 C.3   504  U10504      0.0260
     44  C41       15.6020   85.1380   55.4740 C.3   504  U10504      0.0260
     45  O2        36.8010   73.6710   32.2470 O.2   504  U10504     -0.2836
     46  O3        36.5750   73.5120   29.5990 O.2   504  U10504     -0.4652
     47  O4        34.9420   75.6440   28.3680 O.2   504  U10504     -0.4652
     48  O5        33.8800   77.4670   30.1470 O.2   504  U10504     -0.2835
@<TRIPOS>BOND
     1     9    47    1
     2     8    46    1
     3    47     4    1
     4    46     3    1
     5     4     3    2
     6     4     5    1
     7    48     5    2
     8     3     2    1
     9     5     6    1
    10     2    45    2
    11     2     1    1
    12     6     1    2
    13     6    10    1
    14     1     7    1
    15    10    11    1
    16    11    12    2
    17    12    14    1
    18    12    13    1
    19    14    15    1
    20    15    16    1
    21    16    17    2
    22    17    19    1
    23    17    18    1
    24    20    19    1
    25    20    21    1
    26    21    22    2
    27    22    23    1
    28    22    24    1
    29    24    25    1
    30    25    26    1
    31    26    27    2
    32    27    28    1
    33    27    29    1
    34    29    30    1
    35    30    31    1
    36    31    32    2
    37    32    34    1
    38    32    33    1
    39    35    34    1
    40    35    36    1
    41    36    37    2
    42    38    37    1
    43    37    39    1
    44    39    40    1
    45    40    41    1
    46    41    42    2
    47    43    42    1
    48    42    44    1
