@<TRIPOS>MOLECULE
3du3_U10_L_1.pdb
 48 48 0 0 0
SMALL
GASTEIGER

@<TRIPOS>ATOM
      1  C1        35.0940   75.2670   27.6220 C.2   504  U10504      0.0198
      2  C2        34.6520   74.6280   26.3860 C.2   504  U10504      0.2282
      3  C3        34.8710   73.2050   26.1360 C.2   504  U10504      0.2140
      4  C4        35.4980   72.5130   27.1170 C.2   504  U10504      0.2140
      5  C5        35.9500   73.1270   28.3450 C.2   504  U10504      0.2285
      6  C6        35.7310   74.5540   28.5920 C.2   504  U10504      0.0235
      7  C1M       34.8280   76.7520   27.8040 C.3   504  U10504      0.0343
      8  C3M       34.7680   72.7240   23.5400 C.3   504  U10504      0.2528
      9  C4M       37.0230   70.7660   26.2670 C.3   504  U10504      0.2528
     10  C7        36.2510   75.0860   29.9210 C.3   504  U10504      0.0548
     11  C8        35.2480   75.3310   30.9330 C.2   504  U10504     -0.0298
     12  C9        35.4000   75.3340   32.3170 C.2   504  U10504     -0.0478
     13  C10       36.6440   74.8270   33.0550 C.3   504  U10504      0.0260
     14  C11       34.3240   75.8830   33.2620 C.3   504  U10504      0.0217
     15  C12       34.7320   77.2620   33.7750 C.3   504  U10504      0.0043
     16  C13       33.6510   77.8510   34.5870 C.3   504  U10504      0.0003
     17  C14       33.8800   78.4680   35.8290 C.3   504  U10504      0.0003
     18  C15       34.9990   79.5400   35.9490 C.3   504  U10504      0.0000
     19  C16       33.1700   78.2040   37.1370 C.3   504  U10504      0.0046
     20  C17       31.6540   78.2200   37.1630 C.3   504  U10504      0.0254
     21  C18       31.1700   78.6750   38.4670 C.2   504  U10504     -0.0346
     22  C19       30.1590   78.2310   39.3080 C.2   504  U10504     -0.0478
     23  C20       29.3360   76.9410   39.0640 C.3   504  U10504      0.0260
     24  C21       29.7280   78.9050   40.6120 C.3   504  U10504      0.0263
     25  C22       28.5440   79.8440   40.5540 C.3   504  U10504      0.0297
     26  C23       27.9850   80.0310   41.8950 C.2   504  U10504     -0.0343
     27  C24       27.8890   81.2260   42.6200 C.2   504  U10504     -0.0482
     28  C25       28.4550   82.5330   42.0440 C.3   504  U10504      0.0260
     29  C26       27.2300   81.3530   43.9930 C.3   504  U10504      0.0217
     30  C27       27.1890   80.0410   44.7700 C.3   504  U10504      0.0043
     31  C28       25.9830   79.9050   45.5360 C.3   504  U10504      0.0007
     32  C29       24.8640   79.1230   45.6940 C.3   504  U10504      0.0050
     33  C30       24.2920   78.1670   44.6180 C.3   504  U10504      0.0004
     34  C31       24.0050   79.0250   46.9680 C.3   504  U10504      0.0344
     35  C32       24.8420   78.5480   48.1540 C.2   504  U10504      0.0145
     36  C33       24.2130   77.7500   49.1330 C.1   504  U10504     -0.1144
     37  C34       23.9420   76.7590   50.0300 C.2   504  U10504     -0.0096
     38  C35       24.9340   75.5930   50.2220 C.3   504  U10504      0.0347
     39  C36       22.6730   76.7070   50.8960 C.3   504  U10504      0.0344
     40  C37       22.9780   77.0690   52.3380 C.3   504  U10504      0.0303
     41  C38       21.8490   77.1510   53.2420 C.2   504  U10504     -0.0342
     42  C39       21.6040   78.0370   54.2910 C.2   504  U10504     -0.0478
     43  C40       22.5410   79.1990   54.6810 C.3   504  U10504      0.0260
     44  C41       20.3640   77.9890   55.1900 C.3   504  U10504      0.0260
     45  O2        34.0750   75.2070   25.4760 O.2   504  U10504     -0.2836
     46  O3        34.3650   72.7720   24.8560 O.2   504  U10504     -0.4652
     47  O4        35.7970   71.0840   26.9210 O.2   504  U10504     -0.4652
     48  O5        36.5240   72.5500   29.2610 O.2   504  U10504     -0.2835
@<TRIPOS>BOND
     1     8    46    1
     2    46     3    1
     3    45     2    2
     4     3     2    1
     5     3     4    2
     6     9    47    1
     7     2     1    1
     8    47     4    1
     9     4     5    1
    10     1     7    1
    11     1     6    2
    12     5     6    1
    13     5    48    2
    14     6    10    1
    15    10    11    1
    16    11    12    2
    17    12    13    1
    18    12    14    1
    19    14    15    1
    20    15    16    1
    21    16    17    1
    22    17    18    1
    23    17    19    1
    24    19    20    1
    25    20    21    1
    26    21    22    2
    27    23    22    1
    28    22    24    1
    29    25    24    1
    30    25    26    1
    31    26    27    2
    32    28    27    1
    33    27    29    1
    34    29    30    1
    35    33    32    1
    36    30    31    1
    37    31    32    1
    38    32    34    1
    39    34    35    1
    40    35    36    2
    41    36    37    2
    42    37    38    1
    43    37    39    1
    44    39    40    1
    45    40    41    1
    46    41    42    2
    47    42    43    1
    48    42    44    1
