@<TRIPOS>MOLECULE
3du3_SPN_M_1.pdb
 43 42 0 0 0
SMALL
GASTEIGER

@<TRIPOS>ATOM
      1  CMA       42.6980   83.5860   54.4080 C.3   600  SPN600      0.1745
      2  O1        43.0930   84.7500   55.3060 O.3   600  SPN600     -0.3489
      3  CM1       44.6660   86.5690   56.0170 C.3   600  SPN600      0.0372
      4  CM2       45.5350   84.6700   54.6360 C.3   600  SPN600      0.0372
      5  C1        44.3160   85.5610   54.9160 C.3   600  SPN600      0.1437
      6  C2        43.9130   86.2890   53.6400 C.2   600  SPN600      0.1747
      7  O2        44.7580   86.7250   52.8510 O.2   600  SPN600     -0.2936
      8  C3        42.4660   86.6580   53.3090 C.3   600  SPN600      0.0673
      9  C4        42.3310   87.6630   52.3350 C.3   600  SPN600      0.0122
     10  C5        40.9390   88.2630   52.0650 C.3   600  SPN600      0.0225
     11  CM3       40.0370   88.6740   53.2580 C.3   600  SPN600      0.0047
     12  C6        40.9580   89.0550   50.9110 C.2   600  SPN600     -0.0265
     13  C7        39.6670   89.7090   50.4040 C.2   600  SPN600     -0.0052
     14  C8        39.7640   90.3700   49.1750 C.2   600  SPN600     -0.0088
     15  C9        38.5060   91.0110   48.5900 C.2   600  SPN600     -0.0439
     16  CM4       37.2450   91.2430   49.4520 C.3   600  SPN600      0.0264
     17  C10       38.7480   91.7420   47.4360 C.3   600  SPN600      0.0224
     18  C11       37.5670   92.3550   46.6680 C.3   600  SPN600      0.0087
     19  C12       37.9940   93.0690   45.5430 C.3   600  SPN600      0.0224
     20  C13       36.9500   93.7680   44.6840 C.2   600  SPN600     -0.0439
     21  CM5       35.4690   93.7520   45.1200 C.3   600  SPN600      0.0264
     22  C14       37.4960   94.5380   43.6550 C.2   600  SPN600     -0.0085
     23  C15       36.4800   95.3010   42.8020 C.2   600  SPN600     -0.0007
     24  C16       36.9230   96.1650   41.8100 C.2   600  SPN600     -0.0007
     25  C17       38.3940   96.3650   41.5430 C.2   600  SPN600     -0.0085
     26  C18       38.8380   97.1480   40.4910 C.2   600  SPN600     -0.0439
     27  CM6       38.0100   97.6710   39.3150 C.3   600  SPN600      0.0264
     28  C19       40.3730   97.1810   40.4330 C.3   600  SPN600      0.0220
     29  C20       40.9720   97.7710   39.3320 C.3   600  SPN600      0.0043
     30  C21       42.4950   97.7160   39.3840 C.3   600  SPN600      0.0003
     31  C22       43.2720   98.2370   38.3620 C.3   600  SPN600      0.0000
     32  CM7       42.8090   98.5750   36.9430 C.3   600  SPN600      0.0000
     33  C23       44.7730   98.4420   38.6420 C.3   600  SPN600      0.0000
     34  C24       45.2050   99.8660   38.3550 C.3   600  SPN600      0.0000
     35  C25       46.6710  100.1210   38.7360 C.3   600  SPN600      0.0000
     36  C26       47.1530  101.0090   39.7100 C.3   600  SPN600      0.0003
     37  CM8       46.3450  102.2640   40.0950 C.3   600  SPN600      0.0000
     38  C27       48.6720  101.1830   39.9600 C.3   600  SPN600      0.0046
     39  C28       49.3990  101.2620   38.6230 C.3   600  SPN600      0.0254
     40  C29       50.8980  101.5990   38.7580 C.2   600  SPN600     -0.0346
     41  C30       51.8330  101.4270   37.7210 C.2   600  SPN600     -0.0478
     42  CM9       51.4350  100.8930   36.3270 C.3   600  SPN600      0.0260
     43  CMB       53.3260  101.7860   37.8460 C.3   600  SPN600      0.0260
@<TRIPOS>BOND
     1    42    41    1
     2    32    31    1
     3    41    43    1
     4    41    40    2
     5    34    33    1
     6    34    35    1
     7    31    33    1
     8    31    30    1
     9    39    40    1
    10    39    38    1
    11    35    36    1
    12    27    26    1
    13    29    30    1
    14    29    28    1
    15    36    38    1
    16    36    37    1
    17    28    26    1
    18    26    25    2
    19    25    24    1
    20    24    23    2
    21    23    22    1
    22    22    20    2
    23    20    21    1
    24    20    19    1
    25    19    18    1
    26    18    17    1
    27    17    15    1
    28    15    14    2
    29    15    16    1
    30    14    13    1
    31    13    12    2
    32    12    10    1
    33    10     9    1
    34    10    11    1
    35     9     8    1
    36     7     6    2
    37     8     6    1
    38     6     5    1
    39     1     2    1
    40     4     5    1
    41     5     2    1
    42     5     3    1
