@<TRIPOS>MOLECULE
3du4_PLP_A_1.pdb
 15 15 0 0 0
SMALL
GASTEIGER

@<TRIPOS>ATOM
      1  N1         4.9750    6.2240   18.5160 N.ar  450  PLP450     -0.2452
      2  C2         4.5010    6.8070   17.3580 C.ar  450  PLP450      0.0978
      3  C2A        3.4080    6.1730   16.5600 C.3   450  PLP450      0.0555
      4  C3         5.0230    8.0110   16.9190 C.ar  450  PLP450      0.2049
      5  O3         4.5190    8.5570   15.7730 O.3   450  PLP450     -0.2857
      6  C4         6.0320    8.6570   17.6330 C.ar  450  PLP450      0.0182
      7  C4A        6.4370   10.0320   17.1980 C.3   450  PLP450      0.0342
      8  C5         6.5120    8.0700   18.8020 C.ar  450  PLP450      0.0261
      9  C6         5.9790    6.8550   19.2270 C.ar  450  PLP450      0.0965
     10  C5A        7.6260    8.6650   19.6380 C.3   450  PLP450      0.1815
     11  O4P        7.4080    9.9570   20.1460 O.3   450  PLP450     -0.2653
     12  P          8.7220   10.8150   20.5250 P.3   450  PLP450      0.5329
     13  O1P        9.5250   11.0090   19.2570 O.2   450  PLP450     -0.2224
     14  O2P        9.5960   10.0250   21.4640 O.3   450  PLP450     -0.1145
     15  O3P        8.2830   12.1360   21.0770 O.3   450  PLP450     -0.1145
@<TRIPOS>BOND
     1     5     4    1
     2     3     2    1
     3     4     2   ar
     4     4     6   ar
     5     7     6    1
     6     2     1   ar
     7     6     8   ar
     8     1     9   ar
     9     8     9   ar
    10     8    10    1
    11    13    12    2
    12    10    11    1
    13    11    12    1
    14    12    15    1
    15    12    14    1
