@<TRIPOS>MOLECULE
3du4_KAP_A_1.pdb
 13 12 0 0 0
SMALL
GASTEIGER

@<TRIPOS>ATOM
      1  CA        12.7910    8.4580   11.2620 C.3   451  KAP451      0.1141
      2  C         13.0120    9.5660   10.2570 C.2   451  KAP451      0.3649
      3  OI1       12.0750   10.3640   10.0130 O.co2 451  KAP451     -0.2457
      4  OI2       14.1230    9.6530    9.6880 O.co2 451  KAP451     -0.2457
      5  CB        11.8480    8.9820   12.3440 C.3   451  KAP451      0.0118
      6  CG        11.0400    7.9140   13.0930 C.3   451  KAP451      0.0010
      7  CD         9.6290    8.4590   13.3590 C.3   451  KAP451      0.0078
      8  CE         9.6240    9.9120   13.8610 C.3   451  KAP451      0.0660
      9  CZ         9.7160    9.8690   15.3760 C.2   451  KAP451      0.1679
     10  CH        10.6360   10.7070   16.2110 C.3   451  KAP451      0.1489
     11  CS        11.5620   11.6020   15.3990 C.3   451  KAP451      0.0285
     12  O          9.0210    9.0850   15.9830 O.2   451  KAP451     -0.2946
     13  N         11.4160    9.7860   17.0110 N.3   451  KAP451     -0.1250
@<TRIPOS>BOND
     1     4     2   ar
     2     3     2   ar
     3     2     1    1
     4     1     5    1
     5     5     6    1
     6     6     7    1
     7     7     8    1
     8     8     9    1
     9     9    12    2
    10     9    10    1
    11    11    10    1
    12    10    13    1
