@<TRIPOS>MOLECULE
3du7_CN2_B_1.pdb
 30 32 0 0 0
SMALL
GASTEIGER

@<TRIPOS>ATOM
      1  O4       119.8480   92.2830    7.5660 O.2   700  CN2700     -0.2723
      2  C12      120.3430   91.2740    7.0930 C.2   700  CN2700      0.2535
      3  C13      121.7910   91.2500    6.7320 C.3   700  CN2700      0.1551
      4  S1       121.6060   91.9690    5.0860 S.3   700  CN2700     -0.0718
      5  N1       119.7010   90.1560    6.7940 N.am  700  CN2700     -0.2019
      6  C11      118.2660   89.9120    6.9450 C.3   700  CN2700      0.1179
      7  C14      117.4150   90.7540    6.0350 C.ar  700  CN2700      0.0008
      8  C15      117.6550   92.0970    5.7660 C.ar  700  CN2700      0.0426
      9  C10      117.6300   89.9530    8.3550 C.3   700  CN2700      0.0309
     10  C9       116.1460   89.4670    8.3300 C.3   700  CN2700      0.0287
     11  C8       116.0520   88.2910    7.3760 C.ar  700  CN2700     -0.0160
     12  C7       115.8770   86.9560    7.7550 C.ar  700  CN2700      0.0360
     13  C5       115.8630   85.9380    6.7810 C.ar  700  CN2700      0.1751
     14  C3       116.0110   86.2150    5.4300 C.ar  700  CN2700      0.2060
     15  C1       116.2130   87.5450    5.0500 C.ar  700  CN2700      0.1750
     16  O1       116.3470   87.8490    3.7500 O.3   700  CN2700     -0.4683
     17  C2       115.0980   87.8820    3.0600 C.3   700  CN2700      0.2526
     18  O2       116.0290   85.1820    4.4960 O.3   700  CN2700     -0.4654
     19  C4       114.9430   84.3220    4.1570 C.3   700  CN2700      0.2528
     20  O3       115.6780   84.6320    7.1360 O.3   700  CN2700     -0.4683
     21  C6       114.3290   84.1400    7.1870 C.3   700  CN2700      0.2526
     22  C22      116.2190   88.5890    5.9500 C.ar  700  CN2700      0.0330
     23  C21      116.3990   90.0270    5.5820 C.ar  700  CN2700      0.0005
     24  C20      115.6120   90.6840    4.9320 C.ar  700  CN2700      0.0030
     25  C19      115.2980   91.7290    4.5200 C.ar  700  CN2700      0.0402
     26  C17      115.6370   92.8840    4.2890 C.ar  700  CN2700      0.1774
     27  C16      116.9390   93.1400    4.9190 C.ar  700  CN2700      0.2290
     28  O5       117.4240   94.2500    4.7630 O.2   700  CN2700     -0.2833
     29  O6       114.8700   93.8390    3.5140 O.3   700  CN2700     -0.4682
     30  C18      114.7220   93.6220    2.1130 C.3   700  CN2700      0.2526
@<TRIPOS>BOND
     1    30    29    1
     2    17    16    1
     3    29    26    1
     4    16    15    1
     5    19    18    1
     6    26    25   ar
     7    26    27   ar
     8    18    14    1
     9    25    24   ar
    10    28    27    2
    11    27     8   ar
    12    24    23   ar
    13    15    14   ar
    14    15    22   ar
    15     4     3    1
    16    14    13   ar
    17    23    22    1
    18    23     7   ar
    19     8     7   ar
    20    22    11   ar
    21     7     6    1
    22     3     2    1
    23    13    20    1
    24    13    12   ar
    25     5     6    1
    26     5     2   am
    27     6     9    1
    28     2     1    2
    29    20    21    1
    30    11    12   ar
    31    11    10    1
    32    10     9    1
