@<TRIPOS>MOLECULE
3du7_GDP_D_1.pdb
 28 30 0 0 0
SMALL
GASTEIGER

@<TRIPOS>ATOM
      1  PB        89.9250   72.2610    5.2390 P.3   602  GDP602      0.5373
      2  O1B       91.0070   73.2350    5.6110 O.2   602  GDP602     -0.2221
      3  O2B       90.2280   70.7970    5.6310 O.3   602  GDP602     -0.1143
      4  O3B       88.6120   72.5840    5.9610 O.3   602  GDP602     -0.1143
      5  O3A       89.6470   72.3830    3.6500 O.3   602  GDP602     -0.2261
      6  PA        90.8550   72.5050    2.5690 P.3   602  GDP602      0.2231
      7  O1A       92.1350   72.6900    3.3220 O.3   602  GDP602     -0.4370
      8  O2A       90.8910   71.2680    1.6320 O.2   602  GDP602     -0.5169
      9  O5'       90.5130   73.7880    1.6350 O.3   602  GDP602     -0.3111
     10  C5'       90.1950   73.6840    0.2520 C.3   602  GDP602      0.1813
     11  C4'       90.9400   74.8020   -0.4940 C.3   602  GDP602      0.1799
     12  O4'       92.3250   74.7060   -0.2280 O.3   602  GDP602     -0.3326
     13  C3'       90.7880   74.7570   -2.0240 C.3   602  GDP602      0.2158
     14  O3'       90.8070   76.0710   -2.5630 O.3   602  GDP602     -0.2175
     15  C2'       92.0030   74.0030   -2.5460 C.3   602  GDP602      0.2310
     16  O2'       92.5050   74.4660   -3.8150 O.3   602  GDP602     -0.2158
     17  C1'       92.9860   74.1320   -1.3650 C.3   602  GDP602      0.2293
     18  N9        93.6300   72.8250   -1.0600 N.pl3 602  GDP602     -0.2354
     19  C8        93.0690   71.6600   -0.5860 C.3   602  GDP602      0.2246
     20  N7        94.0630   70.7470   -0.4720 N.2   602  GDP602     -0.2322
     21  C5        95.2270   71.3180   -0.8720 C.2   602  GDP602      0.2182
     22  C6        96.5270   70.8690   -0.9540 C.1   602  GDP602      0.2372
     23  O6        96.8700   70.0650   -0.1020 O.2   602  GDP602     -0.2069
     24  N1        97.5030   71.7170   -1.4100 N.2   602  GDP602     -0.2485
     25  C2        97.2160   72.9920   -1.8010 C.1   602  GDP602      0.2531
     26  N2        97.7020   73.3150   -2.9840 N.pl3 602  GDP602     -0.0226
     27  N3        95.9410   73.4190   -1.6660 N.2   602  GDP602     -0.3074
     28  C4        94.9640   72.6070   -1.2410 C.2   602  GDP602      0.2300
@<TRIPOS>BOND
     1    16    15    1
     2    26    25    1
     3    14    13    1
     4    15    13    1
     5    15    17    1
     6    13    11    1
     7    25    27    2
     8    25    24    2
     9    27    28    2
    10    24    22    2
    11    17    18    1
    12    17    12    1
    13    28    18    1
    14    28    21    1
    15    18    19    1
    16    22    21    1
    17    22    23    2
    18    21    20    2
    19    19    20    1
    20    11    12    1
    21    11    10    1
    22    10     9    1
    23     8     6    2
    24     9     6    1
    25     6     7    1
    26     6     5    1
    27     5     1    1
    28     1     2    2
    29     1     3    1
    30     1     4    1
