@<TRIPOS>MOLECULE
3du7_GTP_D_1.pdb
 32 34 0 0 0
SMALL
GASTEIGER

@<TRIPOS>ATOM
      1  PG       122.6140   92.6620   16.9400 P.3   600  GTP600      0.5373
      2  O1G      123.2970   91.5180   16.3290 O.3   600  GTP600     -0.1143
      3  O2G      122.4820   92.4540   18.4390 O.3   600  GTP600     -0.1143
      4  O3G      121.2450   93.0040   16.3230 O.2   600  GTP600     -0.2221
      5  O3B      123.5980   93.8750   16.7700 O.3   600  GTP600     -0.2258
      6  PB       122.8930   95.2920   16.6800 P.3   600  GTP600      0.2277
      7  O1B      123.5380   96.2110   17.6290 O.3   600  GTP600     -0.4368
      8  O2B      121.3790   95.1920   16.9910 O.2   600  GTP600     -0.5168
      9  O3A      123.3170   95.7020   15.1570 O.3   600  GTP600     -0.2700
     10  PA       124.7170   95.4460   14.3500 P.3   600  GTP600      0.2189
     11  O1A      124.7230   94.1530   13.6140 O.2   600  GTP600     -0.5170
     12  O2A      125.9120   95.6840   15.2930 O.3   600  GTP600     -0.4371
     13  O5'      124.7760   96.6180   13.2550 O.3   600  GTP600     -0.3112
     14  C5'      124.4930   96.4550   11.8810 C.3   600  GTP600      0.1813
     15  C4'      125.2920   97.5200   11.1200 C.3   600  GTP600      0.1799
     16  O4'      126.6300   97.4280   11.5650 O.3   600  GTP600     -0.3326
     17  C3'      125.3130   97.2960    9.6070 C.3   600  GTP600      0.2158
     18  O3'      125.2250   98.5350    8.9480 O.3   600  GTP600     -0.2175
     19  C2'      126.6460   96.6120    9.2890 C.3   600  GTP600      0.2310
     20  O2'      127.2460   97.0360    8.0550 O.3   600  GTP600     -0.2158
     21  C1'      127.4850   96.8450   10.5680 C.3   600  GTP600      0.2293
     22  N9       128.2770   95.6390   10.9980 N.pl3 600  GTP600     -0.2354
     23  C8       127.8830   94.4170   11.4920 C.3   600  GTP600      0.2246
     24  N7       128.9730   93.6390   11.7210 N.2   600  GTP600     -0.2322
     25  C5       130.0660   94.3530   11.3820 C.2   600  GTP600      0.2182
     26  C6       131.4350   94.0940   11.3950 C.1   600  GTP600      0.2372
     27  O6       131.8850   93.0170   11.7710 O.2   600  GTP600     -0.2069
     28  N1       132.3220   95.0540   10.9820 N.2   600  GTP600     -0.2485
     29  C2       131.8400   96.2620   10.5610 C.1   600  GTP600      0.2531
     30  N2       132.6500   97.2190   10.1680 N.pl3 600  GTP600     -0.0226
     31  N3       130.5070   96.5100   10.5340 N.2   600  GTP600     -0.3074
     32  C4       129.6330   95.5830   10.9330 C.2   600  GTP600      0.2300
@<TRIPOS>BOND
     1    20    19    1
     2    18    17    1
     3    19    17    1
     4    19    21    1
     5    17    15    1
     6    30    29    1
     7    31    29    2
     8    31    32    2
     9    29    28    2
    10    21    22    1
    11    21    16    1
    12    32    22    1
    13    32    25    1
    14    28    26    2
    15    22    23    1
    16    15    16    1
    17    15    14    1
    18    25    26    1
    19    25    24    2
    20    26    27    2
    21    23    24    1
    22    14    13    1
    23    13    10    1
    24    11    10    2
    25    10     9    1
    26    10    12    1
    27     9     6    1
    28     4     1    2
    29     2     1    1
    30     6     5    1
    31     6     8    2
    32     6     7    1
    33     5     1    1
    34     1     3    1
