@<TRIPOS>MOLECULE
3du8_553_A_1.pdb
 20 22 0 0 0
SMALL
GASTEIGER

@<TRIPOS>ATOM
      1  O19       24.2990  -14.5920   -9.9540 O.2   553  553553     -0.2222
      2  C15       23.2560  -14.9040  -10.5350 C.1   553  553553      0.1523
      3  N14       22.8830  -14.4080  -11.7280 N.2   553  553553     -0.2020
      4  C13       21.6350  -14.7380  -12.4400 C.3   553  553553      0.1449
      5  C12       20.4430  -15.1650  -11.5560 C.3   553  553553      0.0811
      6  C16       19.7720  -13.9640  -10.8680 C.3   553  553553      0.0472
      7  C17       19.6750  -12.7300  -11.7730 C.3   553  553553      0.1937
      8  F18       18.6550  -12.8840  -12.6980 F     553  553553     -0.2343
      9  C11       20.9570  -15.9750  -10.4300 C.2   553  553553      0.1216
     10  N8        20.3140  -16.8800   -9.6860 N.2   553  553553     -0.4028
     11  C10       22.3240  -15.8580   -9.8900 C.2   553  553553      0.1107
     12  C9        22.4550  -16.7350   -8.8250 C.2   553  553553      0.0486
     13  C7        21.1950  -17.3350   -8.7570 C.2   553  553553      0.1622
     14  C5        20.6080  -18.3080   -7.8070 C.2   553  553553      0.1751
     15  C6        21.2650  -18.5590   -6.5900 C.2   553  553553      0.0572
     16  C1        20.6580  -19.4550   -5.7100 C.2   553  553553      0.1145
     17  N4        19.3790  -18.8690   -8.0540 N.2   553  553553     -0.3325
     18  C3        18.8190  -19.7340   -7.1690 C.1   553  553553      0.1865
     19  N2        19.4580  -20.0110   -5.9990 N.2   553  553553     -0.1673
     20  N20       17.6320  -20.3200   -7.4860 N.pl3 553  553553     -0.0345
@<TRIPOS>BOND
     1     8     7    1
     2     4     3    1
     3     4     5    1
     4     7     6    1
     5     3     2    2
     6     5     6    1
     7     5     9    1
     8     2     1    2
     9     2    11    1
    10     9    11    1
    11     9    10    2
    12    11    12    2
    13    10    13    2
    14    12    13    1
    15    13    14    1
    16    17    14    2
    17    17    18    2
    18    14    15    1
    19    20    18    1
    20    18    19    2
    21    15    16    2
    22    19    16    1
