@<TRIPOS>MOLECULE
3duf_R1T_A_1.pdb
 29 30 0 0 0
SMALL
GASTEIGER

@<TRIPOS>ATOM
      1  N1'        5.0550    9.1680   26.1800 N.2   1370  R1T1370    -0.1862
      2  C2'        4.2010    8.1930   26.5220 C.1   1370  R1T1370     0.0663
      3  CM2        4.7350    6.8110   26.9050 C.3   1370  R1T1370     0.1291
      4  N3'        2.8810    8.4230   26.5360 N.2   1370  R1T1370    -0.3369
      5  C4'        2.3950    9.6300   26.2120 C.2   1370  R1T1370     0.2279
      6  N4'        1.0830    9.8440   26.2120 N.pl3 1370  R1T1370    -0.0925
      7  C5'        3.2620   10.6580   25.8620 C.2   1370  R1T1370     0.0499
      8  C6'        4.6220   10.3730   25.8550 C.2   1370  R1T1370     0.1102
      9  C7'        2.8190   12.0900   25.5570 C.3   1370  R1T1370     0.0583
     10  C3         2.0340   12.1390   24.2460 C.ar  1370  R1T1370    -0.0170
     11  C2         0.6660   12.3880   24.1570 C.ar  1370  R1T1370     0.0330
     12  S1         0.1790   12.3510   22.5150 S.2   1370  R1T1370    -0.0937
     13  C5         1.7490   12.0330   21.9080 C.ar  1370  R1T1370     0.0053
     14  C4         2.6170   11.9470   22.9930 C.ar  1370  R1T1370    -0.0232
     15  CM4        4.1120   11.6640   22.8210 C.3   1370  R1T1370     0.0309
     16  C6         2.0550   11.9560   20.4120 C.3   1370  R1T1370     0.0651
     17  C7         1.3990   10.7180   19.7990 C.3   1370  R1T1370     0.1543
     18  O7         1.6100   10.7510   18.3870 O.3   1370  R1T1370    -0.3134
     19  PA         1.0390    9.5560   17.4760 P.3   1370  R1T1370     0.2230
     20  O1A        1.3670    9.8410   16.0630 O.2   1370  R1T1370    -0.5169
     21  O2A        1.4750    8.2590   18.0410 O.3   1370  R1T1370    -0.4370
     22  O3A       -0.5500    9.6740   17.7190 O.3   1370  R1T1370    -0.2261
     23  PB        -1.3990   10.9780   17.2990 P.3   1370  R1T1370     0.5373
     24  O1B       -1.4370   11.9220   18.6020 O.3   1370  R1T1370    -0.1143
     25  O2B       -2.9070   10.4570   17.0960 O.3   1370  R1T1370    -0.1143
     26  O3B       -0.8640   11.6860   16.1150 O.2   1370  R1T1370    -0.2221
     27  CP1       -0.2620   12.7490   25.3190 C.3   1370  R1T1370     0.1799
     28  CP2       -1.7090   12.7480   24.8210 C.3   1370  R1T1370     0.0410
     29  OP1       -0.0840   11.8180   26.3880 O.3   1370  R1T1370    -0.2178
@<TRIPOS>BOND
     1    20    19    2
     2    26    23    2
     3    25    23    1
     4    23    22    1
     5    23    24    1
     6    19    22    1
     7    19    21    1
     8    19    18    1
     9    18    17    1
    10    17    16    1
    11    16    13    1
    12    13    12   ar
    13    13    14   ar
    14    12    11   ar
    15    15    14    1
    16    14    10   ar
    17    11    10   ar
    18    11    27    1
    19    10     9    1
    20    28    27    1
    21    27    29    1
    22     9     7    1
    23     8     7    2
    24     8     1    1
    25     7     5    1
    26     1     2    2
    27     6     5    1
    28     5     4    2
    29     2     4    2
    30     2     3    1
