@<TRIPOS>MOLECULE
3dug_ARG_A_1.pdb
 12 11 0 0 0
SMALL
GASTEIGER

@<TRIPOS>ATOM
      1  N         42.7700   29.7350  -32.4980 N.3   429  ARG429     -0.1208
      2  CA        44.0000   30.5750  -32.6050 C.3   429  ARG429      0.1944
      3  C         45.1790   29.9140  -31.9140 C.2   429  ARG429      0.3819
      4  O         46.3290   30.0370  -32.3320 O.co2 429  ARG429     -0.2441
      5  CB        43.7660   31.9530  -31.9940 C.3   429  ARG429      0.0343
      6  CG        44.7980   32.9880  -32.3780 C.3   429  ARG429      0.0490
      7  CD        44.3250   34.3600  -31.9930 C.3   429  ARG429      0.2205
      8  NE        44.6840   35.3390  -33.0150 N.pl3 429  ARG429     -0.0865
      9  CZ        45.7100   36.1750  -32.9220 C.cat 429  ARG429      0.5346
     10  NH1       46.4810   36.1640  -31.8490 N.pl3 429  ARG429      0.1354
     11  NH2       45.9630   37.0280  -33.9000 N.pl3 429  ARG429      0.1354
     12  OXT       44.9950   29.2560  -30.8990 O.co2 429  ARG429     -0.2441
@<TRIPOS>BOND
     1    11     9    1
     2     8     9    2
     3     8     7    1
     4     9    10    1
     5     2     1    1
     6     2     5    1
     7     2     3    1
     8     6     5    1
     9     6     7    1
    10     4     3   ar
    11     3    12   ar
