@<TRIPOS>MOLECULE
3duq_SPN_M_1.pdb
 43 42 0 0 0
SMALL
GASTEIGER

@<TRIPOS>ATOM
      1  CMA       42.8610   84.2670   55.6560 C.3   600  SPN600      0.1745
      2  O1        43.7710   85.4750   55.8090 O.3   600  SPN600     -0.3486
      3  CM1       45.8160   86.8020   55.2210 C.3   600  SPN600      0.0376
      4  CM2       45.7430   84.3600   54.6790 C.3   600  SPN600      0.0376
      5  C1        44.9050   85.6390   54.8110 C.3   600  SPN600      0.1476
      6  C2        44.2220   85.9430   53.4850 C.2   600  SPN600      0.1969
      7  O2        44.7950   85.7570   52.4070 O.2   600  SPN600     -0.2889
      8  C3        42.7790   86.6350   53.3650 C.2   600  SPN600      0.0353
      9  C4        42.6530   87.6000   52.3500 C.2   600  SPN600     -0.0231
     10  C5        41.2970   88.3020   52.1480 C.3   600  SPN600      0.0265
     11  CM3       40.5220   88.8440   53.3780 C.3   600  SPN600      0.0050
     12  C6        41.2940   89.0350   50.9540 C.3   600  SPN600      0.0300
     13  C7        40.0260   89.7690   50.5060 C.2   600  SPN600     -0.0304
     14  C8        40.0840   90.3620   49.2390 C.2   600  SPN600     -0.0310
     15  C9        38.8420   91.0790   48.7110 C.3   600  SPN600      0.0220
     16  CM4       37.6920   91.4970   49.6550 C.3   600  SPN600      0.0047
     17  C10       39.0440   91.6950   47.4840 C.3   600  SPN600      0.0090
     18  C11       37.8490   92.3210   46.7490 C.3   600  SPN600      0.0260
     19  C12       38.2360   92.9100   45.5390 C.2   600  SPN600     -0.0304
     20  C13       37.1770   93.6050   44.6950 C.2   600  SPN600     -0.0261
     21  CM5       35.7030   93.5850   45.1550 C.3   600  SPN600      0.0307
     22  C14       37.7050   94.3770   43.6580 C.2   600  SPN600     -0.0046
     23  C15       36.6740   95.1370   42.8210 C.2   600  SPN600     -0.0003
     24  C16       37.0990   96.0010   41.8220 C.2   600  SPN600     -0.0003
     25  C17       38.5640   96.2060   41.5340 C.2   600  SPN600     -0.0046
     26  C18       38.9910   96.9910   40.4750 C.2   600  SPN600     -0.0261
     27  CM6       38.1440   97.5100   39.3120 C.3   600  SPN600      0.0307
     28  C19       40.5250   97.0290   40.3930 C.2   600  SPN600     -0.0304
     29  C20       41.1060   97.6210   39.2840 C.3   600  SPN600      0.0257
     30  C21       42.6300   97.5690   39.3120 C.3   600  SPN600      0.0047
     31  C22       43.3890   98.0930   38.2780 C.3   600  SPN600      0.0003
     32  CM7       42.9030   98.4290   36.8670 C.3   600  SPN600      0.0000
     33  C23       44.8930   98.3020   38.5360 C.3   600  SPN600      0.0000
     34  C24       45.3170   99.7280   38.2430 C.3   600  SPN600      0.0000
     35  C25       46.7870   99.9870   38.6000 C.3   600  SPN600      0.0000
     36  C26       47.2800  100.8770   39.5680 C.3   600  SPN600      0.0003
     37  CM8       46.4750  102.1300   39.9650 C.3   600  SPN600      0.0000
     38  C27       48.8030  101.0560   39.7940 C.3   600  SPN600      0.0046
     39  C28       49.5090  101.1370   38.4480 C.3   600  SPN600      0.0254
     40  C29       51.0090  101.4780   38.5580 C.2   600  SPN600     -0.0346
     41  C30       51.9290  101.3090   37.5080 C.2   600  SPN600     -0.0478
     42  CM9       51.5120  100.7740   36.1210 C.3   600  SPN600      0.0260
     43  CMB       53.4230  101.6730   37.6110 C.3   600  SPN600      0.0260
@<TRIPOS>BOND
     1    42    41    1
     2    32    31    1
     3    41    43    1
     4    41    40    2
     5    34    33    1
     6    34    35    1
     7    31    33    1
     8    31    30    1
     9    39    40    1
    10    39    38    1
    11    35    36    1
    12    29    30    1
    13    29    28    1
    14    27    26    1
    15    36    38    1
    16    36    37    1
    17    28    26    2
    18    26    25    1
    19    25    24    2
    20    24    23    1
    21    23    22    2
    22    22    20    1
    23    20    21    1
    24    20    19    2
    25    19    18    1
    26    18    17    1
    27    17    15    1
    28    15    14    1
    29    15    16    1
    30    14    13    2
    31    13    12    1
    32    12    10    1
    33    10     9    1
    34    10    11    1
    35     9     8    2
    36     7     6    2
    37     8     6    1
    38     6     5    1
    39     4     5    1
    40     5     3    1
    41     5     2    1
    42     1     2    1
