@<TRIPOS>MOLECULE
3duq_U10_L_1.pdb
 48 48 0 0 0
SMALL
GASTEIGER

@<TRIPOS>ATOM
      1  C1        34.9190   75.0690   27.8080 C.2   504  U10504      0.0198
      2  C2        34.3490   74.4260   26.6280 C.2   504  U10504      0.2282
      3  C3        34.5490   73.0050   26.3550 C.2   504  U10504      0.2140
      4  C4        35.2830   72.3180   27.2640 C.2   504  U10504      0.2140
      5  C5        35.8610   72.9360   28.4350 C.2   504  U10504      0.2285
      6  C6        35.6610   74.3620   28.7040 C.2   504  U10504      0.0235
      7  C1M       34.6630   76.5520   28.0180 C.3   504  U10504      0.0343
      8  C3M       34.1690   72.5210   23.7860 C.3   504  U10504      0.2528
      9  C4M       36.7200   70.5800   26.2540 C.3   504  U10504      0.2528
     10  C7        36.3170   74.8980   29.9680 C.3   504  U10504      0.0548
     11  C8        35.4280   75.1380   31.0840 C.2   504  U10504     -0.0298
     12  C9        35.6950   75.0130   32.4440 C.2   504  U10504     -0.0475
     13  C10       37.0490   74.5930   33.0290 C.3   504  U10504      0.0260
     14  C11       34.6450   75.3190   33.5200 C.3   504  U10504      0.0264
     15  C12       34.7770   76.7690   33.9840 C.3   504  U10504      0.0297
     16  C13       34.0540   76.9680   35.2520 C.2   504  U10504     -0.0342
     17  C14       33.2470   78.0950   35.5000 C.2   504  U10504     -0.0478
     18  C15       33.1290   79.1980   34.4100 C.3   504  U10504      0.0260
     19  C16       32.4590   78.4100   36.7490 C.3   504  U10504      0.0263
     20  C17       31.8080   77.2720   37.5100 C.3   504  U10504      0.0297
     21  C18       31.2190   77.7620   38.7570 C.2   504  U10504     -0.0343
     22  C19       30.0660   77.4270   39.4550 C.2   504  U10504     -0.0482
     23  C20       29.1740   76.2070   39.1160 C.3   504  U10504      0.0260
     24  C21       29.5180   78.1690   40.6740 C.3   504  U10504      0.0217
     25  C22       29.6270   79.6780   40.6830 C.3   504  U10504      0.0043
     26  C23       29.2460   80.2030   41.9960 C.3   504  U10504      0.0003
     27  C24       28.4520   81.3220   42.2680 C.3   504  U10504      0.0003
     28  C25       27.5500   81.9220   41.1780 C.3   504  U10504      0.0000
     29  C26       28.3910   82.0320   43.6210 C.3   504  U10504      0.0046
     30  C27       28.6100   81.0980   44.8070 C.3   504  U10504      0.0254
     31  C28       27.3780   80.5490   45.2940 C.2   504  U10504     -0.0342
     32  C29       26.6180   79.4020   45.3190 C.2   504  U10504     -0.0432
     33  C30       27.0380   78.0490   44.6950 C.3   504  U10504      0.0264
     34  C31       25.2430   79.2460   45.9950 C.3   504  U10504      0.0560
     35  C32       25.3350   79.5450   47.4900 C.2   504  U10504      0.0189
     36  C33       24.1770   79.3620   48.2760 C.1   504  U10504     -0.1141
     37  C34       23.3240   78.9970   49.2770 C.2   504  U10504     -0.0096
     38  C35       23.8450   78.1920   50.4850 C.3   504  U10504      0.0347
     39  C36       21.8250   79.3350   49.2950 C.3   504  U10504      0.0344
     40  C37       21.5230   80.4390   50.2900 C.3   504  U10504      0.0303
     41  C38       20.1580   80.9210   50.3350 C.2   504  U10504     -0.0342
     42  C39       19.6690   82.2140   50.5200 C.2   504  U10504     -0.0478
     43  C40       20.5590   83.4640   50.6790 C.3   504  U10504      0.0260
     44  C41       18.1790   82.5750   50.5710 C.3   504  U10504      0.0260
     45  O2        33.6740   75.0010   25.7840 O.2   504  U10504     -0.2836
     46  O3        33.9100   72.5670   25.1370 O.2   504  U10504     -0.4652
     47  O4        35.5690   70.8910   27.0360 O.2   504  U10504     -0.4652
     48  O5        36.5350   72.3630   29.2850 O.2   504  U10504     -0.2835
@<TRIPOS>BOND
     1     8    46    1
     2    46     3    1
     3    45     2    2
     4     9    47    1
     5     3     2    1
     6     3     4    2
     7     2     1    1
     8    47     4    1
     9     4     5    1
    10     1     7    1
    11     1     6    2
    12     5     6    1
    13     5    48    2
    14     6    10    1
    15    10    11    1
    16    11    12    2
    17    12    13    1
    18    12    14    1
    19    14    15    1
    20    15    16    1
    21    18    17    1
    22    16    17    2
    23    17    19    1
    24    19    20    1
    25    20    21    1
    26    21    22    2
    27    23    22    1
    28    22    24    1
    29    24    25    1
    30    25    26    1
    31    28    27    1
    32    26    27    1
    33    27    29    1
    34    29    30    1
    35    33    32    1
    36    30    31    1
    37    31    32    2
    38    32    34    1
    39    34    35    1
    40    35    36    2
    41    36    37    2
    42    37    39    1
    43    37    38    1
    44    39    40    1
    45    40    41    1
    46    41    42    2
    47    42    44    1
    48    42    43    1
