@<TRIPOS>MOLECULE
3dut_HEM_A_1.pdb
 43 50 0 0 0
SMALL
GASTEIGER

@<TRIPOS>ATOM
      1  CHA       -9.6280    4.4420   21.8030 C.2   150  HEM150      0.0000
      2  CHB       -6.2610    2.4550   24.7270 C.2   150  HEM150      0.0000
      3  CHC       -2.8020    5.1960   22.5970 C.2   150  HEM150      0.0000
      4  CHD       -6.2090    7.6100   20.2800 C.2   150  HEM150      0.0000
      5  C1A       -9.0100    3.7120   22.7570 C.2   150  HEM150      0.0000
      6  C2A       -9.6740    2.8110   23.6920 C.2   150  HEM150      0.0000
      7  C3A       -8.7580    2.2600   24.4960 C.2   150  HEM150      0.0000
      8  C4A       -7.4630    2.7700   24.1020 C.2   150  HEM150      0.0000
      9  CMA       -8.9900    1.2260   25.6370 C.3   150  HEM150      0.0000
     10  CAA      -11.2030    2.5320   23.7080 C.3   150  HEM150      0.0000
     11  CBA      -11.5620    1.4180   22.7300 C.3   150  HEM150      0.0000
     12  CGA      -12.9520    0.9050   23.0040 C.2   150  HEM150      0.0000
     13  O1A      -13.9150    1.6760   22.8270 O.co2 150  HEM150      0.0000
     14  O2A      -13.0890   -0.2870   23.4200 O.co2 150  HEM150      0.0000
     15  C1B       -5.0510    3.0830   24.4240 C.ar  150  HEM150      0.0000
     16  C2B       -3.7950    2.8300   25.1030 C.ar  150  HEM150      0.0000
     17  C3B       -2.8340    3.5690   24.5270 C.ar  150  HEM150      0.0000
     18  C4B       -3.4390    4.3160   23.4630 C.ar  150  HEM150      0.0000
     19  CMB       -3.6330    1.8600   26.2870 C.3   150  HEM150      0.0000
     20  CAB       -1.3200    3.6740   24.8530 C.2   150  HEM150      0.0000
     21  CBB       -0.8580    3.6250   26.1060 C.2   150  HEM150      0.0000
     22  C1C       -3.4420    6.1380   21.8610 C.2   150  HEM150      0.0000
     23  C2C       -2.8330    7.3550   21.3850 C.2   150  HEM150      0.0000
     24  C3C       -3.7600    8.0360   20.7020 C.2   150  HEM150      0.0000
     25  C4C       -5.0040    7.2930   20.8050 C.2   150  HEM150      0.0000
     26  CMC       -1.3400    7.6540   21.6150 C.3   150  HEM150      0.0000
     27  CAC       -3.6410    9.4080   20.0250 C.2   150  HEM150      0.0000
     28  CBC       -2.9300   10.4870   20.4800 C.2   150  HEM150      0.0000
     29  C1D       -7.4040    6.9610   20.4950 C.ar  150  HEM150      0.0000
     30  C2D       -8.6580    7.4260   19.9660 C.ar  150  HEM150      0.0000
     31  C3D       -9.7140    6.4610   20.4390 C.ar  150  HEM150      0.0000
     32  C4D       -9.0070    5.4850   21.2050 C.ar  150  HEM150      0.0000
     33  CMD       -8.9330    8.6720   19.1170 C.3   150  HEM150      0.0000
     34  CAD      -11.2190    6.4900   20.1760 C.3   150  HEM150      0.0000
     35  CBD      -11.7350    7.5180   21.1720 C.3   150  HEM150      0.0000
     36  CGD      -13.2460    7.5330   21.1930 C.2   150  HEM150      0.0000
     37  O1D      -13.8810    6.9460   22.1220 O.co2 150  HEM150      0.0000
     38  O2D      -13.8170    8.1900   20.2980 O.co2 150  HEM150      0.0000
     39  NA        -7.6820    3.6960   23.0570 N.2   150  HEM150      0.0000
     40  NB        -4.7700    3.9750   23.4130 N.ar  150  HEM150      0.0000
     41  NC        -4.7600    6.1230   21.4960 N.2   150  HEM150      0.0000
     42  ND        -7.6500    5.7850   21.2310 N.ar  150  HEM150      0.0000
     43 FE         -6.1480    4.6900   22.0710 Fe    150  HEM150      0.0000
@<TRIPOS>BOND
     1    33    30    1
     2    30    31   ar
     3    30    29   ar
     4    27    28    2
     5    27    24    1
     6    34    31    1
     7    34    35    1
     8     4    29    2
     9     4    25    1
    10    38    36   ar
    11    31    32   ar
    12    29    42   ar
    13    24    25    1
    14    24    23    2
    15    25    41    2
    16    35    36    1
    17    36    37   ar
    18    32    42   ar
    19    32     1    2
    20    42    43    1
    21    23    26    1
    22    23    22    1
    23    41    22    1
    24    41    43    1
    25     1     5    1
    26    22     3    2
    27    43    39    1
    28    43    40    1
    29     3    18    1
    30    11    12    1
    31    11    10    1
    32     5    39    2
    33     5     6    1
    34    13    12   ar
    35    12    14   ar
    36    39     8    1
    37    40    18   ar
    38    40    15   ar
    39    18    17   ar
    40     6    10    1
    41     6     7    2
    42     8     7    1
    43     8     2    2
    44    15     2    1
    45    15    16   ar
    46     7     9    1
    47    17    20    1
    48    17    16   ar
    49    20    21    2
    50    16    19    1
