@<TRIPOS>MOLECULE
3duv_KDO_A_1.pdb
 16 16 0 0 0
SMALL
GASTEIGER

@<TRIPOS>ATOM
      1  C1       -11.3000   74.9370  115.1150 C.2   263  KDO263      0.4179
      2  O1A      -10.3680   74.4810  115.8120 O.co2 263  KDO263     -0.2401
      3  O1B      -11.8670   74.3410  114.1740 O.co2 263  KDO263     -0.2401
      4  C2       -11.8190   76.3320  115.4680 C.3   263  KDO263      0.3156
      5  O2       -12.5990   76.5000  116.6550 O.3   263  KDO263     -0.1830
      6  C3       -12.2470   77.2980  114.3570 C.3   263  KDO263      0.1064
      7  C4       -11.2090   77.3660  113.2330 C.3   263  KDO263      0.1902
      8  O4       -11.6250   78.3140  112.2450 O.3   263  KDO263     -0.2201
      9  C5        -9.8620   77.8020  113.8080 C.3   263  KDO263      0.2118
     10  O5        -9.9630   79.1460  114.2890 O.3   263  KDO263     -0.2177
     11  C6        -9.5310   76.8880  114.9870 C.3   263  KDO263      0.1838
     12  O6       -10.6070   76.9400  115.9370 O.3   263  KDO263     -0.3212
     13  C7        -8.2220   77.3620  115.6200 C.3   263  KDO263      0.2143
     14  O7        -7.1640   77.2170  114.6690 O.3   263  KDO263     -0.2176
     15  C8        -7.9020   76.5420  116.8710 C.3   263  KDO263      0.2174
     16  O8        -7.8850   75.1520  116.5350 O.3   263  KDO263     -0.2175
@<TRIPOS>BOND
     1     8     7    1
     2     7     9    1
     3     7     6    1
     4     9    10    1
     5     9    11    1
     6     3     1   ar
     7     6     4    1
     8    14    13    1
     9    11    13    1
    10    11    12    1
    11     1     4    1
    12     1     2   ar
    13     4    12    1
    14     4     5    1
    15    13    15    1
    16    16    15    1
