@<TRIPOS>MOLECULE
3duw_SAH_A_1.pdb
 26 28 0 0 0
SMALL
GASTEIGER

@<TRIPOS>ATOM
      1  N         38.5850   37.6960   34.3190 N.3   224  SAH224     -0.1208
      2  CA        39.8470   38.1820   33.6480 C.3   224  SAH224      0.1952
      3  CB        39.5710   39.3970   32.8270 C.3   224  SAH224      0.0422
      4  CG        38.5820   39.2730   31.6920 C.3   224  SAH224      0.0597
      5  SD        38.1950   40.9590   31.0510 S.3   224  SAH224     -0.1375
      6  C         40.8630   38.5750   34.7720 C.2   224  SAH224      0.3819
      7  O         40.4960   38.5140   35.9490 O.co2 224  SAH224     -0.2441
      8  OXT       42.0330   38.9360   34.3900 O.co2 224  SAH224     -0.2441
      9  C5'       36.8240   40.5710   30.0400 C.3   224  SAH224      0.0899
     10  C4'       37.2450   39.6320   28.8090 C.3   224  SAH224      0.1630
     11  O4'       35.9890   39.4430   28.1610 O.3   224  SAH224     -0.3153
     12  C3'       38.1170   40.2660   27.7350 C.3   224  SAH224      0.2168
     13  O3'       39.3410   39.5510   27.5470 O.3   224  SAH224     -0.2175
     14  C2'       37.1660   40.2630   26.4720 C.3   224  SAH224      0.2569
     15  O2'       37.8730   40.1620   25.2450 O.3   224  SAH224     -0.2130
     16  C1'       36.2560   39.0890   26.7700 C.3   224  SAH224      0.3185
     17  N9        35.0940   39.0280   26.1020 N.pl3 224  SAH224     -0.1439
     18  C8        34.1890   39.9940   25.6960 C.3   224  SAH224      0.3377
     19  N7        33.1540   39.5470   25.0580 N.2   224  SAH224     -0.2095
     20  C5        33.3490   38.1440   25.0150 C.2   224  SAH224      0.2526
     21  C6        32.5440   37.0920   24.4440 C.2   224  SAH224      0.4393
     22  N6        31.3830   37.3010   23.8090 N.pl3 224  SAH224      0.2180
     23  N1        33.0520   35.8270   24.5950 N.2   224  SAH224      0.0021
     24  C2        34.2300   35.5650   25.2340 C.3   224  SAH224      0.5254
     25  N3        35.0280   36.5430   25.7910 N.2   224  SAH224     -0.0055
     26  C4        34.5270   37.8050   25.6440 C.2   224  SAH224      0.3518
@<TRIPOS>BOND
     1    22    21    1
     2    21    23    2
     3    21    20    1
     4    23    24    1
     5    20    19    2
     6    20    26    1
     7    19    18    1
     8    24    25    1
     9    15    14    1
    10    26    25    2
    11    26    17    1
    12    18    17    1
    13    17    16    1
    14    14    16    1
    15    14    12    1
    16    16    11    1
    17    13    12    1
    18    12    10    1
    19    11    10    1
    20    10     9    1
    21     9     5    1
    22     5     4    1
    23     4     3    1
    24     3     2    1
    25     2     1    1
    26     2     6    1
    27     8     6   ar
    28     6     7   ar
