@<TRIPOS>MOLECULE
3dux_64U_H_1.pdb
 27 29 0 0 0
SMALL
GASTEIGER

@<TRIPOS>ATOM
      1  C11       19.2230  -14.1140   24.5550 C.3   901  64U901      0.0019
      2  C12       19.4910  -13.7480   26.0370 C.3   901  64U901      0.0001
      3  C13       20.8000  -12.9330   26.1570 C.3   901  64U901      0.0000
      4  C16       21.9860  -13.7640   25.5820 C.3   901  64U901      0.0000
      5  C17       21.7380  -14.0550   24.0710 C.3   901  64U901      0.0000
      6  C18       20.4160  -14.8770   23.9260 C.3   901  64U901      0.0001
      7  N         16.1710  -15.9180   23.2080 N.3   901  64U901     -0.1231
      8  C15       17.3660  -15.0440   23.0940 C.3   901  64U901      0.1681
      9  C1        17.9320  -14.9390   24.5340 C.3   901  64U901      0.0284
     10  C14       17.0830  -13.6790   22.5060 C.2   901  64U901      0.2471
     11  O32       16.1630  -13.0030   22.9900 O.2   901  64U901     -0.2730
     12  N1        17.7750  -13.1570   21.4440 N.am  901  64U901     -0.2492
     13  C5        17.4290  -11.8450   20.9360 C.3   901  64U901      0.1619
     14  C7        15.9810  -11.7680   20.4910 C.2   901  64U901      0.2604
     15  O22       15.4240  -12.6860   19.9010 O.2   901  64U901     -0.2715
     16  C2        18.3990  -11.6260   19.7770 C.3   901  64U901      0.0570
     17  C3        19.3320  -12.8270   19.7330 C.2   901  64U901     -0.0077
     18  C4        18.8890  -13.8440   20.7900 C.2   901  64U901      0.0634
     19  N23       15.3670  -10.6120   20.8330 N.am  901  64U901     -0.1991
     20  C24       14.0480  -10.3120   20.2910 C.3   901  64U901      0.1415
     21  C25       13.0700  -10.3010   21.4780 C.ar  901  64U901      0.0003
     22  C26       12.1820  -11.3530   21.6650 C.ar  901  64U901     -0.0025
     23  C27       11.2970  -11.3430   22.7390 C.ar  901  64U901      0.0006
     24  C28       11.2870  -10.2800   23.6420 C.ar  901  64U901      0.0114
     25  C29       12.1770   -9.2260   23.4530 C.ar  901  64U901      0.0574
     26  C30       13.0740   -9.2230   22.3770 C.ar  901  64U901      0.0088
     27 CL21       12.1650   -7.9020   24.5830 Cl    901  64U901     -0.0823
@<TRIPOS>BOND
     1    17    16    1
     2    17    18    2
     3    16    13    1
     4    15    14    2
     5    20    19    1
     6    20    21    1
     7    14    19   am
     8    14    13    1
     9    18    12    1
    10    13    12    1
    11    12    10   am
    12    21    22   ar
    13    21    26   ar
    14    22    23   ar
    15    26    25   ar
    16    10    11    2
    17    10     8    1
    18    23    24   ar
    19     8     7    1
    20     8     9    1
    21    25    24   ar
    22    25    27    1
    23     6     5    1
    24     6     1    1
    25     5     4    1
    26     9     1    1
    27     1     2    1
    28     4     3    1
    29     2     3    1
