@<TRIPOS>MOLECULE
3duy_AFJ_A_1.pdb
 33 32 0 0 0
SMALL
GASTEIGER

@<TRIPOS>ATOM
      1  S1        23.9040    4.8680   16.1720 S.3   501  AFJ501     -0.1393
      2  C2        25.4990    5.0830   17.0310 C.3   501  AFJ501      0.0599
      3  C5        26.5190    5.8000   16.1070 C.3   501  AFJ501      0.0427
      4  C8        27.9370    5.9450   16.7470 C.3   501  AFJ501      0.1736
      5  N10       27.9500    7.0180   17.7500 N.am  501  AFJ501     -0.1977
      6  C12       27.7520    6.8110   19.0820 C.2   501  AFJ501      0.2418
      7  O13       27.5450    5.7110   19.5890 O.2   501  AFJ501     -0.2733
      8  C14       27.7930    8.0430   19.9580 C.3   501  AFJ501      0.0868
      9  C17       29.0150    8.0950   20.9190 C.3   501  AFJ501      0.0096
     10  C20       30.3870    8.4210   20.2540 C.3   501  AFJ501      0.0005
     11  C22       31.5580    7.8190   21.0780 C.3   501  AFJ501      0.0000
     12  C26       30.5880    9.9570   20.1720 C.3   501  AFJ501      0.0000
     13  C30       29.0190    6.2190   15.7180 C.2   501  AFJ501      0.2613
     14  O31       28.7180    6.5750   14.5780 O.2   501  AFJ501     -0.2715
     15  N32       30.3100    6.0520   16.1160 N.am  501  AFJ501     -0.2031
     16  C34       31.4620    6.2870   15.2300 C.3   501  AFJ501      0.1256
     17  C36       32.0930    4.9250   14.8010 C.3   501  AFJ501      0.1722
     18  O38       32.7860    4.3010   15.8980 O.3   501  AFJ501     -0.2213
     19  C40       31.1290    3.9220   14.0810 C.3   501  AFJ501      0.0438
     20  C43       31.7960    2.9880   13.0270 C.3   501  AFJ501      0.0808
     21  C45       30.9660    1.6830   12.9020 C.3   501  AFJ501      0.0097
     22  C49       31.8860    3.6190   11.6490 C.2   501  AFJ501      0.2410
     23  O50       30.9540    4.2930   11.2260 O.2   501  AFJ501     -0.2734
     24  N51       33.0170    3.3960   10.9450 N.am  501  AFJ501     -0.2054
     25  C53       33.2180    3.9330    9.6050 C.3   501  AFJ501      0.1151
     26  C56       34.4680    3.3380    8.9220 C.3   501  AFJ501      0.0234
     27  C59       34.4180    3.5570    7.3930 C.3   501  AFJ501      0.0018
     28  C62       34.7520    5.0090    6.9950 C.3   501  AFJ501      0.0001
     29  C66       32.4500    7.3220   15.8550 C.3   501  AFJ501      0.0243
     30  C69       31.8260    8.7150   16.2030 C.3   501  AFJ501      0.0018
     31  C71       31.4770    9.5620   14.9450 C.3   501  AFJ501      0.0001
     32  C75       32.8010    9.5140   17.1150 C.3   501  AFJ501      0.0001
     33  C79       22.7940    4.7770   17.6100 C.3   501  AFJ501      0.0692
@<TRIPOS>BOND
     1    28    27    1
     2    27    26    1
     3    26    25    1
     4    25    24    1
     5    24    22   am
     6    23    22    2
     7    22    20    1
     8    21    20    1
     9    20    19    1
    10    19    17    1
    11    14    13    2
    12    17    16    1
    13    17    18    1
    14    31    30    1
    15    16    29    1
    16    16    15    1
    17    13    15   am
    18    13     4    1
    19    29    30    1
    20     3     4    1
    21     3     2    1
    22     1     2    1
    23     1    33    1
    24    30    32    1
    25     4     5    1
    26     5     6   am
    27     6     7    2
    28     6     8    1
    29     8     9    1
    30    12    10    1
    31    10     9    1
    32    10    11    1
