@<TRIPOS>MOLECULE
3dv0_TPW_A_1.pdb
 26 27 0 0 0
SMALL
GASTEIGER

@<TRIPOS>ATOM
      1  C2A        4.0450    6.5250   26.6250 C.3   1370  TPW1370     0.1291
      2  C35        2.3600   11.7940   24.9730 C.3   1370  TPW1370     0.0585
      3  C2         0.2500   11.9110   23.6090 C.ar  1370  TPW1370     0.0309
      4  S1        -0.2560   11.8870   21.9800 S.2   1370  TPW1370    -0.0913
      5  C5         1.3140   11.7110   21.3230 C.ar  1370  TPW1370     0.0056
      6  C4         2.1850   11.6820   22.4060 C.ar  1370  TPW1370    -0.0229
      7  C4A        3.7000   11.5560   22.2340 C.3   1370  TPW1370     0.0309
      8  C5A        1.5880   11.5760   19.8250 C.3   1370  TPW1370     0.0651
      9  C5B        1.0380   10.2490   19.2960 C.3   1370  TPW1370     0.1543
     10  O5G        1.0850   10.2740   17.8680 O.3   1370  TPW1370    -0.3134
     11  P1         0.4330    9.0680   17.0260 P.3   1370  TPW1370     0.2230
     12  O11       -1.1410    9.2110   17.3490 O.3   1370  TPW1370    -0.2261
     13  O12        0.6840    9.3070   15.5890 O.2   1370  TPW1370    -0.5169
     14  O13        0.8810    7.7830   17.6060 O.3   1370  TPW1370    -0.4370
     15  P2        -2.0040   10.5070   16.9350 P.3   1370  TPW1370     0.5373
     16  O21       -1.1230   11.3430   15.8790 O.2   1370  TPW1370    -0.2221
     17  O22       -2.4120   11.3190   18.1030 O.3   1370  TPW1370    -0.1143
     18  O23       -3.2720    9.9570   16.1120 O.3   1370  TPW1370    -0.1143
     19  N1'        4.4340    8.7680   25.6310 N.2   1370  TPW1370    -0.1862
     20  C2'        3.5580    7.8950   26.1470 C.1   1370  TPW1370     0.0663
     21  N3'        2.2670    8.2270   26.2810 N.2   1370  TPW1370    -0.3369
     22  C4'        1.8310    9.4390   25.9100 C.2   1370  TPW1370     0.2279
     23  N4'        0.5450    9.7460   26.0530 N.pl3 1370  TPW1370    -0.0925
     24  C5'        2.7220   10.3630   25.3800 C.2   1370  TPW1370     0.0499
     25  C6'        4.0500    9.9730   25.2510 C.2   1370  TPW1370     0.1102
     26  C3         1.5780   11.7920   23.6590 C.ar  1370  TPW1370    -0.0149
@<TRIPOS>BOND
     1    13    11    2
     2    16    15    2
     3    18    15    1
     4    15    12    1
     5    15    17    1
     6    11    12    1
     7    11    14    1
     8    11    10    1
     9    10     9    1
    10     9     8    1
    11     8     5    1
    12     5     4   ar
    13     5     6   ar
    14     4     3   ar
    15     7     6    1
    16     6    26   ar
    17     3    26   ar
    18    26     2    1
    19     2    24    1
    20    25    24    2
    21    25    19    1
    22    24    22    1
    23    19    20    2
    24    22    23    1
    25    22    21    2
    26    20    21    2
    27    20     1    1
