@<TRIPOS>MOLECULE
3dv1_AR9_A_1.pdb
 31 31 0 0 0
SMALL
GASTEIGER

@<TRIPOS>ATOM
      1  N1        30.2780    6.1680   16.1530 N.2   501  AR9501     -0.2041
      2  C3        31.3230    6.4560   15.1800 C.3   501  AR9501      0.1447
      3  C5        32.3640    7.3660   15.9020 C.3   501  AR9501      0.0278
      4  C8        31.7050    8.7570   16.1610 C.3   501  AR9501      0.0020
      5  C10       32.5680    9.5910   17.1470 C.3   501  AR9501      0.0001
      6  C13       32.3670    9.0960   18.5910 C.3   501  AR9501      0.0000
      7  C16       31.2010    9.8610   19.2110 C.3   501  AR9501      0.0000
      8  C19       30.9680    9.4240   20.6960 C.3   501  AR9501      0.0000
      9  C22       29.8610    8.3500   20.7720 C.3   501  AR9501      0.0012
     10  C25       28.6230    8.9690   20.1150 C.3   501  AR9501      0.0176
     11  C28       27.4380    8.0290   20.1090 C.3   501  AR9501      0.1217
     12  C31       27.5710    6.8730   19.1500 C.1   501  AR9501      0.1269
     13  N32       27.9460    7.1350   17.8630 N.2   501  AR9501     -0.1913
     14  C34       28.0080    6.0150   16.9000 C.3   501  AR9501      0.2191
     15  C36       28.9810    6.3180   15.8050 C.1   501  AR9501      0.1491
     16  O37       28.6100    6.6670   14.6830 O.2   501  AR9501     -0.2251
     17  C38       26.5760    5.8380   16.3420 C.3   501  AR9501      0.0455
     18  O42       27.3280    5.7550   19.5810 O.2   501  AR9501     -0.2270
     19  C43       31.6520    9.5150   14.8030 C.3   501  AR9501      0.0001
     20  C47       31.9740    5.1550   14.6640 C.3   501  AR9501      0.1755
     21  O49       32.6100    4.4580   15.7470 O.3   501  AR9501     -0.2210
     22  C51       30.9060    4.2010   14.0630 C.3   501  AR9501      0.0441
     23  C54       31.6250    3.2060   13.1350 C.3   501  AR9501      0.0808
     24  C56       30.8100    1.8980   13.0480 C.3   501  AR9501      0.0097
     25  C60       31.6660    3.7310   11.7080 C.2   501  AR9501      0.2410
     26  O61       30.7560    4.4310   11.2930 O.2   501  AR9501     -0.2734
     27  N62       32.7300    3.3850   10.9810 N.am  501  AR9501     -0.2054
     28  C64       32.8420    3.8090    9.5900 C.3   501  AR9501      0.1151
     29  C67       34.2010    3.2980    9.0660 C.3   501  AR9501      0.0234
     30  C70       34.3310    3.4770    7.5290 C.3   501  AR9501      0.0018
     31  C73       34.4690    4.9720    7.1620 C.3   501  AR9501      0.0001
@<TRIPOS>BOND
     1    31    30    1
     2    30    29    1
     3    29    28    1
     4    28    27    1
     5    27    25   am
     6    26    25    2
     7    25    23    1
     8    24    23    1
     9    23    22    1
    10    22    20    1
    11    20     2    1
    12    20    21    1
    13    16    15    2
    14    19     4    1
    15     2     3    1
    16     2     1    1
    17    15     1    2
    18    15    14    1
    19     3     4    1
    20     4     5    1
    21    17    14    1
    22    14    13    1
    23     5     6    1
    24    13    12    2
    25     6     7    1
    26    12    18    2
    27    12    11    1
    28     7     8    1
    29    11    10    1
    30    10     9    1
    31     8     9    1
