@<TRIPOS>MOLECULE
3dv3_MEK_A_1.pdb
 29 30 0 0 0
SMALL
GASTEIGER

@<TRIPOS>ATOM
      1  N1        40.5810  -11.4150   -0.5210 N.am  9001  MEK9001    -0.0577
      2  C4        41.7600  -17.9330    2.9260 C.ar  9001  MEK9001     0.0324
      3  C5        41.9500  -16.7280    3.5940 C.ar  9001  MEK9001     0.0368
      4  C6        41.2620  -15.5920    3.2360 C.ar  9001  MEK9001     0.1556
      5  C7        38.9950  -13.0670    0.2000 C.ar  9001  MEK9001     0.0745
      6  C8        38.1240  -12.7490   -0.7950 C.ar  9001  MEK9001     0.0065
      7  C10       36.9130  -14.7080   -0.3610 C.ar  9001  MEK9001     0.1670
      8  C13       40.0780  -12.1010    0.4580 C.2   9001  MEK9001     0.2914
      9  C15       42.0190   -8.3190    0.5070 C.3   9001  MEK9001     0.2167
     10  C17       37.2810  -13.7500   -4.0060 C.3   9001  MEK9001     0.1781
     11  F3        35.8980  -15.4700   -0.6760 F     9001  MEK9001    -0.2020
     12  C9        37.0840  -13.5800   -1.0770 C.ar  9001  MEK9001     0.0372
     13  C16       36.1120  -13.2480   -2.1610 C.3   9001  MEK9001     0.1710
     14  O4        36.7540  -12.6930   -3.2630 O.3   9001  MEK9001    -0.3461
     15  C18       38.1880  -13.1610   -5.0440 C.3   9001  MEK9001     0.2140
     16  O5        37.3840  -12.4200   -5.9280 O.3   9001  MEK9001    -0.2176
     17  C11       37.7760  -15.0290    0.6450 C.ar  9001  MEK9001     0.1824
     18  F2        37.5690  -16.1350    1.3130 F     9001  MEK9001    -0.2004
     19  C12       38.8410  -14.2150    0.9300 C.ar  9001  MEK9001     0.1046
     20  N2        39.7290  -14.4570    1.9050 N.pl3 9001  MEK9001    -0.2077
     21  C1        40.3670  -15.6020    2.2060 C.ar  9001  MEK9001     0.0979
     22  F1        41.4660  -14.4630    3.8740 F     9001  MEK9001    -0.2028
     23  C2        40.1650  -16.7800    1.5340 C.ar  9001  MEK9001     0.0192
     24  C3        40.8380  -17.9180    1.8850 C.ar  9001  MEK9001     0.0073
     25  I1        42.7770  -19.6850    3.4550 I     9001  MEK9001    -0.0424
     26  O1        40.4330  -11.9100    1.5670 O.2   9001  MEK9001    -0.2661
     27  O2        41.5500  -10.5280   -0.2500 O.3   9001  MEK9001    -0.2409
     28  C14       41.4740   -9.1590   -0.6240 C.3   9001  MEK9001     0.2088
     29  O3        41.1550   -8.3990    1.6250 O.3   9001  MEK9001    -0.2175
@<TRIPOS>BOND
     1    16    15    1
     2    15    10    1
     3    10    14    1
     4    14    13    1
     5    13    12    1
     6    12     6   ar
     7    12     7   ar
     8     6     5   ar
     9    11     7    1
    10    28    27    1
    11    28     9    1
    12     1    27    1
    13     1     8   am
    14     7    17   ar
    15     5     8    1
    16     5    19   ar
    17     8    26    2
    18     9    29    1
    19    17    19   ar
    20    17    18    1
    21    19    20    1
    22    23    24   ar
    23    23    21   ar
    24    24     2   ar
    25    20    21    1
    26    21     4   ar
    27     2    25    1
    28     2     3   ar
    29     4     3   ar
    30     4    22    1
