@<TRIPOS>MOLECULE
3dv3_ATP_A_1.pdb
 31 33 0 0 0
SMALL
GASTEIGER

@<TRIPOS>ATOM
      1  PG        44.9740   -6.7380   -2.2390 P.3   9000  ATP9000     0.5373
      2  O1G       44.5110   -7.9020   -3.0100 O.3   9000  ATP9000    -0.1143
      3  O2G       44.1020   -6.4420   -1.1040 O.3   9000  ATP9000    -0.1143
      4  O3G       45.3260   -5.5630   -3.0370 O.2   9000  ATP9000    -0.2221
      5  PB        46.9720   -8.0910   -0.6720 P.3   9000  ATP9000     0.2277
      6  O1B       46.5490   -9.4800   -0.8720 O.2   9000  ATP9000    -0.5168
      7  O2B       48.3550   -7.7160   -0.6320 O.3   9000  ATP9000    -0.4368
      8  O3B       46.4360   -7.1300   -1.7670 O.3   9000  ATP9000    -0.2258
      9  PA        45.7180   -8.5790    1.7700 P.3   9000  ATP9000     0.2189
     10  O1A       44.8200   -7.7910    2.5610 O.3   9000  ATP9000    -0.4371
     11  O2A       45.2100   -9.8270    1.1980 O.2   9000  ATP9000    -0.5170
     12  O3A       46.2760   -7.6620    0.6400 O.3   9000  ATP9000    -0.2700
     13  O5'       46.9620   -8.9250    2.6320 O.3   9000  ATP9000    -0.3112
     14  C5'       47.9430   -7.9760    2.9580 C.3   9000  ATP9000     0.1813
     15  C4'       49.2860   -8.5930    3.2760 C.3   9000  ATP9000     0.1821
     16  O4'       49.2380   -9.3450    4.4660 O.3   9000  ATP9000    -0.3135
     17  C3'       49.7500   -9.5590    2.2390 C.3   9000  ATP9000     0.2184
     18  O3'       50.5950   -8.9240    1.3130 O.3   9000  ATP9000    -0.2174
     19  C2'       50.6160  -10.4890    3.0200 C.3   9000  ATP9000     0.2570
     20  O2'       51.9090   -9.9550    2.9180 O.3   9000  ATP9000    -0.2130
     21  C1'       50.1770  -10.3840    4.4450 C.3   9000  ATP9000     0.3186
     22  N9        49.4910  -11.6180    4.8350 N.pl3 9000  ATP9000    -0.1439
     23  C8        48.2570  -11.9020    4.5040 C.3   9000  ATP9000     0.3377
     24  N7        47.8880  -13.0770    4.9900 N.2   9000  ATP9000    -0.2095
     25  C5        48.9060  -13.5780    5.6610 C.2   9000  ATP9000     0.2526
     26  C6        49.1880  -14.8050    6.4230 C.2   9000  ATP9000     0.4393
     27  N6        48.2740  -15.7480    6.5680 N.pl3 9000  ATP9000     0.2180
     28  N1        50.3830  -14.9460    6.9680 N.2   9000  ATP9000     0.0021
     29  C2        51.3070  -14.0230    6.8270 C.3   9000  ATP9000     0.5254
     30  N3        51.1250  -12.9030    6.1600 N.2   9000  ATP9000    -0.0055
     31  C4        49.9680  -12.6100    5.5590 C.2   9000  ATP9000     0.3518
@<TRIPOS>BOND
     1     4     1    2
     2     2     1    1
     3     1     8    1
     4     1     3    1
     5     8     5    1
     6     6     5    2
     7     5     7    1
     8     5    12    1
     9    12     9    1
    10    11     9    2
    11    18    17    1
    12     9    10    1
    13     9    13    1
    14    17    19    1
    15    17    15    1
    16    13    14    1
    17    20    19    1
    18    14    15    1
    19    19    21    1
    20    15    16    1
    21    21    16    1
    22    21    22    1
    23    23    22    1
    24    23    24    1
    25    22    31    1
    26    24    25    2
    27    31    25    1
    28    31    30    2
    29    25    26    1
    30    30    29    1
    31    26    27    1
    32    26    28    2
    33    29    28    1
