@<TRIPOS>MOLECULE
3dv5_BAV_A_1.pdb
 35 36 0 0 0
SMALL
GASTEIGER

@<TRIPOS>ATOM
      1  N1        27.3080    6.5180   16.8590 N.am  501  BAV501     -0.2657
      2  C2        27.3450    5.4120   15.9210 C.3   501  BAV501      0.1823
      3  C4        28.4650    5.6510   14.9550 C.1   501  BAV501      0.1441
      4  N5        29.7200    5.7230   15.4620 N.2   501  BAV501     -0.2043
      5  C7        30.8710    5.9170   14.5620 C.3   501  BAV501      0.1462
      6  C9        31.8550    6.8270   15.3360 C.3   501  BAV501      0.0278
      7  C12       31.1400    8.1530   15.8080 C.3   501  BAV501      0.0020
      8  C14       32.2520    9.0140   16.4350 C.3   501  BAV501      0.0001
      9  C17       31.7310   10.3030   17.1290 C.3   501  BAV501      0.0000
     10  C20       30.7020   10.0510   18.2430 C.3   501  BAV501      0.0000
     11  C23       31.2710    9.1130   19.3320 C.3   501  BAV501      0.0000
     12  C26       30.3860    9.1930   20.6230 C.3   501  BAV501      0.0000
     13  C29       28.8680    8.9940   20.3280 C.3   501  BAV501      0.0005
     14  C32       28.6300    7.6050   19.6310 C.3   501  BAV501      0.0096
     15  C35       27.1080    7.3890   19.2320 C.3   501  BAV501      0.0853
     16  C38       27.0930    6.2370   18.1990 C.2   501  BAV501      0.2264
     17  O39       26.8830    5.0960   18.6070 O.2   501  BAV501     -0.2748
     18  C40       30.4730    8.9090   14.5690 C.3   501  BAV501      0.0001
     19  C44       31.5880    4.5730   14.2720 C.3   501  BAV501      0.1922
     20  O46       32.8220    4.8200   13.5960 O.3   501  BAV501     -0.2195
     21  C48       30.7210    3.6020   13.4430 C.3   501  BAV501      0.1239
     22  N51       31.4290    2.3110   13.1910 N.3   501  BAV501     -0.2105
     23  C53       30.7960    1.5220   12.0900 C.3   501  BAV501      0.1151
     24  C56       30.7310    2.2940   10.7270 C.ar  501  BAV501     -0.0051
     25  C57       31.8930    2.8580   10.1620 C.ar  501  BAV501     -0.0072
     26  C59       31.8330    3.5250    8.9150 C.ar  501  BAV501     -0.0228
     27  C60       30.6090    3.6510    8.2380 C.ar  501  BAV501     -0.0043
     28  C62       29.4550    3.0950    8.8070 C.ar  501  BAV501     -0.0006
     29  C64       29.4990    2.4210   10.0530 C.ar  501  BAV501     -0.0029
     30  C66       33.0540    4.1100    8.2650 C.3   501  BAV501      0.0223
     31  C68       34.0950    2.9830    8.0840 C.3   501  BAV501      0.0047
     32  C72       33.6620    5.2340    9.1090 C.3   501  BAV501      0.0047
     33  O76       28.2100    5.7650   13.7730 O.2   501  BAV501     -0.2254
     34  C77       25.9740    5.2100   15.1840 C.3   501  BAV501      0.0399
     35  C81       27.4650    7.9260   16.4010 C.3   501  BAV501      0.1158
@<TRIPOS>BOND
     1    31    30    1
     2    27    28   ar
     3    27    26   ar
     4    30    26    1
     5    30    32    1
     6    28    29   ar
     7    26    25   ar
     8    29    24   ar
     9    25    24   ar
    10    24    23    1
    11    23    22    1
    12    22    21    1
    13    21    19    1
    14    20    19    1
    15    33     3    2
    16    19     5    1
    17     5     6    1
    18     5     4    1
    19    18     7    1
    20     3     4    2
    21     3     2    1
    22    34     2    1
    23     6     7    1
    24     7     8    1
    25     2     1    1
    26    35     1    1
    27     8     9    1
    28     1    16   am
    29     9    10    1
    30    16    17    2
    31    16    15    1
    32    10    11    1
    33    15    14    1
    34    11    12    1
    35    14    13    1
    36    13    12    1
