@<TRIPOS>MOLECULE
3dva_TPW_A_1.pdb
 26 27 0 0 0
SMALL
GASTEIGER

@<TRIPOS>ATOM
      1  C2A        3.7860    6.4590   26.3370 C.3   1370  TPW1370     0.1291
      2  C35        2.2800   11.8390   24.8430 C.3   1370  TPW1370     0.0585
      3  C2         0.2020   12.0840   23.4380 C.ar  1370  TPW1370     0.0309
      4  S1        -0.2440   12.1210   21.8050 S.2   1370  TPW1370    -0.0913
      5  C5         1.2900   11.9230   21.1680 C.ar  1370  TPW1370     0.0056
      6  C4         2.1600   11.8230   22.2520 C.ar  1370  TPW1370    -0.0229
      7  C4A        3.6620   11.6270   22.0810 C.3   1370  TPW1370     0.0309
      8  C5A        1.5500   11.8460   19.6730 C.3   1370  TPW1370     0.0651
      9  C5B        1.0590   10.4750   19.1970 C.3   1370  TPW1370     0.1543
     10  O5G        1.0570   10.4070   17.7850 O.3   1370  TPW1370    -0.3134
     11  P1         0.4320    9.1090   17.0570 P.3   1370  TPW1370     0.2230
     12  O11       -1.1370    9.2180   17.4180 O.3   1370  TPW1370    -0.2261
     13  O12        0.6440    9.2980   15.6060 O.2   1370  TPW1370    -0.5169
     14  O13        0.9150    7.8810   17.7200 O.3   1370  TPW1370    -0.4370
     15  P2        -2.0860   10.3930   16.8610 P.3   1370  TPW1370     0.5373
     16  O21       -1.5290   11.1830   15.7340 O.2   1370  TPW1370    -0.2221
     17  O22       -2.4540   11.3040   18.1340 O.3   1370  TPW1370    -0.1143
     18  O23       -3.4740    9.6760   16.4580 O.3   1370  TPW1370    -0.1143
     19  N1'        4.2860    8.7840   25.6040 N.2   1370  TPW1370    -0.1862
     20  C2'        3.3610    7.8730   25.9420 C.1   1370  TPW1370     0.0663
     21  N3'        2.0570    8.1900   25.9340 N.2   1370  TPW1370    -0.3369
     22  C4'        1.6530    9.4200   25.5960 C.2   1370  TPW1370     0.2279
     23  N4'        0.3510    9.6860   25.6030 N.pl3 1370  TPW1370    -0.0925
     24  C5'        2.5950   10.3890   25.2410 C.2   1370  TPW1370     0.0499
     25  C6'        3.9390   10.0150   25.2630 C.2   1370  TPW1370     0.1102
     26  C3         1.5360   11.9140   23.5110 C.ar  1370  TPW1370    -0.0149
@<TRIPOS>BOND
     1    13    11    2
     2    16    15    2
     3    18    15    1
     4    15    12    1
     5    15    17    1
     6    11    12    1
     7    11    14    1
     8    11    10    1
     9    10     9    1
    10     9     8    1
    11     8     5    1
    12     5     4   ar
    13     5     6   ar
    14     4     3   ar
    15     7     6    1
    16     6    26   ar
    17     3    26   ar
    18    26     2    1
    19     2    24    1
    20    24    25    2
    21    24    22    1
    22    25    19    1
    23    22    23    1
    24    22    21    2
    25    19    20    2
    26    21    20    2
    27    20     1    1
