@<TRIPOS>MOLECULE
3dvl_ATP_A_1.pdb
 31 33 0 0 0
SMALL
GASTEIGER

@<TRIPOS>ATOM
      1  PG       127.3110   82.4830   17.0310 P.3   901  ATP901      0.5373
      2  O1G      126.4710   81.9360   15.9770 O.2   901  ATP901     -0.2221
      3  O2G      127.1730   81.6150   18.2990 O.3   901  ATP901     -0.1143
      4  O3G      128.7760   82.5570   16.5420 O.3   901  ATP901     -0.1143
      5  PB       127.0880   85.2020   16.4400 P.3   901  ATP901      0.2277
      6  O1B      126.4010   86.2590   17.0990 O.3   901  ATP901     -0.4368
      7  O2B      126.7050   85.1170   15.0160 O.2   901  ATP901     -0.5168
      8  O3B      126.8010   83.9600   17.3050 O.3   901  ATP901     -0.2258
      9  PA       129.8370   85.8540   15.7580 P.3   901  ATP901      0.2189
     10  O1A      129.9060   87.3170   15.7250 O.2   901  ATP901     -0.5170
     11  O2A      131.0630   85.1360   16.3470 O.3   901  ATP901     -0.4371
     12  O3A      128.5950   85.5340   16.6700 O.3   901  ATP901     -0.2700
     13  O5'      129.6000   85.3790   14.2420 O.3   901  ATP901     -0.3112
     14  C5'      130.7250   84.9160   13.4020 C.3   901  ATP901      0.1813
     15  C4'      130.4310   85.0820   11.8630 C.3   901  ATP901      0.1821
     16  O4'      131.1150   86.2010   11.2960 O.3   901  ATP901     -0.3135
     17  C3'      130.8230   83.8690   11.0110 C.3   901  ATP901      0.2184
     18  O3'      129.6720   83.0530   10.8420 O.3   901  ATP901     -0.2174
     19  C2'      131.3590   84.4600    9.6970 C.3   901  ATP901      0.2570
     20  O2'      130.4980   84.5460    8.5920 O.3   901  ATP901     -0.2130
     21  C1'      131.8560   85.8220   10.1090 C.3   901  ATP901      0.3186
     22  N9       133.3310   86.0060   10.4200 N.pl3 901  ATP901     -0.1439
     23  C8       133.9840   85.5990   11.5630 C.3   901  ATP901      0.3377
     24  N7       135.2560   85.9350   11.4360 N.2   901  ATP901     -0.2095
     25  C5       135.4900   86.5510   10.2540 C.2   901  ATP901      0.2526
     26  C6       136.5830   87.1040    9.5780 C.2   901  ATP901      0.4393
     27  N6       137.8090   87.1510   10.0220 N.pl3 901  ATP901      0.2180
     28  N1       136.4000   87.6640    8.3130 N.2   901  ATP901      0.0021
     29  C2       135.1640   87.6870    7.7110 C.3   901  ATP901      0.5254
     30  N3       134.0690   87.1490    8.3550 N.2   901  ATP901     -0.0055
     31  C4       134.2360   86.5930    9.6000 C.2   901  ATP901      0.3518
@<TRIPOS>BOND
     1    29    28    1
     2    29    30    1
     3    28    26    2
     4    30    31    2
     5    20    19    1
     6    26    27    1
     7    26    25    1
     8    31    25    1
     9    31    22    1
    10    19    21    1
    11    19    17    1
    12    21    22    1
    13    21    16    1
    14    25    24    2
    15    22    23    1
    16    18    17    1
    17    17    15    1
    18    16    15    1
    19    24    23    1
    20    15    14    1
    21    14    13    1
    22    13     9    1
    23     7     5    2
    24    10     9    2
    25     9    11    1
    26     9    12    1
    27     2     1    2
    28     5    12    1
    29     5     6    1
    30     5     8    1
    31     4     1    1
    32     1     8    1
    33     1     3    1
