@<TRIPOS>MOLECULE
3dwb_RDF_A_1.pdb
 37 39 0 0 0
SMALL
GASTEIGER

@<TRIPOS>ATOM
      1  C1        83.0650   28.8160   40.5030 C.3   817  RDF817      0.2770
      2  O1        82.0160   29.1310   39.5920 O.3   817  RDF817     -0.2518
      3  C2        82.6370   27.7610   41.5100 C.3   817  RDF817      0.2410
      4  O2        83.7110   27.6130   42.4750 O.3   817  RDF817     -0.2149
      5  C3        82.4080   26.4510   40.7490 C.3   817  RDF817      0.2197
      6  O3        81.9540   25.3970   41.5860 O.3   817  RDF817     -0.2174
      7  C4        83.7300   26.0690   40.0970 C.3   817  RDF817      0.2118
      8  O4        83.6940   24.7710   39.5170 O.3   817  RDF817     -0.2177
      9  C5        83.9990   27.1390   39.0450 C.3   817  RDF817      0.1508
     10  O5        84.1590   28.3820   39.7160 O.3   817  RDF817     -0.3281
     11  C6        85.2090   26.7780   38.2140 C.3   817  RDF817      0.0350
     12  P         81.8310   30.6550   39.0600 P.3   817  RDF817      0.4552
     13  O1P       83.1560   30.8130   38.4140 O.3   817  RDF817     -0.1258
     14  O2P       80.5370   30.6760   38.2510 O.2   817  RDF817     -0.2359
     15  N         81.6290   31.7360   40.3070 N.3   817  RDF817     -0.1121
     16  CA        82.3110   33.0160   40.1880 C.3   817  RDF817      0.1616
     17  C         83.7850   32.9150   40.3340 C.2   817  RDF817      0.2582
     18  O         84.5100   33.2340   39.4270 O.2   817  RDF817     -0.2718
     19  CB        81.7410   33.9000   41.2630 C.3   817  RDF817      0.0274
     20  CG        82.1180   35.3660   41.0950 C.3   817  RDF817      0.0019
     21  CD1       81.3070   36.1500   42.1150 C.3   817  RDF817      0.0001
     22  CD2       81.8880   35.9320   39.6870 C.3   817  RDF817      0.0001
     23  N1        84.2830   32.4520   41.4540 N.am  817  RDF817     -0.1941
     24  CA1       85.7410   32.3270   41.6310 C.3   817  RDF817      0.2021
     25  C7        85.9710   31.0140   42.3540 C.2   817  RDF817      0.3845
     26  O6        84.9880   30.5310   42.9980 O.co2 817  RDF817     -0.2437
     27  CB1       86.2380   33.5810   42.4150 C.3   817  RDF817      0.0612
     28  CG1       85.5800   33.6070   43.7810 C.2   817  RDF817      0.0004
     29 CD11       84.3100   34.0580   44.0980 C.2   817  RDF817      0.0946
     30 CD21       86.0960   33.1100   44.9660 C.2   817  RDF817      0.0113
     31  NE1       84.0660   33.8640   45.4250 N.2   817  RDF817     -0.2442
     32  CE2       85.1640   33.2880   45.9710 C.2   817  RDF817      0.0804
     33  CE3       87.3410   32.5530   45.2390 C.2   817  RDF817     -0.0202
     34  CZ2       85.4830   32.8910   47.2700 C.2   817  RDF817      0.0148
     35  CZ3       87.6420   32.1300   46.5360 C.3   817  RDF817      0.0521
     36  CH2       86.7070   32.3090   47.5430 C.2   817  RDF817     -0.0199
     37  OXT       87.1040   30.4740   42.2920 O.co2 817  RDF817     -0.2437
@<TRIPOS>BOND
     1    11     9    1
     2    14    12    2
     3    13    12    1
     4     9    10    1
     5     9     7    1
     6    12     2    1
     7    12    15    1
     8    18    17    2
     9     8     7    1
    10     2     1    1
    11    22    20    1
    12    10     1    1
    13     7     5    1
    14    16    15    1
    15    16    17    1
    16    16    19    1
    17    17    23   am
    18     1     3    1
    19     5     3    1
    20     5     6    1
    21    20    19    1
    22    20    21    1
    23    23    24    1
    24     3     4    1
    25    24    25    1
    26    24    27    1
    27    37    25   ar
    28    25    26   ar
    29    27    28    1
    30    28    29    2
    31    28    30    1
    32    29    31    1
    33    30    33    2
    34    30    32    1
    35    33    35    1
    36    31    32    2
    37    32    34    1
    38    35    36    1
    39    34    36    2
