@<TRIPOS>MOLECULE
3dwb_5HD_A_1.pdb
 14 13 0 0 0
SMALL
GASTEIGER

@<TRIPOS>ATOM
      1  C1        72.2100   18.0990   52.7590 C.3   816  5HD816      0.0027
      2  C2        73.6100   18.2290   53.3550 C.3   816  5HD816      0.0355
      3  C3        74.1610   16.8900   53.8210 C.3   816  5HD816      0.1821
      4  O14       65.3220   18.9660   49.5250 O.3   816  5HD816     -0.2204
      5  C13       66.3000   17.9290   49.4810 C.3   816  5HD816      0.1821
      6  C12       67.4310   18.3110   50.4100 C.3   816  5HD816      0.0355
      7  C11       68.3820   17.1450   50.6770 C.3   816  5HD816      0.0027
      8  C10       69.7160   17.6600   51.2210 C.3   816  5HD816      0.0002
      9  C6        70.9670   16.8590   50.8320 C.3   816  5HD816      0.0026
     10  C7        70.9700   16.5430   49.3250 C.3   816  5HD816      0.0355
     11  C8        72.3450   16.2830   48.7340 C.3   816  5HD816      0.1821
     12  O9        72.2310   16.2500   47.3130 O.3   816  5HD816     -0.2204
     13  C5        72.2280   17.6500   51.2880 C.3   816  5HD816      0.0002
     14  O4        75.5960   16.8950   53.8220 O.3   816  5HD816     -0.2204
@<TRIPOS>BOND
     1    12    11    1
     2    11    10    1
     3    10     9    1
     4     5     4    1
     5     5     6    1
     6     6     7    1
     7     7     8    1
     8     9     8    1
     9     9    13    1
    10    13     1    1
    11     1     2    1
    12     2     3    1
    13     3    14    1
