@<TRIPOS>MOLECULE
3dwf_NAP_A_1.pdb
 48 52 0 0 0
SMALL
GASTEIGER

@<TRIPOS>ATOM
      1  PA        57.3150   93.6620   24.0440 P.3   301  NAP301      0.2189
      2  O1A       56.4100   94.7750   23.6760 O.2   301  NAP301     -0.5170
      3  O2A       57.7690   93.7570   25.4450 O.3   301  NAP301     -0.4371
      4  O5B       58.5170   93.6120   22.9740 O.3   301  NAP301     -0.3112
      5  C5B       58.5220   92.6430   21.9470 C.3   301  NAP301      0.1813
      6  C4B       59.8690   92.6210   21.2320 C.3   301  NAP301      0.1820
      7  O4B       59.6710   92.7220   19.8310 O.3   301  NAP301     -0.3136
      8  C3B       60.7750   93.7770   21.6470 C.3   301  NAP301      0.2157
      9  O3B       62.0370   93.2650   22.0070 O.3   301  NAP301     -0.2175
     10  C2B       60.9310   94.6360   20.4120 C.3   301  NAP301      0.2314
     11  O2B       62.2490   95.0910   20.2770 O.3   301  NAP301     -0.2630
     12  C1B       60.6190   93.6440   19.3050 C.3   301  NAP301      0.3158
     13  N9A       60.1880   94.3770   18.0950 N.pl3 301  NAP301     -0.1439
     14  C8A       59.1710   95.3010   17.9830 C.3   301  NAP301      0.3377
     15  N7A       59.1220   95.7360   16.6950 N.2   301  NAP301     -0.2095
     16  C5A       60.0960   95.1030   15.9880 C.2   301  NAP301      0.2526
     17  C6A       60.4990   95.1640   14.6520 C.2   301  NAP301      0.4393
     18  N6A       59.8850   95.9610   13.7890 N.pl3 301  NAP301      0.2180
     19  N1A       61.5460   94.3820   14.2160 N.2   301  NAP301      0.0021
     20  C2A       62.1970   93.5460   15.0990 C.3   301  NAP301      0.5254
     21  N3A       61.7920   93.4860   16.4180 N.2   301  NAP301     -0.0055
     22  C4A       60.7700   94.2520   16.8590 C.2   301  NAP301      0.3518
     23  O3        56.5610   92.2770   23.8040 O.3   301  NAP301     -0.2703
     24  PN        55.9960   91.2200   24.8500 P.3   301  NAP301      0.2189
     25  O1N       54.9050   91.8420   25.6310 O.3   301  NAP301     -0.4371
     26  O2N       57.1600   90.6150   25.5250 O.2   301  NAP301     -0.5170
     27  O5D       55.3500   90.1510   23.8280 O.3   301  NAP301     -0.3112
     28  C5D       56.1710   89.2020   23.1760 C.3   301  NAP301      0.1813
     29  C4D       55.3040   88.1940   22.4470 C.3   301  NAP301      0.1799
     30  O4D       54.3120   87.7150   23.3410 O.3   301  NAP301     -0.3327
     31  C3D       54.5620   88.8420   21.2840 C.3   301  NAP301      0.2158
     32  O3D       54.5130   87.9740   20.1710 O.3   301  NAP301     -0.2175
     33  C2D       53.1550   88.9950   21.8100 C.3   301  NAP301      0.2309
     34  O2D       52.2260   88.9910   20.7580 O.3   301  NAP301     -0.2158
     35  C1D       53.0340   87.7930   22.7340 C.3   301  NAP301      0.2263
     36  N1N       51.9760   88.0590   23.7130 N.pl3 301  NAP301     -0.2787
     37  C2N       52.2140   88.8500   24.8000 C.3   301  NAP301      0.1244
     38  C3N       51.1930   89.0880   25.7100 C.2   301  NAP301      0.0544
     39  C7N       51.3990   90.0540   26.8290 C.2   301  NAP301      0.2818
     40  O7N       50.3430   90.2460   27.7330 O.2   301  NAP301     -0.2670
     41  N7N       52.5620   90.7010   26.9370 N.am  301  NAP301     -0.0839
     42  C4N       49.9400   88.5160   25.5220 C.2   301  NAP301      0.0033
     43  C5N       49.7150   87.7050   24.4150 C.2   301  NAP301      0.0157
     44  C6N       50.7480   87.4960   23.5140 C.2   301  NAP301      0.0633
     45  P2B       62.5280   96.5340   19.6260 P.3   301  NAP301      0.5328
     46  O1X       63.8410   97.0380   20.1870 O.3   301  NAP301     -0.1145
     47  O2X       61.4130   97.5030   19.9520 O.3   301  NAP301     -0.1145
     48  O3X       62.6160   96.3810   18.1230 O.2   301  NAP301     -0.2224
@<TRIPOS>BOND
     1    18    17    1
     2    19    17    2
     3    19    20    1
     4    17    16    1
     5    20    21    1
     6    16    15    2
     7    16    22    1
     8    21    22    2
     9    15    14    1
    10    22    13    1
    11    14    13    1
    12    13    12    1
    13    48    45    2
    14    12     7    1
    15    12    10    1
    16    45    47    1
    17    45    46    1
    18    45    11    1
    19     7     6    1
    20    32    31    1
    21    11    10    1
    22    10     8    1
    23    34    33    1
    24     6     8    1
    25     6     5    1
    26    31    33    1
    27    31    29    1
    28     8     9    1
    29    33    35    1
    30     5     4    1
    31    29    28    1
    32    29    30    1
    33    35    30    1
    34    35    36    1
    35     4     1    1
    36    28    27    1
    37    44    36    1
    38    44    43    2
    39     2     1    2
    40    36    37    1
    41    23     1    1
    42    23    24    1
    43    27    24    1
    44     1     3    1
    45    43    42    1
    46    37    38    1
    47    24    26    2
    48    24    25    1
    49    42    38    2
    50    38    39    1
    51    39    41   am
    52    39    40    2
