@<TRIPOS>MOLECULE
3dwg_PLP_A_1.pdb
 15 15 0 0 0
SMALL
GASTEIGER

@<TRIPOS>ATOM
      1  N1        38.4250   12.8270   21.8350 N.ar  401  PLP401     -0.2452
      2  C2        37.5090   12.3830   20.9030 C.ar  401  PLP401      0.0978
      3  C2A       37.9710   11.9680   19.5380 C.3   401  PLP401      0.0555
      4  C3        36.1590   12.3200   21.2280 C.ar  401  PLP401      0.2049
      5  O3        35.2520   11.8680   20.3060 O.3   401  PLP401     -0.2857
      6  C4        35.7330   12.7050   22.4930 C.ar  401  PLP401      0.0182
      7  C4A       34.2920   12.5460   22.8800 C.3   401  PLP401      0.0342
      8  C5        36.6590   13.1510   23.4290 C.ar  401  PLP401      0.0261
      9  C6        38.0060   13.2100   23.0940 C.ar  401  PLP401      0.0965
     10  C5A       36.1860   13.7050   24.7530 C.3   401  PLP401      0.1815
     11  O4P       35.6240   12.6660   25.5230 O.3   401  PLP401     -0.2653
     12  P         34.4550   12.9760   26.5860 P.3   401  PLP401      0.5329
     13  O1P       33.2440   13.4690   25.8300 O.2   401  PLP401     -0.2224
     14  O2P       34.9170   14.0380   27.5540 O.3   401  PLP401     -0.1145
     15  O3P       34.1060   11.7160   27.3410 O.3   401  PLP401     -0.1145
@<TRIPOS>BOND
     1     3     2    1
     2     5     4    1
     3     2     4   ar
     4     2     1   ar
     5     4     6   ar
     6     1     9   ar
     7     6     7    1
     8     6     8   ar
     9     9     8   ar
    10     8    10    1
    11    10    11    1
    12    11    12    1
    13    13    12    2
    14    12    15    1
    15    12    14    1
