@<TRIPOS>MOLECULE
3dwi_PLP_A_1.pdb
 15 15 0 0 0
SMALL
GASTEIGER

@<TRIPOS>ATOM
      1  N1        20.3890   82.2700   21.0060 N.ar  401  PLP401     -0.2452
      2  C2        20.9130   81.1200   21.2830 C.ar  401  PLP401      0.0978
      3  C2A       22.1370   81.0210   22.0750 C.3   401  PLP401      0.0555
      4  C3        20.3220   79.9930   20.8500 C.ar  401  PLP401      0.2049
      5  O3        20.7880   78.7940   21.1000 O.3   401  PLP401     -0.2857
      6  C4        19.2110   80.0080   20.1340 C.ar  401  PLP401      0.0182
      7  C4A       18.7710   78.7400   19.8050 C.3   401  PLP401      0.0342
      8  C5        18.6600   81.2300   19.8360 C.ar  401  PLP401      0.0261
      9  C6        19.3040   82.3270   20.2890 C.ar  401  PLP401      0.0965
     10  C5A       17.4290   81.5300   19.0350 C.3   401  PLP401      0.1815
     11  O4P       16.3530   80.8630   19.4920 O.3   401  PLP401     -0.2653
     12  P         15.3070   80.3950   18.7260 P.3   401  PLP401      0.5329
     13  O1P       14.4780   81.2940   18.1310 O.2   401  PLP401     -0.2224
     14  O2P       14.5140   79.9230   19.5950 O.3   401  PLP401     -0.1145
     15  O3P       15.4480   79.1930   18.2280 O.3   401  PLP401     -0.1145
@<TRIPOS>BOND
     1    13    12    2
     2    15    12    1
     3    12    11    1
     4    12    14    1
     5    10    11    1
     6    10     8    1
     7     7     6    1
     8     8     6   ar
     9     8     9   ar
    10     6     4   ar
    11     9     1   ar
    12     4     5    1
    13     4     2   ar
    14     1     2   ar
    15     2     3    1
