@<TRIPOS>MOLECULE
3dwj_H4B_A_1.pdb
 17 18 0 0 0
SMALL
GASTEIGER

@<TRIPOS>ATOM
      1  N1        67.0550  -30.5950   -5.9250 N.2   902  H4B902     -0.2683
      2  C2        67.3450  -29.2780   -5.6300 C.1   902  H4B902      0.2608
      3  N2        67.4420  -28.2880   -6.6630 N.pl3 902  H4B902     -0.0220
      4  N3        67.4950  -28.8920   -4.3510 N.2   902  H4B902     -0.2474
      5  C4        67.3800  -29.8010   -3.3490 C.1   902  H4B902      0.2441
      6  O4        67.4890  -29.4350   -1.9810 O.2   902  H4B902     -0.2063
      7  C4A       67.0840  -31.1920   -3.6400 C.2   902  H4B902      0.2463
      8  C8A       66.9210  -31.5860   -4.8350 C.1   902  H4B902      0.1270
      9  N5        66.9830  -32.1110   -2.5010 N.2   902  H4B902     -0.2460
     10  N8        66.6220  -32.9960   -5.0850 N.2   902  H4B902     -0.2054
     11  C6        67.2500  -33.5330   -2.7440 C.3   902  H4B902      0.1627
     12  C7        66.3120  -33.8910   -3.9550 C.3   902  H4B902      0.1643
     13  C9        67.0180  -34.3260   -1.4490 C.3   902  H4B902      0.2063
     14  O9        65.7860  -33.9950   -0.8740 O.3   902  H4B902     -0.2183
     15  C10       67.2360  -35.8020   -1.6870 C.3   902  H4B902      0.1842
     16  C11       67.0390  -36.7010   -0.4570 C.3   902  H4B902      0.0383
     17  O10       68.3910  -36.0100   -2.4760 O.3   902  H4B902     -0.2204
@<TRIPOS>BOND
     1     3     2    1
     2     1     2    2
     3     1     8    2
     4     2     4    2
     5    10     8    2
     6    10    12    1
     7     8     7    1
     8     4     5    2
     9    12    11    1
    10     7     5    1
    11     7     9    2
    12     5     6    2
    13    11     9    1
    14    11    13    1
    15    17    15    1
    16    15    13    1
    17    15    16    1
    18    13    14    1
