@<TRIPOS>MOLECULE
3dwj_HEM_A_1.pdb
 43 50 0 0 0
SMALL
GASTEIGER

@<TRIPOS>ATOM
      1 FE         72.6640  -21.9230   -9.9220 Fe    901  HEM901      0.0000
      2  CHA       72.0300  -24.3880   -7.5030 C.2   901  HEM901      0.0000
      3  CHB       69.2970  -21.5840  -10.4410 C.2   901  HEM901      0.0000
      4  CHC       73.1750  -18.8010  -11.2190 C.2   901  HEM901      0.0000
      5  CHD       75.9760  -22.3180   -9.4180 C.2   901  HEM901      0.0000
      6  NA        70.9970  -22.8290   -9.1170 N.ar  901  HEM901      0.0000
      7  C1A       70.9520  -23.7970   -8.1270 C.ar  901  HEM901      0.0000
      8  C2A       69.5520  -24.0890   -7.8600 C.ar  901  HEM901      0.0000
      9  C3A       68.8010  -23.3300   -8.6690 C.ar  901  HEM901      0.0000
     10  C4A       69.6830  -22.5070   -9.4780 C.ar  901  HEM901      0.0000
     11  CMA       67.2580  -23.3280   -8.7340 C.3   901  HEM901      0.0000
     12  CAA       69.0370  -25.1130   -6.8320 C.3   901  HEM901      0.0000
     13  CBA       68.6640  -24.3290   -5.5840 C.3   901  HEM901      0.0000
     14  CGA       68.7320  -25.2310   -4.3790 C.2   901  HEM901      0.0000
     15  O1A       69.5210  -24.9220   -3.4480 O.co2 901  HEM901      0.0000
     16  O2A       68.0090  -26.2640   -4.3410 O.co2 901  HEM901      0.0000
     17  NB        71.4400  -20.4050  -10.6080 N.2   901  HEM901      0.0000
     18  C1B       70.1040  -20.5770  -10.9360 C.2   901  HEM901      0.0000
     19  C2B       69.7330  -19.5280  -11.8660 C.2   901  HEM901      0.0000
     20  C3B       70.8130  -18.7500  -12.0580 C.2   901  HEM901      0.0000
     21  C4B       71.9020  -19.3050  -11.2840 C.2   901  HEM901      0.0000
     22  CMB       68.3310  -19.3220  -12.4850 C.3   901  HEM901      0.0000
     23  CAB       70.9690  -17.5010  -12.9660 C.2   901  HEM901      0.0000
     24  CBB       70.3430  -17.4010  -14.1430 C.2   901  HEM901      0.0000
     25  NC        74.2710  -20.7780  -10.2970 N.ar  901  HEM901      0.0000
     26  C1C       74.2690  -19.4770  -10.7450 C.ar  901  HEM901      0.0000
     27  C2C       75.6140  -18.9560  -10.6410 C.ar  901  HEM901      0.0000
     28  C3C       76.3870  -19.9270  -10.1280 C.ar  901  HEM901      0.0000
     29  C4C       75.5570  -21.0970   -9.9140 C.ar  901  HEM901      0.0000
     30  CMC       76.0380  -17.5330  -11.0570 C.3   901  HEM901      0.0000
     31  CAC       77.9110  -19.8770   -9.8430 C.2   901  HEM901      0.0000
     32  CBC       78.6840  -18.9720  -10.4480 C.2   901  HEM901      0.0000
     33  ND        73.8260  -23.2010   -8.6380 N.2   901  HEM901      0.0000
     34  C1D       75.2190  -23.1730   -8.6460 C.2   901  HEM901      0.0000
     35  C2D       75.7360  -24.1590   -7.7190 C.2   901  HEM901      0.0000
     36  C3D       74.5010  -24.8000   -7.1170 C.2   901  HEM901      0.0000
     37  C4D       73.3630  -24.1470   -7.7460 C.2   901  HEM901      0.0000
     38  CMD       77.2070  -24.4970   -7.3880 C.3   901  HEM901      0.0000
     39  CAD       74.5090  -25.9110   -6.0610 C.3   901  HEM901      0.0000
     40  CBD       74.0030  -25.3100   -4.7600 C.3   901  HEM901      0.0000
     41  CGD       73.9370  -26.4230   -3.7660 C.2   901  HEM901      0.0000
     42  O1D       73.2850  -26.2660   -2.6970 O.co2 901  HEM901      0.0000
     43  O2D       74.5540  -27.4760   -4.0700 O.co2 901  HEM901      0.0000
@<TRIPOS>BOND
     1    24    23    2
     2    23    20    1
     3    22    19    1
     4    20    19    2
     5    20    21    1
     6    19    18    1
     7    21     4    2
     8    21    17    1
     9     4    26    1
    10    30    27    1
    11    18    17    2
    12    18     3    1
    13    26    27   ar
    14    26    25   ar
    15    27    28   ar
    16    17     1    1
    17    32    31    2
    18     3    10    2
    19    25     1    1
    20    25    29   ar
    21    28    29   ar
    22    28    31    1
    23     1     6    1
    24     1    33    1
    25    29     5    1
    26    10     6   ar
    27    10     9   ar
    28     5    34    2
    29     6     7   ar
    30    11     9    1
    31     9     8   ar
    32    34    33    1
    33    34    35    1
    34    33    37    2
    35     7     8   ar
    36     7     2    2
    37     8    12    1
    38    37     2    1
    39    37    36    1
    40    35    38    1
    41    35    36    2
    42    36    39    1
    43    12    13    1
    44    39    40    1
    45    13    14    1
    46    40    41    1
    47    14    16   ar
    48    14    15   ar
    49    43    41   ar
    50    41    42   ar
