@<TRIPOS>MOLECULE
3dwl_ATP_A_1.pdb
 31 33 0 0 0
SMALL
GASTEIGER

@<TRIPOS>ATOM
      1  PG        53.5500  -83.9410  -11.4330 P.3   428  ATP428      0.5373
      2  O1G       52.1660  -84.4440  -11.7830 O.3   428  ATP428     -0.1143
      3  O2G       54.2170  -84.6980  -10.3030 O.3   428  ATP428     -0.1143
      4  O3G       54.4500  -83.7050  -12.6280 O.2   428  ATP428     -0.2221
      5  PB        54.3970  -81.7110   -9.9720 P.3   428  ATP428      0.2277
      6  O1B       54.3610  -82.3040   -8.5850 O.3   428  ATP428     -0.4368
      7  O2B       55.6800  -81.7050  -10.7660 O.2   428  ATP428     -0.5168
      8  O3B       53.2720  -82.4630  -10.8420 O.3   428  ATP428     -0.2258
      9  PA        53.5170  -79.5360   -8.4920 P.3   428  ATP428      0.2189
     10  O1A       52.4790  -80.4180   -7.8450 O.2   428  ATP428     -0.5170
     11  O2A       54.8090  -79.2130   -7.7800 O.3   428  ATP428     -0.4371
     12  O3A       53.8780  -80.1950   -9.9090 O.3   428  ATP428     -0.2700
     13  O5'       52.8250  -78.1500   -8.9080 O.3   428  ATP428     -0.3112
     14  C5'       51.8470  -78.1500   -9.9410 C.3   428  ATP428      0.1813
     15  C4'       50.8680  -77.0170   -9.7080 C.3   428  ATP428      0.1821
     16  O4'       50.7820  -76.7240   -8.3130 O.3   428  ATP428     -0.3135
     17  C3'       51.3390  -75.7540  -10.4090 C.3   428  ATP428      0.2184
     18  O3'       50.3880  -75.3940  -11.4160 O.3   428  ATP428     -0.2174
     19  C2'       51.4200  -74.7000   -9.3230 C.3   428  ATP428      0.2570
     20  O2'       50.8370  -73.4580   -9.7280 O.3   428  ATP428     -0.2130
     21  C1'       50.6460  -75.3160   -8.1690 C.3   428  ATP428      0.3186
     22  N9        51.1660  -74.8280   -6.8730 N.pl3 428  ATP428     -0.1439
     23  C8        52.4240  -74.9270   -6.4070 C.3   428  ATP428      0.3377
     24  N7        52.5360  -74.3500   -5.1830 N.2   428  ATP428     -0.2095
     25  C5        51.3270  -73.8680   -4.8540 C.2   428  ATP428      0.2526
     26  C6        50.7380  -73.1410   -3.7050 C.2   428  ATP428      0.4393
     27  N6        51.4830  -72.8060   -2.6270 N.pl3 428  ATP428      0.2180
     28  N1        49.4250  -72.8230   -3.7660 N.2   428  ATP428      0.0021
     29  C2        48.6650  -73.1510   -4.8300 C.3   428  ATP428      0.5254
     30  N3        49.1300  -73.8100   -5.9070 N.2   428  ATP428     -0.0055
     31  C4        50.4300  -74.1840   -5.9750 C.2   428  ATP428      0.3518
@<TRIPOS>BOND
     1     4     1    2
     2     2     1    1
     3     1     8    1
     4     1     3    1
     5    18    17    1
     6     8     5    1
     7     7     5    2
     8    17    15    1
     9    17    19    1
    10     5    12    1
    11     5     6    1
    12    14    15    1
    13    14    13    1
    14    12     9    1
    15    20    19    1
    16    15    16    1
    17    19    21    1
    18    13     9    1
    19     9    10    2
    20     9    11    1
    21    16    21    1
    22    21    22    1
    23    22    23    1
    24    22    31    1
    25    23    24    1
    26    31    30    2
    27    31    25    1
    28    30    29    1
    29    24    25    2
    30    25    26    1
    31    29    28    1
    32    28    26    2
    33    26    27    1
