@<TRIPOS>MOLECULE
3dwo_C8E_X_10.pdb
 12 11 0 0 0
SMALL
GASTEIGER

@<TRIPOS>ATOM
      1  C1        48.0760   76.4300   20.1330 C.3   463  C8E463      0.0000
      2  C2        49.2240   76.8410   20.9290 C.3   463  C8E463      0.0000
      3  C3        50.4410   77.0850   20.1850 C.3   463  C8E463      0.0000
      4  C4        51.3120   77.8760   21.0370 C.3   463  C8E463      0.0000
      5  C5        52.2610   78.6310   20.1770 C.3   463  C8E463      0.0001
      6  C6        52.1180   80.0480   20.4250 C.3   463  C8E463      0.0026
      7  C7        51.6380   80.4900   19.1310 C.3   463  C8E463      0.0321
      8  C8        52.0830   81.8880   18.9410 C.3   463  C8E463      0.1423
      9  O9        51.3980   83.0730   19.3170 O.3   463  C8E463     -0.3510
     10  C10       50.1160   83.3330   18.7520 C.3   463  C8E463      0.1776
     11  C11       49.6760   84.6310   19.3590 C.3   463  C8E463      0.2140
     12  O12       50.3010   85.7570   18.7080 O.3   463  C8E463     -0.2176
@<TRIPOS>BOND
     1    12    11    1
     2    10     9    1
     3    10    11    1
     4     8     7    1
     5     8     9    1
     6     7     6    1
     7     1     2    1
     8     5     6    1
     9     5     4    1
    10     3     2    1
    11     3     4    1
