@<TRIPOS>MOLECULE
3dwp_NGC_A_1.pdb
 22 22 0 0 0
SMALL
GASTEIGER

@<TRIPOS>ATOM
      1  O8       -38.4270   48.3980   -0.2580 O.3   127  NGC127     -0.2175
      2  C8       -38.4390   48.5910    1.1580 C.3   127  NGC127      0.2175
      3  C7       -39.8630   48.9930    1.5270 C.3   127  NGC127      0.2173
      4  O7       -40.7420   47.8630    1.4360 O.3   127  NGC127     -0.2175
      5  C6       -39.9180   49.6030    2.9210 C.3   127  NGC127      0.2135
      6  O6       -39.5440   50.9800    2.8600 O.3   127  NGC127     -0.2176
      7  C5       -41.3320   49.4860    3.4860 C.3   127  NGC127      0.1734
      8  O5       -42.2510   50.0640    2.5290 O.3   127  NGC127     -0.3220
      9  C1       -43.6600   49.7870    2.8520 C.3   127  NGC127      0.3155
     10  C9       -43.9710   48.2630    2.7540 C.2   127  NGC127      0.4179
     11  O9B      -43.1640   47.5410    2.1120 O.co2 127  NGC127     -0.2401
     12  O9A      -45.0120   47.8660    3.3100 O.co2 127  NGC127     -0.2401
     13  O1       -44.4910   50.4630    1.8940 O.3   127  NGC127     -0.1830
     14  C2       -44.0050   50.3540    4.2680 C.3   127  NGC127      0.1056
     15  C3       -42.9700   49.9300    5.3420 C.3   127  NGC127      0.1798
     16  O3       -43.1700   50.7090    6.5070 O.3   127  NGC127     -0.2210
     17  C4       -41.5290   50.1390    4.8660 C.3   127  NGC127      0.1555
     18  N4       -40.5280   49.5810    5.8040 N.am  127  NGC127     -0.1998
     19  C10      -39.5120   50.2890    6.2920 C.2   127  NGC127      0.2751
     20  O10      -39.3000   51.4730    6.0430 O.2   127  NGC127     -0.2705
     21  C11      -38.5860   49.5280    7.2150 C.3   127  NGC127      0.2680
     22  O11      -39.0370   48.1850    7.3790 O.3   127  NGC127     -0.2098
@<TRIPOS>BOND
     1     1     2    1
     2     2     3    1
     3     4     3    1
     4     3     5    1
     5    13     9    1
     6    11    10   ar
     7     8     9    1
     8     8     7    1
     9    10     9    1
    10    10    12   ar
    11     9    14    1
    12     6     5    1
    13     5     7    1
    14     7    17    1
    15    14    15    1
    16    17    15    1
    17    17    18    1
    18    15    16    1
    19    18    19   am
    20    20    19    2
    21    19    21    1
    22    21    22    1
