@<TRIPOS>MOLECULE
3dwq_NGC_A_1.pdb
 21 21 0 0 0
SMALL
GASTEIGER

@<TRIPOS>ATOM
      1  O8        58.6680  -48.8640   26.8110 O.3   127  NGC127     -0.2175
      2  C8        58.9630  -48.3800   25.4950 C.3   127  NGC127      0.2175
      3  C7        57.7740  -48.5840   24.5570 C.3   127  NGC127      0.2173
      4  O7        56.5850  -48.0720   25.1740 O.3   127  NGC127     -0.2175
      5  C6        57.6160  -50.0670   24.2020 C.3   127  NGC127      0.2134
      6  O6        58.7590  -50.5120   23.4560 O.3   127  NGC127     -0.2176
      7  C5        56.3200  -50.4480   23.4650 C.3   127  NGC127      0.1710
      8  O5        55.2140  -50.2690   24.3670 O.3   127  NGC127     -0.3429
      9  C1        54.0370  -49.7360   23.7370 C.3   127  NGC127      0.2203
     10  C9        53.2010  -48.6770   24.4320 C.2   127  NGC127      0.3914
     11  O9B       53.7250  -48.0360   25.3690 O.co2 127  NGC127     -0.2430
     12  O9A       52.0440  -48.4320   24.0200 O.co2 127  NGC127     -0.2430
     13  C2        53.5780  -50.2680   22.3800 C.3   127  NGC127      0.0760
     14  C3        54.7800  -50.3040   21.4480 C.3   127  NGC127      0.1773
     15  O3        54.4570  -49.5720   20.2670 O.3   127  NGC127     -0.2211
     16  C4        56.0020  -49.6980   22.1540 C.3   127  NGC127      0.1553
     17  N4        57.1380  -49.6700   21.2180 N.am  127  NGC127     -0.1998
     18  C10       57.7010  -50.6700   20.5310 C.2   127  NGC127      0.2751
     19  O10       57.3480  -51.8380   20.5860 O.2   127  NGC127     -0.2705
     20  C11       58.8450  -50.2380   19.6640 C.3   127  NGC127      0.2680
     21  O11       58.5500  -48.9930   19.0200 O.3   127  NGC127     -0.2098
@<TRIPOS>BOND
     1    21    20    1
     2    20    18    1
     3    15    14    1
     4    18    19    2
     5    18    17   am
     6    17    16    1
     7    14    16    1
     8    14    13    1
     9    16     7    1
    10    13     9    1
    11     6     5    1
    12     7     5    1
    13     7     8    1
    14     9     8    1
    15     9    10    1
    16    12    10   ar
    17     5     3    1
    18    10    11   ar
    19     3     4    1
    20     3     2    1
    21     2     1    1
