@<TRIPOS>MOLECULE
3dws_FIC_A_1.pdb
 13 14 0 0 0
SMALL
GASTEIGER

@<TRIPOS>ATOM
      1  O12       35.9280   45.0510   49.8470 O.co2 303  FIC303     -0.2377
      2  C10       36.8770   44.5140   50.4000 C.2   303  FIC303      0.4168
      3  O11       37.9050   45.1340   50.6620 O.co2 303  FIC303     -0.2377
      4  C2        36.7840   43.0940   50.7160 C.2   303  FIC303      0.2100
      5  N1        37.6770   42.3930   51.4760 N.2   303  FIC303     -0.3995
      6  C3        35.7990   42.2510   50.2830 C.2   303  FIC303      0.0372
      7  C9        36.0590   40.9960   50.7720 C.2   303  FIC303      0.0130
      8  C4        35.3890   39.7700   50.6400 C.3   303  FIC303      0.0848
      9  C5        35.9000   38.6320   51.2650 C.2   303  FIC303      0.1183
     10  F14       35.2950   37.4250   51.1670 F     303  FIC303     -0.2088
     11  C6        37.0720   38.7710   52.0060 C.2   303  FIC303      0.0068
     12  C7        37.7460   39.9780   52.1430 C.3   303  FIC303      0.0866
     13  C8        37.2370   41.1010   51.5210 C.2   303  FIC303      0.1102
@<TRIPOS>BOND
     1     1     2   ar
     2     6     4    1
     3     6     7    2
     4     2     3   ar
     5     2     4    1
     6     8     7    1
     7     8     9    1
     8     4     5    2
     9     7    13    1
    10    10     9    1
    11     9    11    2
    12     5    13    2
    13    13    12    1
    14    11    12    1
