@<TRIPOS>MOLECULE
3dww_GSH_A_1.pdb
 20 19 0 0 0
SMALL
GASTEIGER

@<TRIPOS>ATOM
      1  N1        86.6110  -18.7960   13.8570 N.3   154  GSH154     -0.1208
      2  CA1       86.5390  -20.0980   13.1980 C.3   154  GSH154      0.1948
      3  C1        86.4270  -21.2450   14.2040 C.2   154  GSH154      0.3819
      4  O11       86.2620  -22.4540   13.8570 O.co2 154  GSH154     -0.2441
      5  O12       86.5080  -21.0580   15.4570 O.co2 154  GSH154     -0.2441
      6  CB1       85.3590  -20.0410   12.2190 C.3   154  GSH154      0.0402
      7  CG1       85.8120  -20.0250   10.7640 C.3   154  GSH154      0.0889
      8  CD1       85.8500  -21.4260   10.2300 C.2   154  GSH154      0.2418
      9  OE1       84.7010  -22.0040    9.6390 O.2   154  GSH154     -0.2733
     10  N2        87.0240  -22.0270   10.3850 N.am  154  GSH154     -0.1968
     11  CA2       87.1580  -23.4060   10.0110 C.3   154  GSH154      0.1843
     12  C2        87.8530  -24.2650   11.0400 C.2   154  GSH154      0.2627
     13  O2        88.1170  -25.6190   10.7230 O.2   154  GSH154     -0.2714
     14  CB2       87.8820  -23.4700    8.6760 C.3   154  GSH154      0.0997
     15  SG2       89.6410  -23.8140    8.9190 S.3   154  GSH154     -0.0797
     16  N3        88.1820  -23.7650   12.2360 N.am  154  GSH154     -0.1917
     17  CA3       88.8640  -24.6320   13.2040 C.3   154  GSH154      0.2285
     18  C3        88.4170  -24.5560   14.6590 C.2   154  GSH154      0.3865
     19  O31       88.1400  -25.6460   15.2370 O.co2 154  GSH154     -0.2437
     20  O32       88.3180  -23.4600   15.3020 O.co2 154  GSH154     -0.2437
@<TRIPOS>BOND
     1    14    15    1
     2    14    11    1
     3     9     8    2
     4    11    10    1
     5    11    12    1
     6     8    10   am
     7     8     7    1
     8    13    12    2
     9     7     6    1
    10    12    16   am
    11     6     2    1
    12    16    17    1
    13     2     1    1
    14     2     3    1
    15    17    18    1
    16     4     3   ar
    17     3     5   ar
    18    18    19   ar
    19    18    20   ar
