@<TRIPOS>MOLECULE
3dwz_DWZ_A_1.pdb
 26 27 0 0 0
SMALL
GASTEIGER

@<TRIPOS>ATOM
      1  CBE       -3.7900    8.8800   -2.0470 C.3   400  DWZ400      0.1149
      2  NBC       -2.8560    8.6360   -3.1630 N.am  400  DWZ400     -0.2749
      3  CBD       -1.8550    9.5040   -3.3070 C.3   400  DWZ400      0.1149
      4  C         -3.0040    7.5800   -4.0120 C.2   400  DWZ400      0.2416
      5  O         -2.2130    7.3720   -4.9380 O.2   400  DWZ400     -0.2734
      6  CA        -4.1850    6.5580   -3.8290 C.3   400  DWZ400      0.1498
      7  CB        -5.1000    6.5510   -5.0840 C.3   400  DWZ400      0.0389
      8  N         -5.0770    6.8560   -2.6890 N.3   400  DWZ400     -0.2094
      9  CD        -6.3860    6.3510   -3.1130 C.3   400  DWZ400      0.1000
     10  CG        -6.4890    6.8810   -4.5410 C.3   400  DWZ400      0.0673
     11  SAK       -6.7980    8.6990   -4.6360 S.3   400  DWZ400     -0.1341
     12  CAI       -8.2680    9.0770   -3.5830 C.3   400  DWZ400      0.0957
     13  CAH       -8.4670   10.5930   -3.6580 C.3   400  DWZ400      0.0387
     14  CAS       -9.0560   11.1280   -2.3370 C.3   400  DWZ400      0.0033
     15  CAL       -9.5090    8.5770   -4.3030 C.2   400  DWZ400      0.1428
     16  CAM      -10.0970    7.1870   -4.2670 C.2   400  DWZ400      0.4014
     17  OAT      -11.0820    6.9910   -4.9840 O.co2 400  DWZ400     -0.2392
     18  OAU       -9.5630    6.3330   -3.5510 O.co2 400  DWZ400     -0.2392
     19  NAJ      -10.0500    9.5000   -5.0690 N.2   400  DWZ400     -0.2688
     20  CAD       -9.3750   10.7920   -4.9160 C.3   400  DWZ400      0.1141
     21  CAB      -10.5350   11.7820   -4.6600 C.3   400  DWZ400      0.1175
     22  CAE      -10.3200   13.1650   -5.3150 C.3   400  DWZ400      0.1613
     23  CAF       -9.1470   13.9040   -4.6620 C.3   400  DWZ400      0.0360
     24  OAG      -10.1550   13.0880   -6.7640 O.3   400  DWZ400     -0.2226
     25  CAA      -11.8610   11.1350   -5.1270 C.2   400  DWZ400      0.2115
     26  OAC      -12.6300   10.5850   -4.3230 O.2   400  DWZ400     -0.2882
@<TRIPOS>BOND
     1    24    22    1
     2    22    23    1
     3    22    21    1
     4    25    21    1
     5    25    26    2
     6     7    10    1
     7     7     6    1
     8    19    20    1
     9    19    15    2
    10    17    16   ar
    11     5     4    2
    12    20    21    1
    13    20    13    1
    14    11    10    1
    15    11    12    1
    16    10     9    1
    17    15    16    1
    18    15    12    1
    19    16    18   ar
    20     4     6    1
    21     4     2   am
    22     6     8    1
    23    13    12    1
    24    13    14    1
    25     3     2    1
    26     2     1    1
    27     9     8    1
