@<TRIPOS>MOLECULE
3dx0_MSN_A_1.pdb
 11 11 0 0 0
SMALL
GASTEIGER

@<TRIPOS>ATOM
      1  C5        31.2740   66.3160    9.1220 C.3   1049  MSN1049     0.1371
      2  N5        31.0470   65.0000    9.7410 N.3   1049  MSN1049    -0.1291
      3  C4        32.7780   66.6710    9.1140 C.3   1049  MSN1049     0.2030
      4  O4        33.5810   65.5740    9.5140 O.3   1049  MSN1049    -0.2187
      5  C3        33.0980   67.1920    7.6930 C.3   1049  MSN1049     0.2146
      6  O3        33.7070   66.1980    6.9090 O.3   1049  MSN1049    -0.2176
      7  C2        31.7070   67.5200    7.1120 C.3   1049  MSN1049     0.1960
      8  O2        31.7170   67.5830    5.6890 O.3   1049  MSN1049    -0.2194
      9  C1        30.8920   66.3500    7.6650 C.3   1049  MSN1049     0.1008
     10  S6        29.0740   66.5930    7.5690 S.3   1049  MSN1049    -0.1360
     11  C7        28.9250   66.0320    5.8850 C.3   1049  MSN1049     0.0693
@<TRIPOS>BOND
     1     8     7    1
     2    11    10    1
     3     6     5    1
     4     7     9    1
     5     7     5    1
     6    10     9    1
     7     9     1    1
     8     5     3    1
     9     3     1    1
    10     3     4    1
    11     1     2    1
