@<TRIPOS>MOLECULE
3dx2_MZB_A_1.pdb
 12 12 0 0 0
SMALL
GASTEIGER

@<TRIPOS>ATOM
      1  O6        28.2600   65.2430    8.8500 O.2   1048  MZB1048    -0.2558
      2  S6        29.0250   66.3980    7.8910 S.O   1048  MZB1048     0.0459
      3  C7        28.5970   65.8650    6.2690 C.3   1048  MZB1048     0.1062
      4  C1        30.7270   65.8680    7.9150 C.3   1048  MZB1048     0.1324
      5  C5        31.1830   65.7400    9.3620 C.3   1048  MZB1048     0.1397
      6  N5        30.9620   64.4100    9.9360 N.3   1048  MZB1048    -0.1291
      7  C4        32.6860   66.1090    9.3780 C.3   1048  MZB1048     0.2031
      8  O4        33.4900   64.9800    9.7260 O.3   1048  MZB1048    -0.2187
      9  C3        33.0060   66.6360    7.9750 C.3   1048  MZB1048     0.2146
     10  O3        33.6370   65.6110    7.1770 O.3   1048  MZB1048    -0.2176
     11  C2        31.6320   66.9930    7.4050 C.3   1048  MZB1048     0.1985
     12  O2        31.6310   67.1620    5.9810 O.3   1048  MZB1048    -0.2193
@<TRIPOS>BOND
     1    12    11    1
     2     3     2    1
     3    10     9    1
     4    11     4    1
     5    11     9    1
     6     2     4    1
     7     2     1    2
     8     4     5    1
     9     9     7    1
    10     5     7    1
    11     5     6    1
    12     7     8    1
