@<TRIPOS>MOLECULE
3dx3_YTB_A_1.pdb
 10 10 0 0 0
SMALL
GASTEIGER

@<TRIPOS>ATOM
      1  O6        29.4900   66.1080    7.0040 O.3   1050  YTB1050    -0.2187
      2  C5        30.8790   66.0110    7.3610 C.3   1050  YTB1050     0.2048
      3  C4        31.6160   67.2730    6.9750 C.3   1050  YTB1050     0.2163
      4  O4        31.6710   67.5460    5.5680 O.3   1050  YTB1050    -0.2175
      5  C3        32.9770   67.0720    7.6370 C.3   1050  YTB1050     0.2163
      6  O3        33.7270   66.1020    6.8880 O.3   1050  YTB1050    -0.2175
      7  C1        31.1590   65.9730    8.8560 C.3   1050  YTB1050     0.1576
      8  N1        31.0030   64.6330    9.4250 N.3   1050  YTB1050    -0.1273
      9  C2        32.5940   66.4880    9.0130 C.3   1050  YTB1050     0.2048
     10  O2        33.4960   65.4580    9.4720 O.3   1050  YTB1050    -0.2187
@<TRIPOS>BOND
     1     4     3    1
     2     6     5    1
     3     3     2    1
     4     3     5    1
     5     1     2    1
     6     2     7    1
     7     5     9    1
     8     7     9    1
     9     7     8    1
    10     9    10    1
