@<TRIPOS>MOLECULE
3dx4_GOO_A_1.pdb
 11 11 0 0 0
SMALL
GASTEIGER

@<TRIPOS>ATOM
      1  C7        28.8890   66.0020    6.3060 C.3   1049  GOO1049     0.1742
      2  O6        29.4390   66.1150    7.6310 O.3   1049  GOO1049    -0.3493
      3  C1        30.8670   65.9320    7.6530 C.3   1049  GOO1049     0.1682
      4  C2        31.6140   67.1850    7.1500 C.3   1049  GOO1049     0.2131
      5  O2        31.6440   67.3240    5.7290 O.3   1049  GOO1049    -0.2176
      6  C3        33.0090   66.9450    7.7270 C.3   1049  GOO1049     0.2162
      7  O3        33.7250   65.9500    6.9610 O.3   1049  GOO1049    -0.2175
      8  C4        32.7100   66.4070    9.1490 C.3   1049  GOO1049     0.2046
      9  O4        33.5820   65.3310    9.5280 O.3   1049  GOO1049    -0.2187
     10  C5        31.2290   65.9780    9.1140 C.3   1049  GOO1049     0.1543
     11  N5        31.1470   64.6420    9.7640 N.3   1049  GOO1049    -0.1275
@<TRIPOS>BOND
     1     5     4    1
     2     1     2    1
     3     7     6    1
     4     4     3    1
     5     4     6    1
     6     2     3    1
     7     3    10    1
     8     6     8    1
     9    10     8    1
    10    10    11    1
    11     8     9    1
