@<TRIPOS>MOLECULE
3dx5_DHB_A_1.pdb
 11 11 0 0 0
SMALL
GASTEIGER

@<TRIPOS>ATOM
      1  C1        67.7780   66.3470    7.8360 C.ar  289  DHB289      0.0832
      2  C2        68.2370   66.4690    6.5280 C.ar  289  DHB289      0.0520
      3  C3        69.3670   65.7620    6.1050 C.ar  289  DHB289      0.2345
      4  O3        69.8760   65.8260    4.8340 O.3   289  DHB289     -0.2831
      5  C4        70.0310   64.8720    7.0610 C.ar  289  DHB289      0.2343
      6  O4        71.1140   64.1990    6.6130 O.3   289  DHB289     -0.2831
      7  C5        69.5450   64.7350    8.3580 C.ar  289  DHB289      0.0456
      8  C6        68.4160   65.4860    8.7330 C.ar  289  DHB289      0.0101
      9  C         66.5600   67.1480    8.2660 C.2   289  DHB289      0.3879
     10  O1        66.0580   67.0700    9.3920 O.co2 289  DHB289     -0.2406
     11  O2        66.0040   68.0000    7.4080 O.co2 289  DHB289     -0.2406
@<TRIPOS>BOND
     1     4     3    1
     2     3     2   ar
     3     3     5   ar
     4     2     1   ar
     5     6     5    1
     6     5     7   ar
     7    11     9   ar
     8     1     9    1
     9     1     8   ar
    10     9    10   ar
    11     7     8   ar
