@<TRIPOS>MOLECULE
3dxg_U5P_A_1.pdb
 21 22 0 0 0
SMALL
GASTEIGER

@<TRIPOS>ATOM
      1  N1        36.4310   -2.0220   12.0930 N.am  125  U5P125     -0.1766
      2  C2        35.2270   -2.2090   11.4130 C.1   125  U5P125      0.2845
      3  N3        34.5610   -3.3480   11.5830 N.2   125  U5P125     -0.2452
      4  C4        35.0030   -4.3250   12.4040 C.1   125  U5P125      0.2182
      5  C5        36.2070   -4.1680   13.0920 C.2   125  U5P125      0.1242
      6  C6        36.9110   -2.9820   12.9070 C.2   125  U5P125      0.0929
      7  O2        34.7830   -1.3140   10.6750 O.2   125  U5P125     -0.1918
      8  O4        34.3250   -5.3690   12.5290 O.2   125  U5P125     -0.2085
      9  C1'       37.1410   -0.7760   11.8600 C.3   125  U5P125      0.2401
     10  C2'       36.7510    0.2970   12.8470 C.3   125  U5P125      0.2319
     11  O2'       36.6010    1.4830   12.0570 O.3   125  U5P125     -0.2157
     12  C3'       37.9640    0.3940   13.7420 C.3   125  U5P125      0.2158
     13  C4'       39.1090    0.0400   12.8080 C.3   125  U5P125      0.1801
     14  O3'       38.1200    1.6790   14.3480 O.3   125  U5P125     -0.2175
     15  O4'       38.5510   -0.9850   11.9760 O.3   125  U5P125     -0.3320
     16  C5'       40.3430   -0.4530   13.5540 C.3   125  U5P125      0.1859
     17  O5'       40.0240   -1.7430   14.0570 O.3   125  U5P125     -0.2675
     18  P         41.0170   -2.5700   15.0150 P.3   125  U5P125      0.5327
     19  O1P       41.4160   -1.5950   16.1050 O.3   125  U5P125     -0.1145
     20  O2P       42.1530   -2.9990   14.1100 O.2   125  U5P125     -0.2224
     21  O3P       40.1370   -3.7160   15.4570 O.3   125  U5P125     -0.1145
@<TRIPOS>BOND
     1     7     2    2
     2     2     3    2
     3     2     1   am
     4     3     4    2
     5     9    15    1
     6     9     1    1
     7     9    10    1
     8    15    13    1
     9    11    10    1
    10     1     6    1
    11     4     8    2
    12     4     5    1
    13    13    16    1
    14    13    12    1
    15    10    12    1
    16     6     5    2
    17    16    17    1
    18    12    14    1
    19    17    18    1
    20    20    18    2
    21    18    21    1
    22    18    19    1
