@<TRIPOS>MOLECULE
3dxh_UDP_A_1.pdb
 25 26 0 0 0
SMALL
GASTEIGER

@<TRIPOS>ATOM
      1  N1        36.4350   -2.0050   11.9870 N.am  125  UDP125     -0.1766
      2  C2        35.2420   -2.1710   11.3440 C.1   125  UDP125      0.2845
      3  N3        34.5440   -3.3470   11.5030 N.2   125  UDP125     -0.2452
      4  C4        35.0230   -4.3700   12.2990 C.1   125  UDP125      0.2182
      5  C5        36.2460   -4.1980   12.9610 C.2   125  UDP125      0.1242
      6  C6        36.9140   -2.9780   12.8320 C.2   125  UDP125      0.0929
      7  O2        34.7960   -1.2630   10.6420 O.2   125  UDP125     -0.1918
      8  O4        34.3380   -5.4010   12.3930 O.2   125  UDP125     -0.2085
      9  C1'       37.1470   -0.7240   11.7560 C.3   125  UDP125      0.2401
     10  C2'       36.6930    0.4060   12.6710 C.3   125  UDP125      0.2319
     11  O2'       36.6160    1.6170   11.9210 O.3   125  UDP125     -0.2157
     12  C3'       37.8520    0.4810   13.6240 C.3   125  UDP125      0.2158
     13  C4'       39.0500    0.1330   12.7350 C.3   125  UDP125      0.1799
     14  O4'       38.5510   -0.9050   11.9070 O.3   125  UDP125     -0.3320
     15  O3'       37.9330    1.7410   14.2660 O.3   125  UDP125     -0.2175
     16  C5'       40.2940   -0.3260   13.4860 C.3   125  UDP125      0.1813
     17  O5'       39.8840   -0.9690   14.6690 O.3   125  UDP125     -0.3111
     18  PA        40.1000   -0.2940   16.1200 P.3   125  UDP125      0.2231
     19  O1A       40.1090    1.1900   16.0240 O.2   125  UDP125     -0.5169
     20  O2A       39.0410   -0.7110   17.0680 O.3   125  UDP125     -0.4370
     21  O3A       41.5370   -0.8310   16.6050 O.3   125  UDP125     -0.2261
     22  PB        42.0980   -2.2710   16.1500 P.3   125  UDP125      0.5373
     23  O1B       40.9800   -3.2310   15.9870 O.3   125  UDP125     -0.1143
     24  O2B       42.7860   -2.1220   14.8430 O.2   125  UDP125     -0.2221
     25  O3B       43.0370   -2.7770   17.1830 O.3   125  UDP125     -0.1143
@<TRIPOS>BOND
     1     7     2    2
     2     2     3    2
     3     2     1   am
     4     3     4    2
     5     9    14    1
     6     9     1    1
     7     9    10    1
     8    14    13    1
     9    11    10    1
    10     1     6    1
    11     4     8    2
    12     4     5    1
    13    10    12    1
    14    13    16    1
    15    13    12    1
    16     6     5    2
    17    16    17    1
    18    12    15    1
    19    17    18    1
    20    24    22    2
    21    23    22    1
    22    19    18    2
    23    18    21    1
    24    18    20    1
    25    22    21    1
    26    22    25    1
