@<TRIPOS>MOLECULE
3dxj_NE6_D_1.pdb
 30 30 0 0 0
SMALL
GASTEIGER

@<TRIPOS>ATOM
      1  O1       -10.1180   58.9040    2.4490 O.2   1529  NE61529    -0.4252
      2  C2       -10.6270   60.1980    2.4510 C.ar  1529  NE61529     0.3517
      3  C3       -12.1180   60.3210    2.5490 C.ar  1529  NE61529     0.1533
      4  O2        -9.8780   61.1750    2.4560 O.2   1529  NE61529    -0.2443
      5  C4       -12.9040   59.1800    2.5200 C.ar  1529  NE61529     0.2078
      6  C5       -12.3160   57.8530    2.5150 C.ar  1529  NE61529     0.0754
      7  C6       -10.9610   57.7290    2.4480 C.ar  1529  NE61529     0.1290
      8  C7       -10.1730   56.4240    2.4430 C.3   1529  NE61529     0.0580
      9  C8       -10.7180   55.4170    1.4100 C.3   1529  NE61529     0.0080
     10  C9       -10.1980   55.7400    3.8410 C.3   1529  NE61529     0.0122
     11  C10       -9.2020   56.3090    4.8220 C.3   1529  NE61529     0.0279
     12  C11       -9.2870   55.7540    6.2260 C.2   1529  NE61529    -0.0081
     13  C12       -8.2090   55.2890    6.8950 C.2   1529  NE61529     0.0875
     14  C13       -7.3080   54.2960    8.9590 C.2   1529  NE61529     0.4256
     15  C14       -6.7260   53.6330   11.2450 C.3   1529  NE61529     0.2574
     16  C15      -12.7590   61.6770    2.5770 C.2   1529  NE61529     0.2010
     17  C16      -12.3900   62.5940    3.7500 C.2   1529  NE61529     0.0174
     18  C17      -11.9990   63.9870    3.2960 C.3   1529  NE61529     0.0344
     19  C18      -12.4340   62.1180    5.0390 C.2   1529  NE61529    -0.0017
     20  C19      -12.1230   62.8430    6.2740 C.2   1529  NE61529    -0.0087
     21  C20      -12.1500   62.3820    7.5570 C.2   1529  NE61529    -0.0439
     22  C21      -12.5070   60.9840    7.9940 C.3   1529  NE61529     0.0264
     23  C22      -11.7820   63.3310    8.6980 C.3   1529  NE61529     0.0220
     24  C23      -12.9990   63.8580    9.4720 C.3   1529  NE61529     0.0043
     25  C24      -12.5660   64.7890   10.5690 C.3   1529  NE61529     0.0003
     26  N12       -8.3460   54.7810    8.1770 N.am  1529  NE61529    -0.1415
     27  O14       -7.6800   53.9260   10.2400 O.3   1529  NE61529    -0.4292
     28  O13       -6.1360   54.2720    8.5970 O.2   1529  NE61529    -0.2242
     29  O4       -14.2840   59.2040    2.5890 O.3   1529  NE61529    -0.2861
     30  O15      -13.5710   62.0400    1.7220 O.2   1529  NE61529    -0.2866
@<TRIPOS>BOND
     1     9     8    1
     2    30    16    2
     3     8     7    1
     4     8    10    1
     5     7     1   ar
     6     7     6   ar
     7     1     2   ar
     8     2     4    2
     9     2     3   ar
    10     6     5   ar
    11     5     3   ar
    12     5    29    1
    13     3    16    1
    14    16    17    1
    15    18    17    1
    16    17    19    2
    17    10    11    1
    18    11    12    1
    19    19    20    1
    20    12    13    2
    21    20    21    2
    22    13    26    1
    23    21    22    1
    24    21    23    1
    25    26    14   am
    26    28    14    2
    27    23    24    1
    28    14    27    1
    29    24    25    1
    30    27    15    1
