@<TRIPOS>MOLECULE
3dxk_N23_B_1.pdb
 20 22 0 0 0
SMALL
GASTEIGER

@<TRIPOS>ATOM
      1  CAO        2.0170   15.5410   38.1230 C.3   395  N23395      0.0661
      2  CAB        0.8470   15.6960   37.1510 C.2   395  N23395      0.1055
      3  NAA        0.2830   14.7030   36.4600 N.2   395  N23395     -0.4065
      4  CAE       -0.7580   15.1930   35.7940 C.ar  395  N23395      0.1307
      5  CAR       -1.6630   14.5680   34.9400 C.ar  395  N23395      0.0320
      6  CAT       -2.6870   15.3020   34.3570 C.ar  395  N23395      0.0026
      7  CAS       -2.8180   16.6590   34.6550 C.ar  395  N23395      0.0002
      8  CAQ       -1.9280   17.2890   35.5130 C.ar  395  N23395      0.0023
      9  CAD       -0.8870   16.5520   36.0720 C.ar  395  N23395      0.0278
     10  CAC        0.1460   16.8760   36.9440 C.2   395  N23395      0.0075
     11  CAN        0.5060   18.2740   37.4520 C.3   395  N23395      0.0521
     12  CAP       -0.2480   18.5770   38.7470 C.3   395  N23395      0.1202
     13  NAM        0.0990   17.5440   39.7360 N.am  395  N23395     -0.2009
     14  CAG        0.9630   17.7870   40.7100 C.2   395  N23395      0.2708
     15  OAK        1.5260   18.8720   40.8850 O.2   395  N23395     -0.2678
     16  CAF        1.2040   16.5970   41.6400 C.ar  395  N23395      0.0845
     17  CAI        0.5270   15.4550   41.5750 C.ar  395  N23395      0.0116
     18  CAL        0.7970   14.5920   42.5620 C.ar  395  N23395      0.0076
     19  CAJ        1.7040   14.9660   43.4650 C.ar  395  N23395      0.0356
     20  SAH        2.2280   16.5250   43.0090 S.2   395  N23395     -0.0819
@<TRIPOS>BOND
     1     6     7   ar
     2     6     5   ar
     3     7     8   ar
     4     5     4   ar
     5     8     9   ar
     6     4     9   ar
     7     4     3    2
     8     9    10    2
     9     3     2    2
    10    10     2    1
    11    10    11    1
    12     2     1    1
    13    11    12    1
    14    12    13    1
    15    13    14   am
    16    14    15    2
    17    14    16    1
    18    17    16   ar
    19    17    18   ar
    20    16    20   ar
    21    18    19   ar
    22    20    19   ar
