@<TRIPOS>MOLECULE
3dxm_N24_A_1.pdb
 21 23 0 0 0
SMALL
GASTEIGER

@<TRIPOS>ATOM
      1  CAJ       13.6090   19.5040   53.8090 C.ar  419  N24419      0.0049
      2  CAN       14.4080   19.6880   54.9510 C.ar  419  N24419      0.0343
      3 BRAR       13.6160   19.6040   56.6880 Br    419  N24419     -0.0490
      4  CAU       15.7760   19.9450   54.7870 C.ar  419  N24419      0.0067
      5  CAT       16.3300   20.0120   53.5050 C.ar  419  N24419      0.0003
      6  CAS       15.5330   19.8220   52.3770 C.ar  419  N24419     -0.0018
      7  CAF       14.1540   19.5710   52.5160 C.ar  419  N24419      0.0069
      8  CAB       13.2900   19.3800   51.2920 C.3   419  N24419      0.1510
      9  SAD       12.2160   20.7540   50.8830 S.3   419  N24419     -0.1066
     10  CAH       10.6910   19.8820   51.0300 C.3   419  N24419      0.1448
     11  CAE       11.1030   18.4390   51.1700 C.2   419  N24419      0.2413
     12  OAK       10.2540   17.5700   51.0640 O.2   419  N24419     -0.2736
     13  NAA       12.4170   18.2290   51.4040 N.am  419  N24419     -0.2434
     14  CAC       12.9380   16.9740   51.4790 C.ar  419  N24419      0.0947
     15  CAG       12.4960   16.1430   52.5120 C.ar  419  N24419      0.0296
     16  CAM       12.9560   14.8410   52.6400 C.ar  419  N24419      0.0591
     17  CAO       13.8830   14.3710   51.7250 C.ar  419  N24419      0.0148
     18  CAL       14.3400   15.1960   50.6890 C.ar  419  N24419      0.0442
     19  CAI       13.8720   16.4980   50.5550 C.ar  419  N24419      0.2093
     20  OAQ       14.3560   17.2490   49.5250 O.3   419  N24419     -0.2852
     21 CL         12.3860   13.7860   53.9760 Cl    419  N24419     -0.0822
@<TRIPOS>BOND
     1    20    19    1
     2    19    18   ar
     3    19    14   ar
     4    18    17   ar
     5     9    10    1
     6     9     8    1
     7    10    11    1
     8    12    11    2
     9    11    13   am
    10     8    13    1
    11     8     7    1
    12    13    14    1
    13    14    15   ar
    14    17    16   ar
    15     6     7   ar
    16     6     5   ar
    17    15    16   ar
    18     7     1   ar
    19    16    21    1
    20     5     4   ar
    21     1     2   ar
    22     4     2   ar
    23     2     3    1
