@<TRIPOS>MOLECULE
3dxu_OGA_A_1.pdb
 10 9 0 0 0
SMALL
GASTEIGER

@<TRIPOS>ATOM
      1  C1         6.2800    2.9840   17.5340 C.2   370  OGA370      0.4419
      2  C2         7.6890    3.2280   17.8660 C.2   370  OGA370      0.3455
      3  C4         9.9990    2.2740   17.5450 C.3   370  OGA370      0.2290
      4  C5        10.3900    0.8160   17.2690 C.2   370  OGA370      0.3866
      5  O1         5.9700    2.0320   16.7850 O.co2 370  OGA370     -0.2354
      6  O2         5.4560    3.7940   18.0190 O.co2 370  OGA370     -0.2354
      7  O2'        7.9540    4.2440   18.4960 O.2   370  OGA370     -0.2611
      8  O3        10.5950    0.4390   16.0950 O.co2 370  OGA370     -0.2437
      9  N1         8.5620    2.3380   17.4020 N.am  370  OGA370     -0.1838
     10  O4        10.4800    0.0080   18.2060 O.co2 370  OGA370     -0.2437
@<TRIPOS>BOND
     1     8     4   ar
     2     5     1   ar
     3     4     3    1
     4     4    10   ar
     5     9     3    1
     6     9     2   am
     7     1     2    1
     8     1     6   ar
     9     2     7    2
