@<TRIPOS>MOLECULE
3dxv_PLP_A_1.pdb
 15 15 0 0 0
SMALL
GASTEIGER

@<TRIPOS>ATOM
      1  N1         5.4510   -5.2480   34.8130 N.2   450  PLP450     -0.2458
      2  C2         5.2310   -3.8970   35.0220 C.2   450  PLP450      0.0942
      3  C2A        4.6830   -3.4650   36.3470 C.3   450  PLP450      0.0552
      4  C3         5.5070   -2.9660   34.0040 C.2   450  PLP450      0.1899
      5  O3         5.2870   -1.7690   34.2210 O.2   450  PLP450     -0.2898
      6  C4         6.0250   -3.4100   32.7670 C.3   450  PLP450      0.0852
      7  C4A        6.3680   -2.4950   31.5990 C.3   450  PLP450      0.0127
      8  C5         6.2280   -4.7920   32.5930 C.2   450  PLP450      0.0118
      9  C6         5.9460   -5.6990   33.6100 C.2   450  PLP450      0.0929
     10  C5A        6.7550   -5.3530   31.3090 C.3   450  PLP450      0.1779
     11  O4P        8.0000   -4.8640   30.7790 O.3   450  PLP450     -0.2656
     12  P          8.3330   -4.9020   29.2140 P.3   450  PLP450      0.5329
     13  O1P        8.1640   -6.3320   28.8810 O.3   450  PLP450     -0.1145
     14  O2P        7.3720   -4.0130   28.5260 O.2   450  PLP450     -0.2224
     15  O3P        9.7130   -4.3990   29.1990 O.3   450  PLP450     -0.1145
@<TRIPOS>BOND
     1    14    12    2
     2    13    12    1
     3    15    12    1
     4    12    11    1
     5    11    10    1
     6    10     8    1
     7     7     6    1
     8     8     6    1
     9     8     9    2
    10     6     4    1
    11     9     1    1
    12     4     5    2
    13     4     2    1
    14     1     2    2
    15     2     3    1
