@<TRIPOS>MOLECULE
3dxw_PLP_A_1.pdb
 15 15 0 0 0
SMALL
GASTEIGER

@<TRIPOS>ATOM
      1  N1         5.4560   -5.1950   34.8290 N.2   450  PLP450     -0.2458
      2  C2         5.2330   -3.8300   35.0200 C.2   450  PLP450      0.0942
      3  C2A        4.6140   -3.3430   36.3030 C.3   450  PLP450      0.0552
      4  C3         5.5760   -2.9160   34.0190 C.2   450  PLP450      0.1899
      5  O3         5.3660   -1.7240   34.2210 O.2   450  PLP450     -0.2898
      6  C4         6.1480   -3.3680   32.8150 C.3   450  PLP450      0.0852
      7  C4A        6.5650   -2.4190   31.7020 C.3   450  PLP450      0.0127
      8  C5         6.3580   -4.7580   32.6500 C.2   450  PLP450      0.0118
      9  C6         6.0130   -5.6630   33.6500 C.2   450  PLP450      0.0929
     10  C5A        6.9560   -5.3350   31.4020 C.3   450  PLP450      0.1779
     11  O4P        8.1400   -4.7340   30.8140 O.3   450  PLP450     -0.2656
     12  P          8.3230   -4.7690   29.2280 P.3   450  PLP450      0.5329
     13  O1P        8.0600   -6.1880   28.9040 O.3   450  PLP450     -0.1145
     14  O2P        7.2520   -3.8860   28.6960 O.2   450  PLP450     -0.2224
     15  O3P        9.6980   -4.2600   29.0390 O.3   450  PLP450     -0.1145
@<TRIPOS>BOND
     1    14    12    2
     2    13    12    1
     3    15    12    1
     4    12    11    1
     5    11    10    1
     6    10     8    1
     7     7     6    1
     8     8     6    1
     9     8     9    2
    10     6     4    1
    11     9     1    1
    12     4     5    2
    13     4     2    1
    14     1     2    2
    15     2     3    1
