@<TRIPOS>MOLECULE
3dxy_SAM_A_1.pdb
 27 29 0 0 0
SMALL
GASTEIGER

@<TRIPOS>ATOM
      1  N         18.9310    3.1540   23.7640 N.3     1  SAM1       -0.1208
      2  CA        18.7190    3.3080   25.2370 C.3     1  SAM1        0.1952
      3  C         18.7500    4.7740   25.6270 C.2     1  SAM1        0.3819
      4  O         19.1690    5.6130   24.8200 O.co2   1  SAM1       -0.2441
      5  OXT       18.3770    5.1470   26.7390 O.co2   1  SAM1       -0.2441
      6  CB        19.7820    2.5530   26.0180 C.3     1  SAM1        0.0414
      7  CG        21.1890    3.1320   25.9470 C.3     1  SAM1        0.0503
      8  SD        22.2820    2.2300   27.0690 S.3     1  SAM1       -0.1761
      9  CE        23.6800    3.3710   27.2350 C.3     1  SAM1        0.0590
     10  C5'       22.9180    0.9230   25.9900 C.3     1  SAM1        0.0806
     11  C4'       22.0310   -0.3130   26.0540 C.3     1  SAM1        0.1622
     12  O4'       22.5240   -1.2840   25.1570 O.3     1  SAM1       -0.3153
     13  C3'       22.0200   -0.9630   27.4330 C.3     1  SAM1        0.2168
     14  O3'       20.6850   -0.9960   27.9020 O.3     1  SAM1       -0.2175
     15  C2'       22.5760   -2.3630   27.2080 C.3     1  SAM1        0.2569
     16  O2'       21.9670   -3.3500   28.0160 O.3     1  SAM1       -0.2130
     17  C1'       22.2850   -2.5500   25.7280 C.3     1  SAM1        0.3185
     18  N9        23.1350   -3.5290   25.0590 N.pl3   1  SAM1       -0.1439
     19  C8        24.5030   -3.5590   25.0140 C.3     1  SAM1        0.3377
     20  N7        24.8810   -4.6270   24.2770 N.2     1  SAM1       -0.2095
     21  C5        23.7730   -5.2700   23.8430 C.2     1  SAM1        0.2526
     22  C6        23.5960   -6.4140   23.0670 C.2     1  SAM1        0.4393
     23  N6        24.6350   -7.0950   22.5810 N.pl3   1  SAM1        0.2180
     24  N1        22.3190   -6.8340   22.8010 N.2     1  SAM1        0.0021
     25  C2        21.2280   -6.1280   23.2820 C.3     1  SAM1        0.5254
     26  N3        21.3970   -5.0000   24.0600 N.2     1  SAM1       -0.0055
     27  C4        22.6640   -4.5850   24.3310 C.2     1  SAM1        0.3518
@<TRIPOS>BOND
     1    23    22    1
     2    24    22    2
     3    24    25    1
     4    22    21    1
     5    25    26    1
     6     1     2    1
     7    21    20    2
     8    21    27    1
     9    26    27    2
    10    20    19    1
    11    27    18    1
    12     4     3   ar
    13    19    18    1
    14    18    17    1
    15    12    17    1
    16    12    11    1
    17     2     3    1
    18     2     6    1
    19     3     5   ar
    20    17    15    1
    21     7     6    1
    22     7     8    1
    23    10    11    1
    24    10     8    1
    25    11    13    1
    26     8     9    1
    27    15    13    1
    28    15    16    1
    29    13    14    1
