@<TRIPOS>MOLECULE
3dxz_SAH_A_1.pdb
 26 28 0 0 0
SMALL
GASTEIGER

@<TRIPOS>ATOM
      1  N         18.5120    0.0010    5.1850 N.3     1  SAH1       -0.1208
      2  CA        18.2910   -0.1440    3.7180 C.3     1  SAH1        0.1952
      3  CB        19.3790    0.5670    2.9140 C.3     1  SAH1        0.0422
      4  CG        20.8000    0.0640    3.1470 C.3     1  SAH1        0.0597
      5  SD        21.9940    0.9140    2.0800 S.3     1  SAH1       -0.1375
      6  C         18.2740   -1.6140    3.3410 C.2     1  SAH1        0.3819
      7  O         18.6660   -2.4730    4.1470 O.co2   1  SAH1       -0.2441
      8  OXT       17.8820   -1.9480    2.2190 O.co2   1  SAH1       -0.2441
      9  C5'       22.4700    2.1940    3.2730 C.3     1  SAH1        0.0899
     10  C4'       21.6750    3.4820    3.1160 C.3     1  SAH1        0.1630
     11  O4'       22.1940    4.4660    4.0040 O.3     1  SAH1       -0.3153
     12  C3'       21.7360    4.0820    1.7090 C.3     1  SAH1        0.2168
     13  O3'       20.4350    4.2030    1.1740 O.3     1  SAH1       -0.2175
     14  C2'       22.3990    5.4470    1.9130 C.3     1  SAH1        0.2569
     15  O2'       21.9230    6.4970    1.0910 O.3     1  SAH1       -0.2130
     16  C1'       22.0670    5.7160    3.3660 C.3     1  SAH1        0.3185
     17  N9        22.9580    6.6650    4.0330 N.pl3   1  SAH1       -0.1439
     18  C8        24.3280    6.6270    4.0710 C.3     1  SAH1        0.3377
     19  N7        24.7430    7.6720    4.8220 N.2     1  SAH1       -0.2095
     20  C5        23.6680    8.3600    5.2800 C.2     1  SAH1        0.2526
     21  C6        23.5160    9.4940    6.0850 C.2     1  SAH1        0.4393
     22  N6        24.5670   10.1520    6.5830 N.pl3   1  SAH1        0.2180
     23  N1        22.2480    9.9570    6.3690 N.2     1  SAH1        0.0021
     24  C2        21.1360    9.3080    5.8710 C.3     1  SAH1        0.5254
     25  N3        21.2850    8.1870    5.0820 N.2     1  SAH1       -0.0055
     26  C4        22.5300    7.7190    4.7960 C.2     1  SAH1        0.3518
@<TRIPOS>BOND
     1    15    14    1
     2    13    12    1
     3    12    14    1
     4    12    10    1
     5    14    16    1
     6     5     4    1
     7     5     9    1
     8     8     6   ar
     9     3     4    1
    10     3     2    1
    11    10     9    1
    12    10    11    1
    13     6     2    1
    14     6     7   ar
    15    16    11    1
    16    16    17    1
    17     2     1    1
    18    17    18    1
    19    17    26    1
    20    18    19    1
    21    26    25    2
    22    26    20    1
    23    19    20    2
    24    25    24    1
    25    20    21    1
    26    24    23    1
    27    21    23    2
    28    21    22    1
