@<TRIPOS>MOLECULE
3dy0_SGN_A_1.pdb
 19 19 0 0 0
SMALL
GASTEIGER

@<TRIPOS>ATOM
      1  C1         9.0010   19.4940  -19.7470 C.3   504  SGN504      0.2893
      2  C2        10.3940   20.0850  -19.3940 C.3   504  SGN504      0.1832
      3  C3        11.3470   19.9130  -20.5980 C.3   504  SGN504      0.1772
      4  C4        11.4810   18.3980  -20.8910 C.3   504  SGN504      0.0669
      5  C5        10.0520   17.8520  -21.2290 C.3   504  SGN504      0.1524
      6  C6         9.9810   16.3430  -21.5090 C.3   504  SGN504      0.2020
      7  N         10.2180   21.5020  -19.0270 N.3   504  SGN504     -0.1129
      8  O1         8.3640   20.2410  -20.7610 O.3   504  SGN504     -0.1882
      9  O3        12.6190   20.4430  -20.2750 O.3   504  SGN504     -0.2213
     10  O5         9.1230   18.1260  -20.1450 O.3   504  SGN504     -0.3271
     11  O6        10.4030   15.6460  -20.3550 O.3   504  SGN504     -0.2385
     12  S1         9.9230   21.9250  -17.4630 S.3   504  SGN504     -0.1288
     13  O1S       10.1000   20.7770  -16.6230 O.3   504  SGN504     -0.2918
     14  O2S       10.8470   22.9820  -17.1660 O.3   504  SGN504     -0.2918
     15  O3S        8.5590   22.3770  -17.4590 O.3   504  SGN504     -0.2918
     16  S2        10.1530   14.1460  -19.9960 S.3   504  SGN504     -0.0001
     17  O4S       10.7910   13.9090  -18.7350 O.3   504  SGN504     -0.2682
     18  O5S        8.7230   14.0180  -19.9290 O.2   504  SGN504     -0.3452
     19  O6S       10.7220   13.3790  -21.0660 O.2   504  SGN504     -0.3452
@<TRIPOS>BOND
     1     6     5    1
     2     6    11    1
     3     5     4    1
     4     5    10    1
     5    19    16    2
     6     4     3    1
     7     8     1    1
     8     3     9    1
     9     3     2    1
    10    11    16    1
    11    10     1    1
    12    16    18    2
    13    16    17    1
    14     1     2    1
    15     2     7    1
    16     7    12    1
    17    12    15    1
    18    12    14    1
    19    12    13    1
