@<TRIPOS>MOLECULE
3dy3_SLR_K_1.pdb
 15 15 0 0 0
SMALL
GASTEIGER

@<TRIPOS>ATOM
      1  C1        12.0960 -140.7080   12.8480 C.3   301  SLR301      0.1980
      2  C2        12.7090 -141.0910   14.2410 C.3   301  SLR301      0.1390
      3  C3        13.3160 -139.7790   14.6610 C.1   301  SLR301      0.1279
      4  N4        12.8240 -138.7720   13.9070 N.2   301  SLR301     -0.1974
      5  C5        11.8480 -139.1400   12.8910 C.3   301  SLR301      0.2091
      6  C6        12.2260 -138.6300   11.5280 C.2   301  SLR301      0.2350
      7  O7        13.2310 -137.9260   11.3580 O.2   301  SLR301     -0.2860
      8  O8        10.8590 -141.4070   12.5690 O.3   301  SLR301     -0.2194
      9  C9        13.7710 -142.2220   14.1420 C.3   301  SLR301      0.0204
     10  O10       14.1320 -139.6570   15.5680 O.2   301  SLR301     -0.2270
     11  C11       10.3770 -138.6960   13.3570 C.3   301  SLR301      0.1827
     12  O12        9.9370 -139.5010   14.4880 O.3   301  SLR301     -0.2205
     13  C13       10.1820 -137.1960   13.8530 C.3   301  SLR301      0.0329
     14  C14       10.5770 -136.0680   12.8390 C.3   301  SLR301      0.0027
     15  C15        8.7000 -136.9280   14.2510 C.3   301  SLR301      0.0027
@<TRIPOS>BOND
     1     7     6    2
     2     6     5    1
     3     8     1    1
     4    14    13    1
     5     1     5    1
     6     1     2    1
     7     5    11    1
     8     5     4    1
     9    11    13    1
    10    11    12    1
    11    13    15    1
    12     4     3    2
    13     9     2    1
    14     2     3    1
    15     3    10    2
