@<TRIPOS>MOLECULE
3dy4_SLA_H_1.pdb
 15 15 0 0 0
SMALL
GASTEIGER

@<TRIPOS>ATOM
      1  C1        62.6120 -138.5180   41.5940 C.3   301  SLA301      0.1980
      2  C2        61.5230 -138.6990   40.4780 C.3   301  SLA301      0.1390
      3  C3        60.6150 -137.5270   40.7860 C.1   301  SLA301      0.1279
      4  N4        61.2490 -136.6390   41.5780 N.2   301  SLA301     -0.1974
      5  C5        62.6270 -136.9760   41.9660 C.3   301  SLA301      0.2091
      6  C6        62.8380 -136.8200   43.4590 C.2   301  SLA301      0.2350
      7  O7        61.9000 -136.4510   44.1700 O.2   301  SLA301     -0.2860
      8  O8        62.2920 -139.2960   42.7980 O.3   301  SLA301     -0.2194
      9  C9        60.7660 -140.0720   40.5220 C.3   301  SLA301      0.0204
     10  O10       59.4710 -137.4100   40.3630 O.2   301  SLA301     -0.2270
     11  C11       63.7080 -136.1450   41.1250 C.3   301  SLA301      0.1827
     12  O12       63.4020 -136.2490   39.7200 O.3   301  SLA301     -0.2205
     13  C13       63.8590 -134.6060   41.5480 C.3   301  SLA301      0.0329
     14  C14       64.9130 -133.8610   40.6780 C.3   301  SLA301      0.0027
     15  C15       62.5290 -133.7930   41.4720 C.3   301  SLA301      0.0027
@<TRIPOS>BOND
     1    12    11    1
     2    10     3    2
     3     2     9    1
     4     2     3    1
     5     2     1    1
     6    14    13    1
     7     3     4    2
     8    11    13    1
     9    11     5    1
    10    15    13    1
    11     4     5    1
    12     1     5    1
    13     1     8    1
    14     5     6    1
    15     6     7    2
