@<TRIPOS>MOLECULE
3dy6_DY6_A_1.pdb
 31 34 0 0 0
SMALL
GASTEIGER

@<TRIPOS>ATOM
      1  N1        33.1580    7.3050   61.1190 N.3   478  DY6478     -0.1507
      2  S2        32.6350    5.7080   61.4620 S.O2  478  DY6478      0.0636
      3  C3        34.4990    7.3470   60.4950 C.3   478  DY6478      0.1218
      4  C4        32.8260    8.3220   62.1630 C.3   478  DY6478      0.1008
      5  C5        31.4060    5.8060   60.1760 C.ar  478  DY6478      0.1224
      6  O6        31.9820    5.5900   62.7600 O.2   478  DY6478     -0.1528
      7  O7        33.6200    4.7390   61.0290 O.2   478  DY6478     -0.1528
      8  C8        35.0550    8.7150   60.3940 C.ar  478  DY6478     -0.0084
      9  C9        33.9220    9.2930   62.5420 C.3   478  DY6478      0.0452
     10  C10       31.7060    5.3660   58.9030 C.ar  478  DY6478      0.0245
     11  C11       30.1790    6.3550   60.4830 C.ar  478  DY6478      0.0199
     12  C12       34.7770    9.6430   61.3740 C.ar  478  DY6478     -0.0233
     13  C13       35.8480    9.0440   59.3210 C.ar  478  DY6478     -0.0032
     14  C14       30.7310    5.4710   57.9300 C.ar  478  DY6478      0.0567
     15  C15       29.2220    6.4560   59.4960 C.ar  478  DY6478      0.0015
     16  C16       35.3000   10.9120   61.2780 C.ar  478  DY6478     -0.0045
     17  C17       36.3680   10.3140   59.2340 C.ar  478  DY6478     -0.0003
     18  C18       30.9970    5.0030   56.5630 C.2   478  DY6478      0.2690
     19  C19       29.4990    6.0090   58.2200 C.ar  478  DY6478      0.0047
     20  C20       36.0970   11.2480   60.2100 C.ar  478  DY6478     -0.0003
     21  N21       30.5110    5.8340   55.5860 N.am  478  DY6478     -0.1752
     22  O22       31.5980    3.9530   56.3740 O.2   478  DY6478     -0.2680
     23  C23       30.6860    5.5720   54.2090 C.ar  478  DY6478      0.0800
     24  C24       30.0130    6.3410   53.2820 C.ar  478  DY6478      0.0951
     25  C25       31.5210    4.5620   53.7860 C.ar  478  DY6478      0.0168
     26  C26       30.1710    6.1050   51.9390 C.ar  478  DY6478      0.0079
     27  C27       29.1170    7.4220   53.7000 C.2   478  DY6478      0.3890
     28  C28       31.6760    4.3240   52.4430 C.ar  478  DY6478      0.0013
     29  C29       31.0030    5.0940   51.5240 C.ar  478  DY6478      0.0003
     30  O30       28.6260    7.3480   54.8560 O.co2 478  DY6478     -0.2405
     31  O31       28.9160    8.3300   52.8510 O.co2 478  DY6478     -0.2405
@<TRIPOS>BOND
     1    29    26   ar
     2    29    28   ar
     3    26    24   ar
     4    28    25   ar
     5    31    27   ar
     6    24    27    1
     7    24    23   ar
     8    27    30   ar
     9    25    23   ar
    10    23    21    1
    11    21    18   am
    12    22    18    2
    13    18    14    1
    14    14    19   ar
    15    14    10   ar
    16    19    15   ar
    17    10     5   ar
    18    17    13   ar
    19    17    20   ar
    20    13     8   ar
    21    15    11   ar
    22     5    11   ar
    23     5     2    1
    24    20    16   ar
    25     8     3    1
    26     8    12   ar
    27     3     1    1
    28     7     2    2
    29     1     2    1
    30     1     4    1
    31    16    12   ar
    32    12     9    1
    33     2     6    2
    34     4     9    1
