@<TRIPOS>MOLECULE
3dy7_1CX_A_1.pdb
 24 25 0 0 0
SMALL
GASTEIGER

@<TRIPOS>ATOM
      1  N1        39.8250  -14.3060    6.7210 N.pl3 9002  1CX9002    -0.2077
      2  C4        40.1590  -16.6760    6.3200 C.ar  9002  1CX9002     0.0192
      3  C5        40.8470  -17.8240    6.6840 C.ar  9002  1CX9002     0.0073
      4  C6        41.7750  -17.8330    7.7130 C.ar  9002  1CX9002     0.0324
      5  C7        39.2230  -12.9730    4.8320 C.ar  9002  1CX9002     0.0747
      6  C8        38.3340  -12.7730    3.8060 C.ar  9002  1CX9002     0.0084
      7  C10       37.1020  -14.6720    4.5180 C.ar  9002  1CX9002     0.1687
      8  C13       40.3400  -12.0170    4.9900 C.2   9002  1CX9002     0.2914
      9  C15       42.2130   -8.1190    5.2330 C.3   9002  1CX9002     0.2167
     10  C1        42.0090  -16.6440    8.3430 C.ar  9002  1CX9002     0.0368
     11  C2        41.3260  -15.5210    7.9780 C.ar  9002  1CX9002     0.1556
     12  C3        40.4040  -15.4980    6.9830 C.ar  9002  1CX9002     0.0979
     13  I1        42.8430  -19.4690    8.3210 I     9002  1CX9002    -0.0424
     14  C9        37.2710  -13.6310    3.6470 C.ar  9002  1CX9002     0.0322
     15  C11       37.9990  -14.8370    5.5240 C.ar  9002  1CX9002     0.1826
     16  C12       39.0420  -14.0260    5.6860 C.ar  9002  1CX9002     0.1046
     17  F1        36.0770  -15.4960    4.3790 F     9002  1CX9002    -0.2018
     18  F2        37.9180  -15.8000    6.3960 F     9002  1CX9002    -0.2004
     19  F3        41.5730  -14.4120    8.6250 F     9002  1CX9002    -0.2028
     20  O1        41.0060  -12.0110    5.9720 O.2   9002  1CX9002    -0.2661
     21  N2        40.5960  -11.1190    4.0960 N.am  9002  1CX9002    -0.0577
     22  O2        41.6210  -10.3020    4.3880 O.3   9002  1CX9002    -0.2409
     23  C14       41.5130   -8.9080    4.1450 C.3   9002  1CX9002     0.2088
     24  O3        41.3970   -8.1250    6.3920 O.3   9002  1CX9002    -0.2175
@<TRIPOS>BOND
     1    14     6   ar
     2    14     7   ar
     3     6     5   ar
     4    21    22    1
     5    21     8   am
     6    23    22    1
     7    23     9    1
     8    17     7    1
     9     7    15   ar
    10     5     8    1
    11     5    16   ar
    12     8    20    2
    13     9    24    1
    14    15    16   ar
    15    15    18    1
    16    16     1    1
    17     2     3   ar
    18     2    12   ar
    19     3     4   ar
    20     1    12    1
    21    12    11   ar
    22     4    13    1
    23     4    10   ar
    24    11    10   ar
    25    11    19    1
