@<TRIPOS>MOLECULE
3dy7_ATP_A_1.pdb
 31 33 0 0 0
SMALL
GASTEIGER

@<TRIPOS>ATOM
      1  PG        45.3140   -6.6230    2.2900 P.3   9000  ATP9000     0.5373
      2  O1G       44.2810   -6.7550    3.3900 O.3   9000  ATP9000    -0.1143
      3  O2G       45.6220   -5.2160    1.8390 O.3   9000  ATP9000    -0.1143
      4  O3G       45.0930   -7.6270    1.1920 O.2   9000  ATP9000    -0.2221
      5  PB        47.0790   -7.9810    4.1000 P.3   9000  ATP9000     0.2277
      6  O1B       46.5040   -9.3480    3.7730 O.2   9000  ATP9000    -0.5168
      7  O2B       48.5420   -7.7630    4.3840 O.3   9000  ATP9000    -0.4368
      8  O3B       46.7710   -6.9870    2.8730 O.3   9000  ATP9000    -0.2258
      9  PA        45.9160   -8.4570    6.4880 P.3   9000  ATP9000     0.2189
     10  O1A       45.2170   -7.7710    7.6280 O.3   9000  ATP9000    -0.4371
     11  O2A       45.2720   -9.6730    5.8550 O.2   9000  ATP9000    -0.5170
     12  O3A       46.2050   -7.4060    5.3140 O.3   9000  ATP9000    -0.2700
     13  O5'       47.4550   -8.7490    6.8540 O.3   9000  ATP9000    -0.3112
     14  C5'       47.9750   -8.5770    8.1700 C.3   9000  ATP9000     0.1813
     15  C4'       49.5010   -8.6070    8.1460 C.3   9000  ATP9000     0.1821
     16  O4'       49.9330   -9.1840    9.3830 O.3   9000  ATP9000    -0.3135
     17  C3'       50.0750   -9.4570    7.0230 C.3   9000  ATP9000     0.2184
     18  O3'       50.7940   -8.6220    6.1110 O.3   9000  ATP9000    -0.2174
     19  C2'       51.0580  -10.3750    7.7000 C.3   9000  ATP9000     0.2570
     20  O2'       52.3380   -9.7480    7.6210 O.3   9000  ATP9000    -0.2130
     21  C1'       50.6630  -10.3860    9.1610 C.3   9000  ATP9000     0.3186
     22  N9        49.8080  -11.5500    9.4840 N.pl3 9000  ATP9000    -0.1439
     23  C8        48.5280  -11.7370    9.1270 C.3   9000  ATP9000     0.3377
     24  N7        48.0570  -12.9290    9.6020 N.2   9000  ATP9000    -0.2095
     25  C5        49.0640  -13.5200   10.2940 C.2   9000  ATP9000     0.2526
     26  C6        49.2820  -14.7870   11.0580 C.2   9000  ATP9000     0.4393
     27  N6        48.3070  -15.7270   11.2120 N.pl3 9000  ATP9000     0.2180
     28  N1        50.5080  -14.9920   11.6020 N.2   9000  ATP9000     0.0021
     29  C2        51.5130  -14.1040   11.4770 C.3   9000  ATP9000     0.5254
     30  N3        51.3850  -12.9480   10.8070 N.2   9000  ATP9000    -0.0055
     31  C4        50.2120  -12.6010   10.2070 C.2   9000  ATP9000     0.3518
@<TRIPOS>BOND
     1     4     1    2
     2     3     1    1
     3     1     8    1
     4     1     2    1
     5     8     5    1
     6     6     5    2
     7     5     7    1
     8     5    12    1
     9    12     9    1
    10    11     9    2
    11    18    17    1
    12     9    13    1
    13     9    10    1
    14    13    14    1
    15    17    19    1
    16    17    15    1
    17    20    19    1
    18    19    21    1
    19    15    14    1
    20    15    16    1
    21    23    22    1
    22    23    24    1
    23    21    16    1
    24    21    22    1
    25    22    31    1
    26    24    25    2
    27    31    25    1
    28    31    30    2
    29    25    26    1
    30    30    29    1
    31    26    27    1
    32    26    28    2
    33    29    28    1
