@<TRIPOS>MOLECULE
3dy8_IBM_B_1.pdb
 16 17 0 0 0
SMALL
GASTEIGER

@<TRIPOS>ATOM
      1  N9        97.0250   19.2670   12.5350 N.2   900  IBM900     -0.2256
      2  C8        97.3700   18.9830   11.2540 C.3   900  IBM900      0.2523
      3  N7        97.0740   20.0250   10.4450 N.2   900  IBM900     -0.2364
      4  C5        96.5390   20.9910   11.2190 C.ar  900  IBM900      0.1681
      5  C4        96.5220   20.5230   12.5160 C.ar  900  IBM900      0.1667
      6  N3        96.0630   21.2410   13.5610 N.ar  900  IBM900     -0.2651
      7  C2        95.6150   22.5010   13.3060 C.ar  900  IBM900      0.3350
      8  N1        95.6240   23.0220   11.9890 N.ar  900  IBM900     -0.2454
      9  C6        96.0960   22.2770   10.9710 C.ar  900  IBM900      0.2846
     10  O6        96.1230   22.6900    9.7880 O.2   900  IBM900     -0.2651
     11  O2        95.1420   23.2720   14.1690 O.2   900  IBM900     -0.2461
     12  C10       95.1020   24.3930   11.7920 C.3   900  IBM900      0.1383
     13  C11       96.1310   20.6080   14.9040 C.3   900  IBM900      0.1119
     14  C12       94.8670   20.4100   15.7450 C.3   900  IBM900      0.0228
     15  C13       95.0380   19.1630   16.6000 C.3   900  IBM900      0.0020
     16  C14       93.5460   20.3320   14.9960 C.3   900  IBM900      0.0020
@<TRIPOS>BOND
     1    10     9    2
     2     3     4    2
     3     3     2    1
     4     9     4   ar
     5     9     8   ar
     6     4     5   ar
     7     2     1    1
     8    12     8    1
     9     8     7   ar
    10     5     1    2
    11     5     6   ar
    12     7     6   ar
    13     7    11    2
    14     6    13    1
    15    13    14    1
    16    16    14    1
    17    14    15    1
