@<TRIPOS>MOLECULE
3dy8_5GP_A_1.pdb
 24 26 0 0 0
SMALL
GASTEIGER

@<TRIPOS>ATOM
      1  P         82.7460   48.2560   40.2760 P.3   900  5GP900      0.5327
      2  O1P       82.9610   49.3010   39.2240 O.2   900  5GP900     -0.2224
      3  O2P       83.7110   47.0870   40.2960 O.3   900  5GP900     -0.1145
      4  O3P       82.4560   48.8010   41.6580 O.3   900  5GP900     -0.1145
      5  O5'       81.4180   47.5380   39.7180 O.3   900  5GP900     -0.2675
      6  C5'       80.1810   47.5530   40.4100 C.3   900  5GP900      0.1859
      7  C4'       79.3080   48.6320   39.7980 C.3   900  5GP900      0.1801
      8  O4'       78.0540   48.5890   40.4680 O.3   900  5GP900     -0.3326
      9  C3'       79.8570   50.0460   39.9570 C.3   900  5GP900      0.2158
     10  O3'       80.6310   50.4730   38.8370 O.3   900  5GP900     -0.2175
     11  C2'       78.6160   50.8790   40.1070 C.3   900  5GP900      0.2310
     12  O2'       78.1570   51.3890   38.8570 O.3   900  5GP900     -0.2158
     13  C1'       77.5870   49.9030   40.6290 C.3   900  5GP900      0.2293
     14  N9        77.4310   50.2130   42.0630 N.pl3 900  5GP900     -0.2354
     15  C8        78.1900   49.8160   43.1260 C.3   900  5GP900      0.2246
     16  N7        77.7110   50.3350   44.2920 N.2   900  5GP900     -0.2322
     17  C5        76.6260   51.0860   43.9630 C.2   900  5GP900      0.2182
     18  C6        75.6990   51.8460   44.6400 C.1   900  5GP900      0.2372
     19  O6        75.7990   51.9540   45.8940 O.2   900  5GP900     -0.2069
     20  N1        74.7190   52.4890   43.8980 N.2   900  5GP900     -0.2485
     21  C2        74.6210   52.3650   42.5390 C.1   900  5GP900      0.2531
     22  N2        73.6570   52.9470   41.8300 N.pl3 900  5GP900     -0.0226
     23  N3        75.4680   51.6120   41.8310 N.2   900  5GP900     -0.3074
     24  C4        76.4630   50.9930   42.4880 C.2   900  5GP900      0.2300
@<TRIPOS>BOND
     1    10     9    1
     2    12    11    1
     3     2     1    2
     4     5     1    1
     5     5     6    1
     6     7     9    1
     7     7     6    1
     8     7     8    1
     9     9    11    1
    10    11    13    1
    11     1     3    1
    12     1     4    1
    13     8    13    1
    14    13    14    1
    15    22    21    1
    16    23    24    2
    17    23    21    2
    18    14    24    1
    19    14    15    1
    20    24    17    1
    21    21    20    2
    22    15    16    1
    23    20    18    2
    24    17    16    2
    25    17    18    1
    26    18    19    2
