@<TRIPOS>MOLECULE
3dya_PZL_A_1.pdb
 28 31 0 0 0
SMALL
GASTEIGER

@<TRIPOS>ATOM
      1  N19       49.3940   66.2110   23.5460 N.1   562  PZL562     -0.1908
      2  C16       49.1770   65.7480   22.5070 C.1   562  PZL562      0.1005
      3  C13       48.9540   65.0650   21.4540 C.ar  562  PZL562      0.0723
      4  C12       48.8890   63.6860   21.5910 C.ar  562  PZL562      0.0219
      5  C11       48.6160   62.9020   20.4850 C.ar  562  PZL562      0.0614
      6 CL15       48.5710   61.1260   20.6250 Cl    562  PZL562     -0.0821
      7  C10       48.4050   63.4700   19.2490 C.ar  562  PZL562      0.0489
      8  C14       48.7370   65.6520   20.2090 C.ar  562  PZL562      0.0478
      9  C9        48.4650   64.8410   19.1070 C.ar  562  PZL562      0.1469
     10  O8        48.2110   65.3760   17.8640 O.3   562  PZL562     -0.4507
     11  C3        48.8460   64.9760   16.7290 C.ar  562  PZL562      0.1783
     12  C4        48.0450   64.5980   15.7080 C.ar  562  PZL562      0.0713
     13 BR17       46.2140   64.6820   16.0970 Br    562  PZL562     -0.0457
     14  C2        50.2190   64.9580   16.5960 C.ar  562  PZL562      0.1712
     15  F5        50.9460   65.3450   17.6410 F     562  PZL562     -0.2013
     16  C6        50.7820   64.5170   15.3960 C.ar  562  PZL562      0.0144
     17  C7        49.9530   64.1460   14.3460 C.ar  562  PZL562     -0.0010
     18  C1        48.5730   64.1710   14.4940 C.ar  562  PZL562      0.0096
     19  C18       52.2760   64.5170   15.1590 C.3   562  PZL562      0.0770
     20  C26       52.4850   65.8990   14.5660 C.2   562  PZL562      0.0951
     21  N27       52.3700   66.2410   13.2610 N.2   562  PZL562     -0.1425
     22  N28       52.5870   67.6250   13.1120 N.2   562  PZL562     -0.0922
     23  C24       52.7980   68.0940   14.3400 C.1   562  PZL562      0.0785
     24  N20       53.0480   69.3770   14.7070 N.2   562  PZL562     -0.0919
     25  C25       52.7360   67.0680   15.2530 C.2   562  PZL562      0.0830
     26  C23       52.9380   67.3310   16.5990 C.2   562  PZL562      0.0339
     27  C22       53.2020   68.6400   17.0060 C.2   562  PZL562      0.1236
     28  N21       53.2500   69.6300   16.0920 N.2   562  PZL562     -0.1375
@<TRIPOS>BOND
     1    22    21    1
     2    22    23    2
     3    21    20    2
     4    23    24    2
     5    23    25    1
     6    17    18   ar
     7    17    16   ar
     8    18    12   ar
     9    20    19    1
    10    20    25    1
    11    24    28    1
    12    19    16    1
    13    25    26    2
    14    16    14   ar
    15    12    13    1
    16    12    11   ar
    17    28    27    2
    18    14    11   ar
    19    14    15    1
    20    26    27    1
    21    11    10    1
    22    10     9    1
    23     9     7   ar
    24     9     8   ar
    25     7     5   ar
    26     8     3   ar
    27     5     6    1
    28     5     4   ar
    29     3     4   ar
    30     3     2    1
    31     2     1    3
