@<TRIPOS>MOLECULE
3dyb_EPE_A_1.pdb
 33 33 0 0 0
SMALL
GASTEIGER

@<TRIPOS>ATOM
      1  N1        -3.2780    9.2020   -1.4440 N.3   400  EPE400     -0.3043
      2  C2        -4.3280   10.1540   -1.8280 C.3   400  EPE400     -0.0160
      3  C3        -3.7330   11.3220   -2.6060 C.3   400  EPE400     -0.0774
      4  N4        -2.6660   12.0010   -1.8930 N.4   400  EPE400      0.3828
      5  C5        -1.6850   11.0560   -1.3780 C.3   400  EPE400     -0.0774
      6  C6        -2.3110    9.9050   -0.5920 C.3   400  EPE400     -0.0160
      7  C7        -2.0300   12.9330   -2.8040 C.3   400  EPE400     -0.0667
      8  C8        -2.1730   14.3750   -2.3420 C.3   400  EPE400      0.0295
      9  O8        -1.6550   14.5060   -1.0370 O.3   400  EPE400     -0.3968
     10  C9        -3.8680    8.0360   -0.7460 C.3   400  EPE400      0.0187
     11  C10       -4.7730    8.4590    0.4100 C.3   400  EPE400      0.0855
     12  S         -6.1760    7.3380    0.7020 S.3   400  EPE400      0.0131
     13  O1S       -5.9810    6.0770   -0.0180 O.3   400  EPE400     -0.0701
     14  O2S       -7.4020    7.9700    0.2270 O.3   400  EPE400     -0.0701
     15  O3S       -6.3050    7.0480    2.1320 O.3   400  EPE400     -0.0701
     16  H21       -4.8280   10.5290   -0.9350 H     400  EPE400      0.0408
     17  H22       -5.0720    9.6470   -2.4410 H     400  EPE400      0.0408
     18  H31       -4.5230   12.0390   -2.8320 H     400  EPE400      0.0071
     19  H32       -3.3430   10.9540   -3.5530 H     400  EPE400      0.0071
     20  H51       -0.9860   11.5870   -0.7320 H     400  EPE400      0.0071
     21  H52       -1.1150   10.6480   -2.2120 H     400  EPE400      0.0071
     22  H61       -1.5320    9.2130   -0.2700 H     400  EPE400      0.0408
     23  H62       -2.8110   10.2920    0.2950 H     400  EPE400      0.0408
     24  H71       -2.4730   12.8280   -3.7940 H     400  EPE400      0.0081
     25  H72       -0.9710   12.6860   -2.8880 H     400  EPE400      0.0081
     26  H81       -3.2230   14.6580   -2.3610 H     400  EPE400      0.0538
     27  H82       -1.6340   15.0320   -3.0220 H     400  EPE400      0.0538
     28  HO8       -0.8510   15.0660   -1.0600 H     400  EPE400      0.2093
     29  H91       -4.4460    7.4460   -1.4570 H     400  EPE400      0.0442
     30  H92       -3.0670    7.4030   -0.3630 H     400  EPE400      0.0442
     31 H101       -4.1750    8.5180    1.3200 H     400  EPE400      0.0518
     32 H102       -5.1580    9.4590    0.2110 H     400  EPE400      0.0518
     33  HN4       -3.0610   12.5150   -1.1190 H     400  EPE400     -0.0816
@<TRIPOS>BOND
     1    24     7    1
     2    19     3    1
     3    27     8    1
     4    25     7    1
     5    18     3    1
     6     7     8    1
     7     7     4    1
     8     3     4    1
     9     3     2    1
    10    17     2    1
    11    26     8    1
    12     8     9    1
    13    21     5    1
    14     4     5    1
    15     4    33    1
    16     2     1    1
    17     2    16    1
    18    29    10    1
    19     1    10    1
    20     1     6    1
    21     5    20    1
    22     5     6    1
    23    28     9    1
    24    10    30    1
    25    10    11    1
    26     6    22    1
    27     6    23    1
    28    13    12    1
    29    32    11    1
    30    14    12    1
    31    11    12    1
    32    11    31    1
    33    12    15    1
