@<TRIPOS>MOLECULE
3dyb_AD0_A_1.pdb
 30 30 0 0 0
SMALL
GASTEIGER

@<TRIPOS>ATOM
      1  C1       -44.4720   26.6820    1.6660 C.3   500  AD0500      0.2693
      2  C2       -45.0960   25.9450    2.8430 C.3   500  AD0500      0.2406
      3  C3       -46.3970   26.6210    3.2650 C.3   500  AD0500      0.2203
      4  C4       -47.2990   26.8710    2.0620 C.3   500  AD0500      0.2229
      5  C5       -46.5300   27.5060    0.9070 C.3   500  AD0500      0.2529
      6  C6       -46.0970   28.9280    1.2450 C.2   500  AD0500      0.3941
      7  O1       -43.2650   26.1330    1.2750 O.3   500  AD0500     -0.3387
      8  O2       -45.3590   24.6090    2.4760 O.3   500  AD0500     -0.2149
      9  O3       -46.1050   27.8480    3.8940 O.3   500  AD0500     -0.2174
     10  O4       -48.3620   27.7200    2.4390 O.3   500  AD0500     -0.2171
     11  O5       -45.3950   26.7240    0.6020 O.3   500  AD0500     -0.3169
     12  O6       -46.1200   29.2800    2.4450 O.co2 500  AD0500     -0.2429
     13  C1'      -40.3830   25.5980   -0.6000 C.3   500  AD0500      0.2257
     14  O60      -45.7420   29.6710    0.3050 O.co2 500  AD0500     -0.2429
     15  C2'      -41.5220   26.4630   -1.1180 C.3   500  AD0500      0.1848
     16  C3'      -41.8360   27.5100   -0.0620 C.3   500  AD0500      0.2128
     17  C4'      -42.0450   26.8390    1.2870 C.3   500  AD0500      0.0881
     18  C5'      -40.9060   25.8770    1.6030 C.3   500  AD0500      0.1855
     19  C6'      -41.0880   25.2330    2.9790 C.2   500  AD0500      0.3866
     20  O1'      -39.3230   26.4380   -0.2140 O.3   500  AD0500     -0.1973
     21  O2'      -41.1860   27.0850   -2.3390 O.3   500  AD0500     -0.2224
     22  O3'      -43.0090   28.2110   -0.4060 O.3   500  AD0500     -0.2179
     23  O5'      -40.7990   24.9270    0.5630 O.3   500  AD0500     -0.3293
     24  O6'      -41.3040   26.0070    3.9440 O.co2 500  AD0500     -0.2434
     25  OAP      -41.0080   23.9860    3.0910 O.co2 500  AD0500     -0.2434
     26  H4'      -42.0800   27.6120    2.0530 H     500  AD0500      0.0592
     27  H1'      -40.0580   24.8890   -1.3610 H     500  AD0500      0.0969
     28  H2'      -42.3970   25.8290   -1.2620 H     500  AD0500      0.0713
     29  H3'      -41.9830   27.0020    0.8910 H     500  AD0500      0.0592
     30  H5'      -39.9730   26.4400    1.6090 H     500  AD0500      0.0739
@<TRIPOS>BOND
     1    21    15    1
     2    27    13    1
     3    28    15    1
     4    15    13    1
     5    15    16    1
     6    13    20    1
     7    13    23    1
     8    22    16    1
     9    14     6   ar
    10    23    18    1
    11    11     5    1
    12    11     1    1
    13    29    17    1
    14     5     6    1
    15     5     4    1
    16     6    12   ar
    17     7    17    1
    18     7     1    1
    19    17    18    1
    20    17    26    1
    21    18    30    1
    22    18    19    1
    23     1     2    1
    24     4    10    1
    25     4     3    1
    26     8     2    1
    27     2     3    1
    28    19    25   ar
    29    19    24   ar
    30     3     9    1
