@<TRIPOS>MOLECULE
3dyd_PLP_A_1.pdb
 15 15 0 0 0
SMALL
GASTEIGER

@<TRIPOS>ATOM
      1  N1        23.5920   89.0660   14.2510 N.ar  500  PLP500     -0.2452
      2  C2        22.4060   88.6220   13.7010 C.ar  500  PLP500      0.0978
      3  C2A       21.1010   89.1780   14.1880 C.3   500  PLP500      0.0555
      4  C3        22.4200   87.6610   12.6970 C.ar  500  PLP500      0.2049
      5  O3        21.2410   87.1440   12.2290 O.3   500  PLP500     -0.2857
      6  C4        23.6310   87.1470   12.2470 C.ar  500  PLP500      0.0182
      7  C4A       23.6580   86.2160   11.0710 C.3   500  PLP500      0.0342
      8  C5        24.8220   87.5970   12.8040 C.ar  500  PLP500      0.0261
      9  C6        24.7970   88.5580   13.8070 C.ar  500  PLP500      0.0965
     10  C5A       26.1220   86.9130   12.4500 C.3   500  PLP500      0.1815
     11  O4P       26.6480   87.4840   11.2730 O.3   500  PLP500     -0.2653
     12  P         28.0360   86.9490   10.6560 P.3   500  PLP500      0.5329
     13  O1P       28.6520   88.0190    9.7860 O.2   500  PLP500     -0.2224
     14  O2P       27.7830   85.7090    9.8330 O.3   500  PLP500     -0.1145
     15  O3P       28.9690   86.6210   11.7960 O.3   500  PLP500     -0.1145
@<TRIPOS>BOND
     1    13    12    2
     2    14    12    1
     3    12    11    1
     4    12    15    1
     5     7     6    1
     6    11    10    1
     7     5     4    1
     8     6     4   ar
     9     6     8   ar
    10    10     8    1
    11     4     2   ar
    12     8     9   ar
    13     2     3    1
    14     2     1   ar
    15     9     1   ar
