@<TRIPOS>MOLECULE
3dye_LNR_A_1.pdb
 12 12 0 0 0
SMALL
GASTEIGER

@<TRIPOS>ATOM
      1  OAC        0.8080   -1.6810   27.3530 O.3   600  LNR600     -0.2832
      2  CAJ        0.7340   -0.3950   27.7880 C.ar  600  LNR600      0.2340
      3  CAG       -0.3740    0.0520   28.5060 C.ar  600  LNR600      0.0436
      4  CAI        1.7540    0.5030   27.5380 C.ar  600  LNR600      0.2342
      5  OAB        2.8720    0.1390   26.8520 O.3   600  LNR600     -0.2831
      6  CAE        1.6290    1.8040   28.0080 C.ar  600  LNR600      0.0452
      7  CAF        0.5840    2.1780   28.6690 C.ar  600  LNR600      0.0017
      8  CAK       -0.4020    1.3820   28.9280 C.ar  600  LNR600      0.0126
      9  CAL       -1.5480    1.9350   29.6900 C.3   600  LNR600      0.1933
     10  OAD       -1.1510    2.0770   31.0520 O.3   600  LNR600     -0.2167
     11  CAH       -2.7980    1.0630   29.6000 C.3   600  LNR600      0.1466
     12  NAA       -3.9630    1.8290   30.0060 N.3   600  LNR600     -0.1282
@<TRIPOS>BOND
     1     5     4    1
     2     1     2    1
     3     4     2   ar
     4     4     6   ar
     5     2     3   ar
     6     6     7   ar
     7     3     8   ar
     8     7     8   ar
     9     8     9    1
    10    11     9    1
    11    11    12    1
    12     9    10    1
