@<TRIPOS>MOLECULE
3dyf_IPR_A_1.pdb
 14 13 0 0 0
SMALL
GASTEIGER

@<TRIPOS>ATOM
      1  P11       10.1550   44.4410   54.7660 P.3   6001  IPR6001     0.5373
      2  O14        9.2290   43.3560   54.4390 O.2   6001  IPR6001    -0.2221
      3  O12        9.6230   45.7770   55.3280 O.3   6001  IPR6001    -0.1143
      4  O13       11.2960   43.7360   55.5030 O.3   6001  IPR6001    -0.1143
      5  O10       10.7570   44.8250   53.3520 O.3   6001  IPR6001    -0.2261
      6  P7        10.8740   46.2370   52.5940 P.3   6001  IPR6001     0.2230
      7  O8         9.5260   46.7690   52.3530 O.2   6001  IPR6001    -0.5169
      8  O9        11.8620   47.1870   53.2470 O.3   6001  IPR6001    -0.4370
      9  O6        11.5420   45.7320   51.2550 O.3   6001  IPR6001    -0.3135
     10  C5        12.9370   45.5340   51.2750 C.3   6001  IPR6001     0.1535
     11  C4        13.1780   45.0900   49.8350 C.3   6001  IPR6001     0.0545
     12  C2        13.0010   46.2790   48.8510 C.2   6001  IPR6001    -0.0414
     13  C1        12.0230   45.8790   47.8180 C.3   6001  IPR6001     0.0264
     14  C3        13.6330   47.4890   48.9290 C.2   6001  IPR6001    -0.0090
@<TRIPOS>BOND
     1    13    12    1
     2    12    14    2
     3    12    11    1
     4    11    10    1
     5     9    10    1
     6     9     6    1
     7     7     6    2
     8     6     8    1
     9     6     5    1
    10     5     1    1
    11     2     1    2
    12     1     3    1
    13     1     4    1
