@<TRIPOS>MOLECULE
3dyf_NI9_A_1.pdb
 18 18 0 0 0
SMALL
GASTEIGER

@<TRIPOS>ATOM
      1  C1        17.1860   44.6800   48.6940 C.3   3001  NI93001     0.2338
      2  O1        17.2640   43.3640   51.1110 O.3   3001  NI93001    -0.3552
      3  O2        16.3930   45.8640   48.5670 O.3   3001  NI93001    -0.2090
      4  C2        16.2510   43.4270   48.5770 C.3   3001  NI93001     0.1360
      5  O3        19.3580   44.5500   50.4210 O.2   3001  NI93001    -0.4572
      6  C3        15.4880   41.9130   46.8190 C.3   3001  NI93001     0.1482
      7  P1        18.6270   44.6840   47.5400 P.3   3001  NI93001     0.1528
      8  P2        17.8290   44.6420   50.4560 P.3   3001  NI93001     0.1528
      9  O4        18.0540   44.6950   46.1100 O.2   3001  NI93001    -0.4572
     10  O5        17.3600   45.8210   51.1930 O.3   3001  NI93001    -0.3552
     11  O6        19.4390   45.9280   47.7850 O.3   3001  NI93001    -0.3552
     12  O7        19.4310   43.4090   47.7270 O.3   3001  NI93001    -0.3552
     13  N         15.5700   43.2110   47.2450 N.pl3 3001  NI93001    -0.2976
     14  F         14.7460   40.4120   45.1590 F     3001  NI93001    -0.2071
     15  C4        14.3130   42.7180   44.8620 C.2   3001  NI93001     0.0282
     16  C5        15.0450   44.2790   46.5240 C.2   3001  NI93001     0.0618
     17  C6        14.4060   44.0310   45.3090 C.2   3001  NI93001     0.0178
     18  C7        14.8490   41.6720   45.6100 C.2   3001  NI93001     0.1376
@<TRIPOS>BOND
     1    15    17    1
     2    15    18    2
     3    14    18    1
     4    17    16    2
     5    18     6    1
     6     9     7    2
     7    16    13    1
     8     6    13    1
     9    13     4    1
    10     7    12    1
    11     7    11    1
    12     7     1    1
    13     3     1    1
    14     4     1    1
    15     1     8    1
    16     5     8    2
    17     8     2    1
    18     8    10    1
