@<TRIPOS>MOLECULE
3dyg_NI9_A_1.pdb
 18 18 0 0 0
SMALL
GASTEIGER

@<TRIPOS>ATOM
      1  C1        27.0430  -14.4080   10.0420 C.3   3001  NI93001     0.2338
      2  O1        26.9460  -15.8450    7.6960 O.3   3001  NI93001    -0.3552
      3  O2        27.8770  -13.2300   10.0950 O.3   3001  NI93001    -0.2090
      4  C2        27.9340  -15.6900   10.2330 C.3   3001  NI93001     0.1360
      5  O3        24.9080  -14.6220    8.2870 O.3   3001  NI93001    -0.3552
      6  C3        28.5310  -17.1940   12.0300 C.3   3001  NI93001     0.1482
      7  P1        25.6040  -14.2960   11.1920 P.3   3001  NI93001     0.1528
      8  P2        26.4250  -14.5410    8.2790 P.3   3001  NI93001     0.1528
      9  O4        26.1850  -14.1790   12.6150 O.3   3001  NI93001    -0.3552
     10  O5        26.9270  -13.4320    7.5000 O.2   3001  NI93001    -0.4572
     11  O6        24.8150  -13.0580   10.8750 O.2   3001  NI93001    -0.4572
     12  O7        24.7690  -15.5560   11.0970 O.3   3001  NI93001    -0.3552
     13  N         28.5520  -15.9000   11.5860 N.pl3 3001  NI93001    -0.2976
     14  F         29.0840  -18.7280   13.7180 F     3001  NI93001    -0.2071
     15  C4        29.6540  -16.4430   14.0340 C.2   3001  NI93001     0.0282
     16  C5        29.1080  -14.8490   12.3160 C.2   3001  NI93001     0.0618
     17  C6        29.6700  -15.1260   13.5700 C.2   3001  NI93001     0.0178
     18  C7        29.0890  -17.4630   13.2630 C.2   3001  NI93001     0.1376
@<TRIPOS>BOND
     1    10     8    2
     2     2     8    1
     3     8     5    1
     4     8     1    1
     5     1     3    1
     6     1     4    1
     7     1     7    1
     8     4    13    1
     9    11     7    2
    10    12     7    1
    11     7     9    1
    12    13     6    1
    13    13    16    1
    14     6    18    1
    15    16    17    2
    16    18    14    1
    17    18    15    2
    18    17    15    1
