@<TRIPOS>MOLECULE
3dyh_721_A_1.pdb
 21 21 0 0 0
SMALL
GASTEIGER

@<TRIPOS>ATOM
      1  O6        24.4170  -15.3300   10.8200 O.3   3001  7213001    -0.3568
      2  P2        25.1710  -14.0230   10.9110 P.3   3001  7213001     0.1253
      3  O5        25.7250  -13.8150   12.3090 O.3   3001  7213001    -0.3568
      4  O4        24.3560  -12.8120   10.5080 O.2   3001  7213001    -0.4596
      5  C1        26.5080  -14.1650    9.6580 C.3   3001  7213001     0.1236
      6  P1        25.8760  -14.2610    7.9450 P.3   3001  7213001     0.1253
      7  O3        24.8920  -15.4150    7.8860 O.3   3001  7213001    -0.3568
      8  O2        27.1040  -14.4610    7.0810 O.2   3001  7213001    -0.4596
      9  O1        25.2280  -12.9050    7.6750 O.3   3001  7213001    -0.3568
     10  C2        27.3720  -15.4250    9.8290 C.3   3001  7213001     0.1057
     11  N1        27.9500  -15.6610   11.1690 N.pl3 3001  7213001    -0.2993
     12  C3        28.6340  -14.7180   11.8690 C.3   3001  7213001     0.1177
     13  C4        29.1660  -15.0320   13.1210 C.2   3001  7213001    -0.0016
     14  C5        29.0170  -16.3370   13.6400 C.2   3001  7213001     0.0354
     15  C7        27.8350  -16.9140   11.6460 C.2   3001  7213001     0.0990
     16  C6        28.3350  -17.3030   12.8880 C.2   3001  7213001     0.1528
     17  O7        28.1440  -18.6040   13.3240 O.2   3001  7213001    -0.4742
     18  C8        28.8160  -19.0510   14.5190 C.3   3001  7213001     0.2055
     19  C9        28.4870  -20.5060   14.8330 C.3   3001  7213001     0.0473
     20  C10       29.2300  -20.9500   16.1000 C.3   3001  7213001     0.0038
     21  C11       29.0840  -22.4390   16.3470 C.3   3001  7213001     0.0001
@<TRIPOS>BOND
     1     8     6    2
     2     9     6    1
     3     7     6    1
     4     6     5    1
     5     5    10    1
     6     5     2    1
     7    10    11    1
     8     4     2    2
     9     1     2    1
    10     2     3    1
    11    11    15    1
    12    11    12    1
    13    15    16    2
    14    12    13    1
    15    16    17    1
    16    16    14    1
    17    13    14    2
    18    17    18    1
    19    18    19    1
    20    19    20    1
    21    20    21    1
