@<TRIPOS>MOLECULE
3dyl_IBM_B_1.pdb
 16 17 0 0 0
SMALL
GASTEIGER

@<TRIPOS>ATOM
      1  N9        97.5650   19.8320   12.5240 N.2   900  IBM900     -0.2256
      2  C8        97.8720   19.6190   11.1900 C.3   900  IBM900      0.2523
      3  N7        97.5630   20.7060   10.4070 N.2   900  IBM900     -0.2364
      4  C5        97.0240   21.6170   11.2420 C.ar  900  IBM900      0.1681
      5  C4        97.0350   21.0670   12.5810 C.ar  900  IBM900      0.1667
      6  N3        96.5420   21.7110   13.6900 N.ar  900  IBM900     -0.2651
      7  C2        96.0530   23.0150   13.4460 C.ar  900  IBM900      0.3350
      8  N1        96.0320   23.6450   12.0950 N.ar  900  IBM900     -0.2454
      9  C6        96.5160   22.9120   10.9990 C.ar  900  IBM900      0.2846
     10  O6        96.5460   23.3090    9.7880 O.2   900  IBM900     -0.2651
     11  O2        95.5600   23.6640   14.4250 O.2   900  IBM900     -0.2461
     12  C10       95.4810   25.0220   11.9620 C.3   900  IBM900      0.1383
     13  C11       96.5920   21.1660   15.0680 C.3   900  IBM900      0.1119
     14  C12       95.5380   20.1710   15.5870 C.3   900  IBM900      0.0228
     15  C13       95.5690   18.8500   14.7830 C.3   900  IBM900      0.0020
     16  C14       94.1180   20.7730   15.7480 C.3   900  IBM900      0.0020
@<TRIPOS>BOND
     1    10     9    2
     2     3     2    1
     3     3     4    2
     4     9     4   ar
     5     9     8   ar
     6     2     1    1
     7     4     5   ar
     8    12     8    1
     9     8     7   ar
    10     1     5    2
    11     5     6   ar
    12     7     6   ar
    13     7    11    2
    14     6    13    1
    15    15    14    1
    16    13    14    1
    17    14    16    1
