@<TRIPOS>MOLECULE
3dyl_PCG_A_1.pdb
 23 26 0 0 0
SMALL
GASTEIGER

@<TRIPOS>ATOM
      1  PA        83.0590   49.0560   40.0980 P.3   900  PCG900      0.2141
      2  O1A       83.3550   48.9350   41.6540 O.3   900  PCG900     -0.4373
      3  O2A       84.0030   48.6790   38.9180 O.2   900  PCG900     -0.5172
      4  O5'       82.0270   47.6920   40.0200 O.3   900  PCG900     -0.3114
      5  C5'       80.6130   47.7330   40.3460 C.3   900  PCG900      0.1812
      6  C4'       79.8360   48.9890   39.9100 C.3   900  PCG900      0.1771
      7  O4'       78.5760   49.0570   40.6070 O.3   900  PCG900     -0.3327
      8  C3'       80.4960   50.2950   40.3360 C.3   900  PCG900      0.1857
      9  O3'       81.7680   50.4500   39.6370 O.3   900  PCG900     -0.3112
     10  C2'       79.3260   51.2420   40.2670 C.3   900  PCG900      0.2282
     11  O2'       79.1760   51.6690   38.9390 O.3   900  PCG900     -0.2159
     12  C1'       78.1050   50.3930   40.7130 C.3   900  PCG900      0.2292
     13  N9        77.7670   50.7220   42.1170 N.pl3 900  PCG900     -0.2354
     14  C8        78.4830   50.3260   43.1680 C.3   900  PCG900      0.2246
     15  N7        77.9710   50.8400   44.3000 N.2   900  PCG900     -0.2322
     16  C5        76.9400   51.5900   43.9420 C.2   900  PCG900      0.2182
     17  C6        76.0620   52.3430   44.6800 C.1   900  PCG900      0.2372
     18  O6        76.1460   52.3870   45.8980 O.2   900  PCG900     -0.2069
     19  N1        75.1200   53.0130   44.0700 N.2   900  PCG900     -0.2485
     20  C2        74.9920   52.9280   42.7410 C.1   900  PCG900      0.2531
     21  N2        74.0030   53.6080   42.1690 N.pl3 900  PCG900     -0.0226
     22  N3        75.7960   52.2100   41.9530 N.2   900  PCG900     -0.3074
     23  C4        76.8000   51.5200   42.5640 C.2   900  PCG900      0.2300
@<TRIPOS>BOND
     1     3     1    2
     2    11    10    1
     3     9     1    1
     4     9     8    1
     5     6     8    1
     6     6     5    1
     7     6     7    1
     8     4     1    1
     9     4     5    1
    10     1     2    1
    11    10     8    1
    12    10    12    1
    13     7    12    1
    14    12    13    1
    15    22    23    2
    16    22    20    2
    17    13    23    1
    18    13    14    1
    19    21    20    1
    20    23    16    1
    21    20    19    2
    22    14    15    1
    23    16    15    2
    24    16    17    1
    25    19    17    2
    26    17    18    2
