@<TRIPOS>MOLECULE
3dyn_PCG_A_1.pdb
 23 26 0 0 0
SMALL
GASTEIGER

@<TRIPOS>ATOM
      1  PA        81.6030   49.4860   38.4860 P.3   903  PCG903      0.2141
      2  O1A       82.9380   49.5080   39.3770 O.3   903  PCG903     -0.4373
      3  O2A       82.0450   49.5910   37.0640 O.2   903  PCG903     -0.5172
      4  O5'       80.8260   48.0950   38.6970 O.3   903  PCG903     -0.3114
      5  C5'       80.0130   48.1470   39.8670 C.3   903  PCG903      0.1812
      6  C4'       79.0490   49.2970   39.6390 C.3   903  PCG903      0.1771
      7  O4'       77.9570   49.3730   40.5470 O.3   903  PCG903     -0.3327
      8  C3'       79.8410   50.6040   39.9010 C.3   903  PCG903      0.1857
      9  O3'       80.6920   50.8220   38.7770 O.3   903  PCG903     -0.3112
     10  C2'       78.7110   51.6230   40.0450 C.3   903  PCG903      0.2282
     11  O2'       78.1950   52.0810   38.7940 O.3   903  PCG903     -0.2159
     12  C1'       77.6340   50.7610   40.7140 C.3   903  PCG903      0.2292
     13  N9        77.5620   51.0820   42.1300 N.pl3 903  PCG903     -0.2354
     14  C8        78.4280   50.7740   43.1610 C.3   903  PCG903      0.2246
     15  N7        77.8720   51.1360   44.2850 N.2   903  PCG903     -0.2322
     16  C5        76.7550   51.8630   44.0000 C.2   903  PCG903      0.2182
     17  C6        75.8400   52.6300   44.7380 C.1   903  PCG903      0.2372
     18  O6        75.8780   52.7260   45.9550 O.2   903  PCG903     -0.2069
     19  N1        74.8820   53.2570   44.0490 N.2   903  PCG903     -0.2485
     20  C2        74.7390   53.1790   42.6960 C.1   903  PCG903      0.2531
     21  N2        73.6850   53.8320   42.0860 N.pl3 903  PCG903     -0.0226
     22  N3        75.5390   52.4420   41.9970 N.2   903  PCG903     -0.3074
     23  C4        76.5460   51.8140   42.6130 C.2   903  PCG903      0.2300
@<TRIPOS>BOND
     1     3     1    2
     2     1     4    1
     3     1     9    1
     4     1     2    1
     5     4     5    1
     6     9     8    1
     7    11    10    1
     8     6     5    1
     9     6     8    1
    10     6     7    1
    11     8    10    1
    12    10    12    1
    13     7    12    1
    14    12    13    1
    15    22    23    2
    16    22    20    2
    17    21    20    1
    18    13    23    1
    19    13    14    1
    20    23    16    1
    21    20    19    2
    22    14    15    1
    23    16    15    2
    24    16    17    1
    25    19    17    2
    26    17    18    2
