@<TRIPOS>MOLECULE
3dyn_IBM_B_1.pdb
 16 17 0 0 0
SMALL
GASTEIGER

@<TRIPOS>ATOM
      1  N9        97.9190   20.0230   12.8280 N.2   903  IBM903     -0.2256
      2  C8        98.3070   19.7330   11.5600 C.3   903  IBM903      0.2523
      3  N7        97.9450   20.7480   10.7330 N.2   903  IBM903     -0.2364
      4  C5        97.3290   21.6880   11.4800 C.ar  903  IBM903      0.1681
      5  C4        97.3410   21.2340   12.7810 C.ar  903  IBM903      0.1667
      6  N3        96.7970   21.9030   13.7940 N.ar  903  IBM903     -0.2651
      7  C2        96.2720   23.1260   13.5490 C.ar  903  IBM903      0.3350
      8  N1        96.2350   23.6380   12.2300 N.ar  903  IBM903     -0.2454
      9  C6        96.7790   22.9320   11.2150 C.ar  903  IBM903      0.2846
     10  O6        96.7810   23.3700   10.0430 O.2   903  IBM903     -0.2651
     11  O2        95.7760   23.8100   14.4650 O.2   903  IBM903     -0.2461
     12  C10       95.6130   24.9400   11.9770 C.3   903  IBM903      0.1383
     13  C11       96.8650   21.3460   15.1470 C.3   903  IBM903      0.1119
     14  C12       95.4890   20.9640   15.6810 C.3   903  IBM903      0.0228
     15  C13       95.5900   20.8100   17.1880 C.3   903  IBM903      0.0020
     16  C14       94.9580   19.6710   15.0810 C.3   903  IBM903      0.0020
@<TRIPOS>BOND
     1    10     9    2
     2     3     4    2
     3     3     2    1
     4     9     4   ar
     5     9     8   ar
     6     4     5   ar
     7     2     1    1
     8    12     8    1
     9     8     7   ar
    10     5     1    2
    11     5     6   ar
    12     7     6   ar
    13     7    11    2
    14     6    13    1
    15    16    14    1
    16    13    14    1
    17    14    15    1
