@<TRIPOS>MOLECULE
3dyo_IPT_A_1.pdb
 15 15 0 0 0
SMALL
GASTEIGER

@<TRIPOS>ATOM
      1  C1       -14.8210  -27.7140  -26.1910 C.3   2001  IPT2001     0.1955
      2  C2       -13.5350  -27.6170  -25.3470 C.3   2001  IPT2001     0.2219
      3  O2       -13.6890  -26.5310  -24.4510 O.3   2001  IPT2001    -0.2167
      4  C3       -12.3510  -27.3010  -26.2590 C.3   2001  IPT2001     0.2181
      5  O3       -11.1170  -27.2710  -25.4980 O.3   2001  IPT2001    -0.2175
      6  C4       -12.2400  -28.3790  -27.3770 C.3   2001  IPT2001     0.2143
      7  O4       -11.8970  -29.6950  -26.8530 O.3   2001  IPT2001    -0.2176
      8  C5       -13.5720  -28.4290  -28.1200 C.3   2001  IPT2001     0.1820
      9  O5       -14.6340  -28.6850  -27.1940 O.3   2001  IPT2001    -0.3398
     10  C6       -13.7230  -29.5560  -29.1410 C.3   2001  IPT2001     0.2142
     11  O6       -12.6630  -29.4020  -30.0910 O.3   2001  IPT2001    -0.2176
     12  S1       -16.2210  -28.4060  -25.2540 S.3   2001  IPT2001    -0.1102
     13  C1'      -17.7130  -27.9100  -26.2430 C.3   2001  IPT2001     0.0500
     14  C2'      -18.9700  -28.1900  -25.4700 C.3   2001  IPT2001     0.0117
     15  C3'      -17.7440  -28.4970  -27.6630 C.3   2001  IPT2001     0.0117
@<TRIPOS>BOND
     1    11    10    1
     2    10     8    1
     3     8     6    1
     4     8     9    1
     5    15    13    1
     6     6     7    1
     7     6     4    1
     8     9     1    1
     9     4     5    1
    10     4     2    1
    11    13    14    1
    12    13    12    1
    13     1     2    1
    14     1    12    1
    15     2     3    1
