@<TRIPOS>MOLECULE
3dyq_PCG_A_1.pdb
 23 26 0 0 0
SMALL
GASTEIGER

@<TRIPOS>ATOM
      1  PA        81.9190   49.3850   39.1440 P.3   900  PCG900      0.2141
      2  O1A       82.9630   49.3560   40.2930 O.3   900  PCG900     -0.4373
      3  O2A       82.2960   49.4170   37.6710 O.2   900  PCG900     -0.5172
      4  O5'       81.0280   48.0280   39.3400 O.3   900  PCG900     -0.3114
      5  C5'       79.8130   47.9850   40.0950 C.3   900  PCG900      0.1812
      6  C4'       79.0170   49.2310   39.7430 C.3   900  PCG900      0.1771
      7  O4'       77.7870   49.3330   40.4410 O.3   900  PCG900     -0.3327
      8  C3'       79.7790   50.4630   40.1640 C.3   900  PCG900      0.1857
      9  O3'       80.8770   50.6370   39.2860 O.3   900  PCG900     -0.3112
     10  C2'       78.6920   51.4970   40.1450 C.3   900  PCG900      0.2282
     11  O2'       78.4140   51.9330   38.8220 O.3   900  PCG900     -0.2159
     12  C1'       77.5100   50.7070   40.6730 C.3   900  PCG900      0.2292
     13  N9        77.3860   50.9550   42.1270 N.pl3 900  PCG900     -0.2354
     14  C8        78.1540   50.5000   43.1450 C.3   900  PCG900      0.2246
     15  N7        77.6900   50.9660   44.3440 N.2   900  PCG900     -0.2322
     16  C5        76.6150   51.7230   44.0740 C.2   900  PCG900      0.2182
     17  C6        75.6500   52.5150   44.8360 C.1   900  PCG900      0.2372
     18  O6        75.6840   52.6300   46.0770 O.2   900  PCG900     -0.2069
     19  N1        74.7270   53.1490   44.1400 N.2   900  PCG900     -0.2485
     20  C2        74.5950   53.0720   42.8080 C.1   900  PCG900      0.2531
     21  N2        73.5750   53.7360   42.2250 N.pl3 900  PCG900     -0.0226
     22  N3        75.4170   52.3670   42.0360 N.2   900  PCG900     -0.3074
     23  C4        76.4310   51.7150   42.6190 C.2   900  PCG900      0.2300
@<TRIPOS>BOND
     1     3     1    2
     2    11    10    1
     3     1     9    1
     4     1     4    1
     5     1     2    1
     6     9     8    1
     7     4     5    1
     8     6     5    1
     9     6     8    1
    10     6     7    1
    11    10     8    1
    12    10    12    1
    13     7    12    1
    14    12    13    1
    15    22    23    2
    16    22    20    2
    17    13    23    1
    18    13    14    1
    19    21    20    1
    20    23    16    1
    21    20    19    2
    22    14    15    1
    23    16    15    2
    24    16    17    1
    25    19    17    2
    26    17    18    2
