@<TRIPOS>MOLECULE
3dyq_IBM_B_1.pdb
 16 17 0 0 0
SMALL
GASTEIGER

@<TRIPOS>ATOM
      1  N9        97.6680   20.0130   12.4130 N.2   900  IBM900     -0.2256
      2  C8        97.9850   19.6940   11.1230 C.3   900  IBM900      0.2523
      3  N7        97.6440   20.7150   10.2800 N.2   900  IBM900     -0.2364
      4  C5        97.0970   21.6850   11.0270 C.ar  900  IBM900      0.1681
      5  C4        97.1290   21.2490   12.3540 C.ar  900  IBM900      0.1667
      6  N3        96.6960   22.0070   13.3910 N.ar  900  IBM900     -0.2651
      7  C2        96.1960   23.2590   13.0850 C.ar  900  IBM900      0.3350
      8  N1        96.1630   23.7560   11.7490 N.ar  900  IBM900     -0.2454
      9  C6        96.6220   22.9630   10.7250 C.ar  900  IBM900      0.2846
     10  O6        96.6350   23.2970    9.5060 O.2   900  IBM900     -0.2651
     11  O2        95.7210   24.0370   13.9420 O.2   900  IBM900     -0.2461
     12  C10       95.5910   25.0980   11.5920 C.3   900  IBM900      0.1383
     13  C11       96.7600   21.4740   14.7720 C.3   900  IBM900      0.1119
     14  C12       95.4660   20.7560   15.1690 C.3   900  IBM900      0.0228
     15  C13       94.4280   21.7670   15.6320 C.3   900  IBM900      0.0020
     16  C14       95.6890   19.7730   16.2870 C.3   900  IBM900      0.0020
@<TRIPOS>BOND
     1    10     9    2
     2     3     4    2
     3     3     2    1
     4     9     4   ar
     5     9     8   ar
     6     4     5   ar
     7     2     1    1
     8    12     8    1
     9     8     7   ar
    10     5     1    2
    11     5     6   ar
    12     7     6   ar
    13     7    11    2
    14     6    13    1
    15    13    14    1
    16    14    15    1
    17    14    16    1
