@<TRIPOS>MOLECULE
3dys_5GP_A_1.pdb
 24 26 0 0 0
SMALL
GASTEIGER

@<TRIPOS>ATOM
      1  P         83.7370   48.4720   40.2180 P.3   900  5GP900      0.5327
      2  O1P       84.1700   49.2550   38.9640 O.2   900  5GP900     -0.2224
      3  O2P       84.5290   47.2120   40.4970 O.3   900  5GP900     -0.1145
      4  O3P       83.5740   49.3250   41.4850 O.3   900  5GP900     -0.1145
      5  O5'       82.2630   47.9670   39.7380 O.3   900  5GP900     -0.2675
      6  C5'       81.0660   48.1190   40.5040 C.3   900  5GP900      0.1859
      7  C4'       80.2440   49.2880   39.9750 C.3   900  5GP900      0.1801
      8  O4'       78.9520   49.2830   40.5880 O.3   900  5GP900     -0.3326
      9  C3'       80.8190   50.6720   40.2920 C.3   900  5GP900      0.2158
     10  O3'       81.8150   51.1040   39.3710 O.3   900  5GP900     -0.2175
     11  C2'       79.5910   51.5400   40.2460 C.3   900  5GP900      0.2310
     12  O2'       79.3680   51.9630   38.8970 O.3   900  5GP900     -0.2158
     13  C1'       78.4760   50.6160   40.7190 C.3   900  5GP900      0.2293
     14  N9        78.1860   50.8940   42.1460 N.pl3 900  5GP900     -0.2354
     15  C8        78.8980   50.4840   43.2060 C.3   900  5GP900      0.2246
     16  N7        78.3430   50.9370   44.3560 N.2   900  5GP900     -0.2322
     17  C5        77.2630   51.6710   44.0360 C.2   900  5GP900      0.2182
     18  C6        76.3100   52.3970   44.7360 C.1   900  5GP900      0.2372
     19  O6        76.3500   52.4570   45.9840 O.2   900  5GP900     -0.2069
     20  N1        75.3490   53.0430   44.0300 N.2   900  5GP900     -0.2485
     21  C2        75.2980   52.9840   42.6720 C.1   900  5GP900      0.2531
     22  N2        74.3330   53.6090   41.9990 N.pl3 900  5GP900     -0.0226
     23  N3        76.1940   52.2910   41.9460 N.2   900  5GP900     -0.3074
     24  C4        77.1800   51.6370   42.5740 C.2   900  5GP900      0.2300
@<TRIPOS>BOND
     1    12    11    1
     2     2     1    2
     3    10     9    1
     4     5     1    1
     5     5     6    1
     6     7     9    1
     7     7     6    1
     8     7     8    1
     9     1     3    1
    10     1     4    1
    11    11     9    1
    12    11    13    1
    13     8    13    1
    14    13    14    1
    15    23    24    2
    16    23    21    2
    17    22    21    1
    18    14    24    1
    19    14    15    1
    20    24    17    1
    21    21    20    2
    22    15    16    1
    23    20    18    2
    24    17    16    2
    25    17    18    1
    26    18    19    2
