@<TRIPOS>MOLECULE
3dys_IBM_B_1.pdb
 16 17 0 0 0
SMALL
GASTEIGER

@<TRIPOS>ATOM
      1  N9        97.7570   19.8510   12.3050 N.2   900  IBM900     -0.2256
      2  C8        98.0390   19.6470   10.9950 C.3   900  IBM900      0.2523
      3  N7        97.6620   20.7200   10.2660 N.2   900  IBM900     -0.2364
      4  C5        97.1350   21.6240   11.1220 C.ar  900  IBM900      0.1681
      5  C4        97.1970   21.0730   12.3930 C.ar  900  IBM900      0.1667
      6  N3        96.7550   21.6960   13.5070 N.ar  900  IBM900     -0.2651
      7  C2        96.2300   22.9510   13.3630 C.ar  900  IBM900      0.3350
      8  N1        96.1500   23.5600   12.0640 N.ar  900  IBM900     -0.2454
      9  C6        96.5950   22.8800   10.9730 C.ar  900  IBM900      0.2846
     10  O6        96.5430   23.3400    9.8240 O.2   900  IBM900     -0.2651
     11  O2        95.7860   23.6090   14.3410 O.2   900  IBM900     -0.2461
     12  C10       95.5560   24.9030   11.9600 C.3   900  IBM900      0.1383
     13  C11       96.9300   21.0060   14.8030 C.3   900  IBM900      0.1119
     14  C12       95.7570   21.0220   15.7770 C.3   900  IBM900      0.0228
     15  C13       96.1000   20.1560   16.9840 C.3   900  IBM900      0.0020
     16  C14       94.4680   20.5220   15.1200 C.3   900  IBM900      0.0020
@<TRIPOS>BOND
     1    10     9    2
     2     3     2    1
     3     3     4    2
     4     9     4   ar
     5     9     8   ar
     6     2     1    1
     7     4     5   ar
     8    12     8    1
     9     8     7   ar
    10     1     5    2
    11     5     6   ar
    12     7     6   ar
    13     7    11    2
    14     6    13    1
    15    13    14    1
    16    16    14    1
    17    14    15    1
