@<TRIPOS>MOLECULE
3dz8_GDP_A_1.pdb
 28 30 0 0 0
SMALL
GASTEIGER

@<TRIPOS>ATOM
      1  PB         3.8580   10.2100   20.1350 P.3   201  GDP201      0.5373
      2  O1B        4.5370    9.4750   21.3020 O.3   201  GDP201     -0.1143
      3  O2B        3.1150   11.3990   20.6240 O.3   201  GDP201     -0.1143
      4  O3B        4.8310   10.5880   19.0380 O.2   201  GDP201     -0.2221
      5  O3A        2.8110    9.2400   19.3820 O.3   201  GDP201     -0.2261
      6  PA         1.9980    8.0190   20.0250 P.3   201  GDP201      0.2231
      7  O1A        2.7730    6.7080   20.1060 O.2   201  GDP201     -0.5169
      8  O2A        1.2480    8.4820   21.2730 O.3   201  GDP201     -0.4370
      9  O5'        0.9070    7.7200   18.8590 O.3   201  GDP201     -0.3111
     10  C5'        0.0070    8.7500   18.4720 C.3   201  GDP201      0.1813
     11  C4'       -1.1890    8.1510   17.7600 C.3   201  GDP201      0.1799
     12  O4'       -0.7450    7.4740   16.5800 O.3   201  GDP201     -0.3326
     13  C3'       -1.8390    7.1070   18.6520 C.3   201  GDP201      0.2158
     14  O3'       -3.2510    7.0630   18.4560 O.3   201  GDP201     -0.2175
     15  C2'       -1.2460    5.7970   18.1760 C.3   201  GDP201      0.2310
     16  O2'       -2.1140    4.7000   18.3980 O.3   201  GDP201     -0.2158
     17  C1'       -1.0560    6.0830   16.6800 C.3   201  GDP201      0.2293
     18  N9         0.0250    5.2870   16.0970 N.pl3 201  GDP201     -0.2354
     19  C8         1.2980    5.2440   16.5480 C.3   201  GDP201      0.2246
     20  N7         2.0550    4.4220   15.7880 N.2   201  GDP201     -0.2322
     21  C5         1.2490    3.9430   14.8110 C.2   201  GDP201      0.2182
     22  C6         1.4150    3.0480   13.6500 C.1   201  GDP201      0.2372
     23  O6         2.4910    2.4880   13.4100 O.2   201  GDP201     -0.2069
     24  N1         0.3390    2.8060   12.8740 N.2   201  GDP201     -0.2485
     25  C2        -0.8570    3.3660   13.1320 C.1   201  GDP201      0.2531
     26  N2        -1.8890    3.1010   12.3240 N.pl3 201  GDP201     -0.0226
     27  N3        -1.0760    4.2220   14.1640 N.2   201  GDP201     -0.3074
     28  C4        -0.0750    4.5230   15.0190 C.2   201  GDP201      0.2300
@<TRIPOS>BOND
     1    26    25    1
     2    24    25    2
     3    24    22    2
     4    25    27    2
     5    23    22    2
     6    22    21    1
     7    27    28    2
     8    21    28    1
     9    21    20    2
    10    28    18    1
    11    20    19    1
    12    18    19    1
    13    18    17    1
    14    12    17    1
    15    12    11    1
    16    17    15    1
    17    11    10    1
    18    11    13    1
    19    15    16    1
    20    15    13    1
    21    14    13    1
    22    10     9    1
    23     9     6    1
    24     4     1    2
    25     5     6    1
    26     5     1    1
    27     6     7    2
    28     6     8    1
    29     1     3    1
    30     1     2    1
