@<TRIPOS>MOLECULE
3dzd_ADP_A_1.pdb
 27 29 0 0 0
SMALL
GASTEIGER

@<TRIPOS>ATOM
      1  PB       -32.7890  -19.4630   24.4410 P.3   370  ADP370      0.5373
      2  O1B      -31.3120  -19.1660   24.6060 O.3   370  ADP370     -0.1143
      3  O2B      -33.3850  -18.9800   23.1370 O.2   370  ADP370     -0.2221
      4  O3B      -33.1690  -20.8840   24.7280 O.3   370  ADP370     -0.1143
      5  PA       -32.9660  -17.5220   26.5910 P.3   370  ADP370      0.2231
      6  O1A      -32.2860  -18.1840   27.7570 O.3   370  ADP370     -0.4370
      7  O2A      -32.1620  -16.5170   25.7920 O.2   370  ADP370     -0.5169
      8  O3A      -33.5760  -18.6690   25.6200 O.3   370  ADP370     -0.2261
      9  O5'      -34.2850  -16.7720   27.1270 O.3   370  ADP370     -0.3111
     10  C5'      -34.7300  -16.9510   28.4650 C.3   370  ADP370      0.1813
     11  C4'      -34.6850  -15.6610   29.2600 C.3   370  ADP370      0.1821
     12  O4'      -34.9940  -16.0200   30.6010 O.3   370  ADP370     -0.3135
     13  C3'      -33.2690  -15.1300   29.3370 C.3   370  ADP370      0.2184
     14  O3'      -33.3150  -13.7570   29.7380 O.3   370  ADP370     -0.2174
     15  C2'      -32.6180  -15.8810   30.4680 C.3   370  ADP370      0.2570
     16  O2'      -31.8160  -14.9340   31.1770 O.3   370  ADP370     -0.2130
     17  C1'      -33.7900  -16.2750   31.3420 C.3   370  ADP370      0.3186
     18  N9       -33.7560  -17.7100   31.6940 N.pl3 370  ADP370     -0.1439
     19  C8       -33.9530  -18.7300   30.8380 C.3   370  ADP370      0.3377
     20  N7       -33.8920  -19.9210   31.4640 N.2   370  ADP370     -0.2095
     21  C5       -33.6510  -19.6690   32.7620 C.2   370  ADP370      0.2526
     22  C6       -33.4580  -20.4920   33.9750 C.2   370  ADP370      0.4393
     23  N6       -33.5230  -21.8490   33.9120 N.pl3 370  ADP370      0.2180
     24  N1       -33.2300  -19.8470   35.1340 N.2   370  ADP370      0.0021
     25  C2       -33.1740  -18.5030   35.1910 C.3   370  ADP370      0.5254
     26  N3       -33.3310  -17.6910   34.1310 N.2   370  ADP370     -0.0055
     27  C4       -33.5680  -18.2110   32.9110 C.2   370  ADP370      0.3518
@<TRIPOS>BOND
     1     3     1    2
     2     1     2    1
     3     1     4    1
     4     1     8    1
     5     8     5    1
     6     7     5    2
     7     5     9    1
     8     5     6    1
     9     9    10    1
    10    10    11    1
    11    11    13    1
    12    11    12    1
    13    13    14    1
    14    13    15    1
    15    15    16    1
    16    15    17    1
    17    12    17    1
    18    19    20    1
    19    19    18    1
    20    17    18    1
    21    20    21    2
    22    18    27    1
    23    21    27    1
    24    21    22    1
    25    27    26    2
    26    23    22    1
    27    22    24    2
    28    26    25    1
    29    24    25    1
