@<TRIPOS>MOLECULE
3dzf_RF5_A_1.pdb
 13 13 0 0 0
SMALL
GASTEIGER

@<TRIPOS>ATOM
      1  C1'        2.4490   -2.5670   -1.3830 C.3   301  RF5301      0.1801
      2  O1'        2.6530   -2.3380   -2.7430 O.3   301  RF5301     -0.3480
      3  C2'        2.3090   -1.1770   -0.8040 C.3   301  RF5301      0.2229
      4  C3'        2.6600   -0.2410   -1.9270 C.3   301  RF5301      0.2162
      5  O3'        1.8930    0.9230   -1.7000 O.3   301  RF5301     -0.2174
      6  C4'        2.0740   -1.0610   -3.0550 C.3   301  RF5301      0.1784
      7  C5'        2.4350   -0.5870   -4.4490 C.3   301  RF5301      0.1858
      8  O5'        3.8840   -0.6400   -4.5060 O.3   301  RF5301     -0.2675
      9  P'         4.5130   -0.7060   -5.9420 P.3   301  RF5301      0.5327
     10  F2'        3.1730   -1.1560    0.2450 F     301  RF5301     -0.2317
     11  O2P        3.8970    0.4390   -6.7380 O.2   301  RF5301     -0.2224
     12  O3P        5.9500   -0.4020   -5.6390 O.3   301  RF5301     -0.1145
     13  O1P        4.0810   -2.0910   -6.3780 O.3   301  RF5301     -0.1145
@<TRIPOS>BOND
     1    11     9    2
     2    13     9    1
     3     9    12    1
     4     9     8    1
     5     8     7    1
     6     7     6    1
     7     6     2    1
     8     6     4    1
     9     2     1    1
    10     4     5    1
    11     4     3    1
    12     1     3    1
    13     3    10    1
