@<TRIPOS>MOLECULE
3dzg_RF5_A_1.pdb
 13 13 0 0 0
SMALL
GASTEIGER

@<TRIPOS>ATOM
      1  C1'        1.0610    3.1130   -0.7770 C.3   301  RF5301      0.1801
      2  O1'        1.9120    3.5360    0.2960 O.3   301  RF5301     -0.3480
      3  C2'       -0.3590    3.3440   -0.2700 C.3   301  RF5301      0.2229
      4  C3'       -0.1870    3.2950    1.2210 C.3   301  RF5301      0.2162
      5  O3'       -1.3230    3.8680    1.8730 O.3   301  RF5301     -0.2174
      6  C4'        1.1730    3.9630    1.4690 C.3   301  RF5301      0.1784
      7  C5'        1.8750    3.4670    2.7520 C.3   301  RF5301      0.1858
      8  O5'        3.2900    3.6560    2.7120 O.3   301  RF5301     -0.2675
      9  P'         4.0490    4.6250    3.7140 P.3   301  RF5301      0.5327
     10  F2'       -1.1810    2.3260   -0.6490 F     301  RF5301     -0.2317
     11  O2P        5.4730    4.1580    3.5420 O.3   301  RF5301     -0.1145
     12  O3P        3.8550    6.0420    3.2490 O.2   301  RF5301     -0.2224
     13  O1P        3.4300    4.3970    5.0940 O.3   301  RF5301     -0.1145
@<TRIPOS>BOND
     1     1     3    1
     2     1     2    1
     3    10     3    1
     4     3     4    1
     5     2     6    1
     6     4     6    1
     7     4     5    1
     8     6     7    1
     9     8     7    1
    10     8     9    1
    11    12     9    2
    12    11     9    1
    13     9    13    1
