@<TRIPOS>MOLECULE
3dzh_GTP_A_1.pdb
 32 34 0 0 0
SMALL
GASTEIGER

@<TRIPOS>ATOM
      1  PG        13.0390    0.8320    7.6280 P.3   301  GTP301      0.5373
      2  O1G       14.2350    1.6750    8.1200 O.3   301  GTP301     -0.1143
      3  O2G       13.0630   -0.5600    8.2830 O.3   301  GTP301     -0.1143
      4  O3G       13.1050    0.6190    6.0990 O.2   301  GTP301     -0.2221
      5  O3B       11.6250    1.5830    8.0460 O.3   301  GTP301     -0.2258
      6  PB        10.2500    1.1040    7.2940 P.3   301  GTP301      0.2277
      7  O1B        9.8820    2.0100    6.1120 O.2   301  GTP301     -0.5168
      8  O2B       10.4270   -0.3430    6.7920 O.3   301  GTP301     -0.4368
      9  O3A        9.0310    1.1160    8.3270 O.3   301  GTP301     -0.2700
     10  PA         7.5450    1.2100    7.6520 P.3   301  GTP301      0.2189
     11  O1A        6.7700    1.3350    9.0000 O.3   301  GTP301     -0.4371
     12  O2A        7.2850    2.3970    6.7280 O.2   301  GTP301     -0.5170
     13  O5'        7.2100   -0.1700    6.8140 O.3   301  GTP301     -0.3112
     14  C5'        6.6590   -1.2870    7.5070 C.3   301  GTP301      0.1813
     15  C4'        6.0810   -2.3850    6.5880 C.3   301  GTP301      0.1799
     16  O4'        5.0010   -1.9470    5.7150 O.3   301  GTP301     -0.3326
     17  C3'        7.1410   -3.0580    5.7170 C.3   301  GTP301      0.2158
     18  O3'        6.7310   -4.3990    5.3420 O.3   301  GTP301     -0.2175
     19  C2'        6.8280   -2.3070    4.5060 C.3   301  GTP301      0.2310
     20  O2'        7.3950   -2.8860    3.3850 O.3   301  GTP301     -0.2158
     21  C1'        5.3260   -2.3960    4.4320 C.3   301  GTP301      0.2293
     22  N9         4.8020   -1.4270    3.4670 N.pl3 301  GTP301     -0.2354
     23  C8         5.3960   -0.4850    2.6200 C.3   301  GTP301      0.2246
     24  N7         4.3610    0.0840    1.8800 N.2   301  GTP301     -0.2322
     25  C5         3.1780   -0.4390    2.2500 C.2   301  GTP301      0.2182
     26  C6         1.9060   -0.2630    1.8600 C.1   301  GTP301      0.2372
     27  O6         1.5720    0.6040    1.0190 O.2   301  GTP301     -0.2069
     28  N1         0.9090   -0.9870    2.4280 N.2   301  GTP301     -0.2485
     29  C2         1.1900   -1.9580    3.3340 C.1   301  GTP301      0.2531
     30  N2         0.1060   -2.5750    3.8520 N.pl3 301  GTP301     -0.0226
     31  N3         2.4570   -2.1560    3.7920 N.2   301  GTP301     -0.3074
     32  C4         3.4490   -1.4040    3.2430 C.2   301  GTP301      0.2300
@<TRIPOS>BOND
     1    27    26    2
     2    26    25    1
     3    26    28    2
     4    24    25    2
     5    24    23    1
     6    25    32    1
     7    28    29    2
     8    23    22    1
     9    32    22    1
    10    32    31    2
    11    29    31    2
    12    29    30    1
    13    20    19    1
    14    22    21    1
    15    21    19    1
    16    21    16    1
    17    19    17    1
    18    18    17    1
    19    16    15    1
    20    17    15    1
    21     4     1    2
    22     7     6    2
    23    15    14    1
    24    12    10    2
    25     8     6    1
    26    13    14    1
    27    13    10    1
    28     6     5    1
    29     6     9    1
    30     1     5    1
    31     1     2    1
    32     1     3    1
    33    10     9    1
    34    10    11    1
