@<TRIPOS>MOLECULE
3dzi_N_B_1.pdb
 13 13 0 0 0
SMALL
GASTEIGER

@<TRIPOS>ATOM
      1  OP3       17.7090    1.3200  -27.1400 O.2   301  N301       -0.2224
      2  P         18.6360    2.0040  -26.1490 P.3   301  N301        0.5327
      3  OP1       20.0440    1.4230  -26.0980 O.3   301  N301       -0.1145
      4  OP2       18.0600    2.2180  -24.7490 O.3   301  N301       -0.1145
      5  O5'       18.7620    3.5160  -26.7730 O.3   301  N301       -0.2675
      6  C5'       19.1810    3.7790  -28.1310 C.3   301  N301        0.1858
      7  C4'       18.2430    4.6550  -28.9750 C.3   301  N301        0.1782
      8  O4'       17.9690    5.8750  -28.2830 O.3   301  N301       -0.3482
      9  C3'       18.8510    5.0700  -30.3290 C.3   301  N301        0.2140
     10  O3'       18.1300    4.5760  -31.4600 O.3   301  N301       -0.2176
     11  C2'       18.8700    6.5890  -30.3970 C.3   301  N301        0.2140
     12  O2'       18.0280    7.0890  -31.4600 O.3   301  N301       -0.2176
     13  C1'       18.3500    7.0330  -29.0520 C.3   301  N301        0.1777
@<TRIPOS>BOND
     1    10     9    1
     2    12    11    1
     3    11     9    1
     4    11    13    1
     5     9     7    1
     6    13     8    1
     7     7     8    1
     8     7     6    1
     9     6     5    1
    10     1     2    2
    11     5     2    1
    12     2     3    1
    13     2     4    1
