@<TRIPOS>MOLECULE
3dzi_RGT_A_1.pdb
 45 47 0 0 0
SMALL
GASTEIGER

@<TRIPOS>ATOM
      1  O2P        5.5850    4.0380    3.8300 O.3   301  RGT301     -0.1145
      2  P          4.1380    4.5430    4.0360 P.3   301  RGT301      0.5327
      3  O3P        3.7370    5.8110    3.2500 O.2   301  RGT301     -0.2224
      4  O1P        3.6950    4.5180    5.5180 O.3   301  RGT301     -0.1145
      5  O5R        3.2130    3.3940    3.3360 O.3   301  RGT301     -0.2675
      6  C5R        1.7690    3.4710    3.2860 C.3   301  RGT301      0.1858
      7  C4R        1.2210    3.7240    1.8820 C.3   301  RGT301      0.1782
      8  O4R        1.7340    2.7110    1.0080 O.3   301  RGT301     -0.3482
      9  C3R       -0.3030    3.6270    1.7900 C.3   301  RGT301      0.2140
     10  O3R       -0.8250    4.7570    1.0810 O.3   301  RGT301     -0.2176
     11  C2R       -0.6250    2.4080    0.9490 C.3   301  RGT301      0.2140
     12  O2R       -1.4140    2.8740   -0.1460 O.3   301  RGT301     -0.2176
     13  C1R        0.6970    1.9860    0.3370 C.3   301  RGT301      0.1777
     14  O6         1.7780    0.5860    1.0990 O.2   301  RGT301     -0.2069
     15  C6         1.9990   -0.2140    2.0140 C.1   301  RGT301      0.2372
     16  C5         3.2920   -0.4070    2.3800 C.2   301  RGT301      0.2182
     17  C4         3.5470   -1.3000    3.4160 C.2   301  RGT301      0.2300
     18  N3         2.5470   -1.9850    4.0730 N.2   301  RGT301     -0.3074
     19  C2         1.2400   -1.7970    3.6990 C.1   301  RGT301      0.2531
     20  N2         0.2330   -2.4590    4.3060 N.pl3 301  RGT301     -0.0226
     21  N1         0.9900   -0.9150    2.6580 N.2   301  RGT301     -0.2485
     22  N7         4.4370    0.1150    1.9090 N.2   301  RGT301     -0.2322
     23  C8         5.4630   -0.4300    2.6360 C.3   301  RGT301      0.2246
     24  N9         4.9100   -1.3010    3.5700 N.pl3 301  RGT301     -0.2354
     25  C1'        5.5560   -2.1620    4.5770 C.3   301  RGT301      0.2293
     26  C2'        7.0690   -2.2640    4.4680 C.3   301  RGT301      0.2310
     27  O2'        7.4940   -2.9330    3.2930 O.3   301  RGT301     -0.2158
     28  C3'        7.3010   -3.0440    5.7370 C.3   301  RGT301      0.2158
     29  O3'        6.8600   -4.3740    5.5040 O.3   301  RGT301     -0.2175
     30  O4'        5.3110   -1.7700    5.9210 O.3   301  RGT301     -0.3326
     31  C4'        6.3210   -2.3940    6.7170 C.3   301  RGT301      0.1799
     32  C5'        6.9930   -1.4070    7.6810 C.3   301  RGT301      0.1813
     33  O5'        7.5630   -0.3350    6.9590 O.3   301  RGT301     -0.3112
     34  PA         7.8620    1.0970    7.6450 P.3   301  RGT301      0.2189
     35  O1A        7.0640    1.2860    8.9270 O.3   301  RGT301     -0.4371
     36  O2A        7.6210    2.1950    6.6290 O.2   301  RGT301     -0.5170
     37  O3A        9.4190    1.0390    8.0540 O.3   301  RGT301     -0.2700
     38  PB        10.5750    0.8840    6.9390 P.3   301  RGT301      0.2277
     39  O1B       10.5320    2.0540    5.9630 O.2   301  RGT301     -0.5168
     40  O2B       10.4600   -0.4530    6.2130 O.3   301  RGT301     -0.4368
     41  O3B       11.9090    0.9720    7.8650 O.3   301  RGT301     -0.2258
     42  PG        13.3990    0.7120    7.2790 P.3   301  RGT301      0.5373
     43  O1G       14.2160    1.9450    7.6160 O.3   301  RGT301     -0.1143
     44  O3G       13.3440    0.4990    5.7790 O.2   301  RGT301     -0.2221
     45  O2G       14.0160   -0.5140    7.9360 O.3   301  RGT301     -0.1143
@<TRIPOS>BOND
     1    12    11    1
     2    13    11    1
     3    13     8    1
     4    11     9    1
     5     8     7    1
     6    10     9    1
     7    14    15    2
     8     9     7    1
     9     7     6    1
    10    22    16    2
    11    22    23    1
    12    15    16    1
    13    15    21    2
    14    16    17    1
    15    23    24    1
    16    21    19    2
    17     3     2    2
    18     6     5    1
    19    27    26    1
    20     5     2    1
    21    17    24    1
    22    17    18    2
    23    24    25    1
    24    19    18    2
    25    19    20    1
    26     1     2    1
    27     2     4    1
    28    26    25    1
    29    26    28    1
    30    25    30    1
    31    29    28    1
    32    28    31    1
    33    44    42    2
    34    30    31    1
    35    39    38    2
    36    40    38    1
    37    36    34    2
    38    31    32    1
    39    38    41    1
    40    38    37    1
    41    33    34    1
    42    33    32    1
    43    42    43    1
    44    42    41    1
    45    42    45    1
    46    34    37    1
    47    34    35    1
