@<TRIPOS>MOLECULE
3dzi_GTP_B_1.pdb
 32 34 0 0 0
SMALL
GASTEIGER

@<TRIPOS>ATOM
      1  PG        20.4210   -1.1650  -16.9060 P.3   302  GTP302      0.5373
      2  O1G       20.8980   -2.5580  -17.2660 O.2   302  GTP302     -0.2221
      3  O2G       20.7620   -0.8670  -15.4570 O.3   302  GTP302     -0.1143
      4  O3G       18.9170   -1.0850  -17.0810 O.3   302  GTP302     -0.1143
      5  O3B       21.1620   -0.1120  -17.8920 O.3   302  GTP302     -0.2258
      6  PB        20.5470    0.2390  -19.3520 P.3   302  GTP302      0.2277
      7  O1B       20.3920   -1.0550  -20.1320 O.2   302  GTP302     -0.5168
      8  O2B       19.2170    0.9610  -19.2080 O.3   302  GTP302     -0.4368
      9  O3A       21.6580    1.1660  -20.0960 O.3   302  GTP302     -0.2700
     10  PA        21.2680    2.3470  -21.1400 P.3   302  GTP302      0.2189
     11  O1A       22.2800    2.4160  -22.2690 O.2   302  GTP302     -0.5170
     12  O2A       19.8730    2.1550  -21.7090 O.3   302  GTP302     -0.4371
     13  O5'       21.3560    3.6820  -20.2310 O.3   302  GTP302     -0.3112
     14  C5'       22.5880    4.3390  -19.9890 C.3   302  GTP302      0.1813
     15  C4'       22.4890    5.8080  -20.4090 C.3   302  GTP302      0.1799
     16  O4'       21.9990    5.9290  -21.7460 O.3   302  GTP302     -0.3326
     17  C3'       21.5040    6.5790  -19.5260 C.3   302  GTP302      0.2158
     18  O3'       21.9790    7.9020  -19.2910 O.3   302  GTP302     -0.2175
     19  C2'       20.2420    6.5860  -20.3830 C.3   302  GTP302      0.2310
     20  O2'       19.2740    7.5470  -20.0150 O.3   302  GTP302     -0.2158
     21  C1'       20.9200    6.8590  -21.7210 C.3   302  GTP302      0.2293
     22  N9        20.0200    6.8540  -22.8900 N.pl3 302  GTP302     -0.2354
     23  C8        18.7230    6.3990  -22.9900 C.3   302  GTP302      0.2246
     24  N7        18.2870    6.6200  -24.2540 N.2   302  GTP302     -0.2322
     25  C5        19.2940    7.2050  -24.9290 C.2   302  GTP302      0.2182
     26  C6        19.3790    7.6350  -26.2270 C.1   302  GTP302      0.2372
     27  O6        18.3880    7.4880  -26.9440 O.2   302  GTP302     -0.2069
     28  N1        20.5470    8.2200  -26.6930 N.2   302  GTP302     -0.2485
     29  C2        21.6370    8.3710  -25.8540 C.1   302  GTP302      0.2531
     30  N2        22.7510    8.9280  -26.3190 N.pl3 302  GTP302     -0.0226
     31  N3        21.5430    7.9400  -24.5400 N.2   302  GTP302     -0.3074
     32  C4        20.3860    7.3670  -24.1020 C.2   302  GTP302      0.2300
@<TRIPOS>BOND
     1    27    26    2
     2    28    26    2
     3    28    29    2
     4    30    29    1
     5    26    25    1
     6    29    31    2
     7    25    24    2
     8    25    32    1
     9    31    32    2
    10    24    23    1
    11    32    22    1
    12    23    22    1
    13    22    21    1
    14    11    10    2
    15    16    21    1
    16    16    15    1
    17    21    19    1
    18    12    10    1
    19    10    13    1
    20    10     9    1
    21    15    14    1
    22    15    17    1
    23    19    20    1
    24    19    17    1
    25    13    14    1
    26     7     6    2
    27     9     6    1
    28    17    18    1
    29     6     8    1
    30     6     5    1
    31     5     1    1
    32     2     1    2
    33     4     1    1
    34     1     3    1
