@<TRIPOS>MOLECULE
3dzj_NMN_A_1.pdb
 22 23 0 0 0
SMALL
GASTEIGER

@<TRIPOS>ATOM
      1  O3P        3.9080    5.8020    3.1720 O.2   301  NMN301     -0.2224
      2  P          4.2340    4.3990    3.5910 P.3   301  NMN301      0.5327
      3  O1P        3.7580    4.2480    5.0060 O.3   301  NMN301     -0.1145
      4  O2P        5.6310    3.9400    3.3600 O.3   301  NMN301     -0.1145
      5  O5R        3.3690    3.4150    2.6740 O.3   301  NMN301     -0.2675
      6  C5R        1.9280    3.5600    2.8130 C.3   301  NMN301      0.1859
      7  C4R        1.2370    3.8520    1.4530 C.3   301  NMN301      0.1801
      8  O4R        1.7290    2.8980    0.5480 O.3   301  NMN301     -0.3327
      9  C3R       -0.2310    3.5760    1.5560 C.3   301  NMN301      0.2158
     10  O3R       -0.9550    4.3120    0.5260 O.3   301  NMN301     -0.2175
     11  C2R       -0.2740    2.0790    1.3220 C.3   301  NMN301      0.2309
     12  O2R       -1.4350    1.7140    0.5900 O.3   301  NMN301     -0.2158
     13  C1R        0.9410    1.7260    0.4630 C.3   301  NMN301      0.2263
     14  N1         1.7500    0.7080    1.1610 N.pl3 301  NMN301     -0.2787
     15  C2         1.1770   -0.2220    1.9470 C.3   301  NMN301      0.1244
     16  C3         1.9700   -1.1270    2.6750 C.2   301  NMN301      0.0544
     17  C7         1.3870   -2.1900    3.5440 C.2   301  NMN301      0.2818
     18  O7         2.1830   -2.8320    4.2060 O.2   301  NMN301     -0.2670
     19  N7         0.0870   -2.4610    3.6010 N.am  301  NMN301     -0.0839
     20  C4         3.3610   -1.0890    2.5600 C.2   301  NMN301      0.0033
     21  C5         3.9270   -0.1260    1.7200 C.2   301  NMN301      0.0157
     22  C6         3.0930    0.7840    1.0400 C.2   301  NMN301      0.0633
@<TRIPOS>BOND
     1    13     8    1
     2    13    14    1
     3    13    11    1
     4    10     9    1
     5     8     7    1
     6    12    11    1
     7    22    14    1
     8    22    21    2
     9    14    15    1
    10    11     9    1
    11     7     9    1
    12     7     6    1
    13    21    20    1
    14    15    16    1
    15    20    16    2
    16     5     6    1
    17     5     2    1
    18    16    17    1
    19     1     2    2
    20     4     2    1
    21    17    19   am
    22    17    18    2
    23     2     3    1
