@<TRIPOS>MOLECULE
3dzk_NMN_A_1.pdb
 22 23 0 0 0
SMALL
GASTEIGER

@<TRIPOS>ATOM
      1  O3P        3.8580    5.9410    3.2960 O.2   301  NMN301     -0.2224
      2  P          4.1950    4.6130    3.9590 P.3   301  NMN301      0.5327
      3  O1P        3.7120    4.5510    5.4110 O.3   301  NMN301     -0.1145
      4  O2P        5.6400    4.1290    3.7120 O.3   301  NMN301     -0.1145
      5  O5R        3.2940    3.5740    3.1470 O.3   301  NMN301     -0.2675
      6  C5R        1.8580    3.5800    3.2060 C.3   301  NMN301      0.1859
      7  C4R        1.2560    3.9880    1.8500 C.3   301  NMN301      0.1801
      8  O4R        1.7600    3.2160    0.7440 O.3   301  NMN301     -0.3327
      9  C3R       -0.2440    3.7150    1.7970 C.3   301  NMN301      0.2158
     10  O3R       -0.7800    4.7980    1.0040 O.3   301  NMN301     -0.2175
     11  C2R       -0.4200    2.4130    1.0240 C.3   301  NMN301      0.2309
     12  O2R       -1.1660    2.8250   -0.1370 O.3   301  NMN301     -0.2158
     13  C1R        0.9860    2.0270    0.5680 C.3   301  NMN301      0.2263
     14  N1         1.6900    0.9720    1.3390 N.pl3 301  NMN301     -0.2787
     15  C2         1.1330    0.1010    2.2200 C.3   301  NMN301      0.1244
     16  C3         1.9400   -0.8460    2.9030 C.2   301  NMN301      0.0544
     17  C7         1.4420   -1.8660    3.8900 C.2   301  NMN301      0.2818
     18  O7         2.2810   -2.4350    4.5620 O.2   301  NMN301     -0.2670
     19  N7         0.1470   -2.1680    4.0470 N.am  301  NMN301     -0.0839
     20  C4         3.3080   -0.8680    2.6780 C.2   301  NMN301      0.0033
     21  C5         3.8570    0.0210    1.7790 C.2   301  NMN301      0.0157
     22  C6         3.0220    0.9190    1.1340 C.2   301  NMN301      0.0633
@<TRIPOS>BOND
     1    12    11    1
     2    13     8    1
     3    13    11    1
     4    13    14    1
     5     8     7    1
     6    10     9    1
     7    11     9    1
     8    22    14    1
     9    22    21    2
    10    14    15    1
    11    21    20    1
    12     9     7    1
    13     7     6    1
    14    15    16    1
    15    20    16    2
    16    16    17    1
    17     5     6    1
    18     5     2    1
    19     1     2    2
    20     4     2    1
    21    17    19   am
    22    17    18    2
    23     2     3    1
