@<TRIPOS>MOLECULE
3dzl_3OC_A_1.pdb
 10 10 0 0 0
SMALL
GASTEIGER

@<TRIPOS>ATOM
      1  CAF       41.5170   -2.3120   92.3280 C.3   500  3OC500      0.0121
      2  CAD       40.1550   -1.9060   92.8550 C.3   500  3OC500      0.0083
      3  CAE       39.3730   -1.0160   91.9140 C.3   500  3OC500      0.0645
      4  CAH       40.2490   -0.0360   91.1910 C.2   500  3OC500      0.1512
      5  OAA       39.7950    0.9840   90.7350 O.2   500  3OC500     -0.2960
      6  CAG       41.7290   -0.2400   90.9970 C.3   500  3OC500      0.0757
      7  CAJ       42.4110   -1.1300   92.0180 C.3   500  3OC500      0.1107
      8  CAI       43.6470   -1.6800   91.2750 C.2   500  3OC500      0.3647
      9  OAC       44.4590   -0.9040   90.8470 O.co2 500  3OC500     -0.2457
     10  OAB       43.6920   -2.8800   91.0730 O.co2 500  3OC500     -0.2457
@<TRIPOS>BOND
     1     5     4    2
     2     9     8   ar
     3     6     4    1
     4     6     7    1
     5    10     8   ar
     6     4     3    1
     7     8     7    1
     8     3     2    1
     9     7     1    1
    10     1     2    1
