@<TRIPOS>MOLECULE
3dzm_C8E_A_1.pdb
 21 20 0 0 0
SMALL
GASTEIGER

@<TRIPOS>ATOM
      1  C1        73.8190  -62.6000  -13.7770 C.3   209  C8E209      0.0000
      2  C2        72.5740  -63.3980  -13.3660 C.3   209  C8E209      0.0000
      3  C3        72.6690  -64.8980  -13.6750 C.3   209  C8E209      0.0000
      4  C4        72.7290  -65.7540  -12.3990 C.3   209  C8E209      0.0000
      5  C5        72.2580  -67.2020  -12.5800 C.3   209  C8E209      0.0001
      6  C6        73.3650  -68.2650  -12.6700 C.3   209  C8E209      0.0026
      7  C7        73.4630  -68.9080  -14.0590 C.3   209  C8E209      0.0321
      8  C8        72.2780  -68.4950  -14.9400 C.3   209  C8E209      0.1423
      9  O9        71.8730  -69.4650  -15.9000 O.3   209  C8E209     -0.3511
     10  C10       70.5990  -70.0150  -15.5910 C.3   209  C8E209      0.1741
     11  C11       69.8760  -70.5660  -16.8200 C.3   209  C8E209      0.1742
     12  O12       68.9890  -69.6030  -17.3570 O.3   209  C8E209     -0.3484
     13  C13       68.6470  -69.8680  -18.7090 C.3   209  C8E209      0.1742
     14  C14       68.3250  -68.5940  -19.4960 C.3   209  C8E209      0.1742
     15  O15       69.1410  -68.5280  -20.6530 O.3   209  C8E209     -0.3484
     16  C16       69.0810  -67.2770  -21.3070 C.3   209  C8E209      0.1742
     17  C17       67.7480  -67.1340  -22.0440 C.3   209  C8E209      0.1742
     18  O18       67.8390  -67.5850  -23.3850 O.3   209  C8E209     -0.3483
     19  C19       67.7310  -68.9840  -23.4960 C.3   209  C8E209      0.1777
     20  C20       66.3890  -69.3860  -22.8960 C.3   209  C8E209      0.2140
     21  O21       65.3820  -69.3170  -23.8680 O.3   209  C8E209     -0.2176
@<TRIPOS>BOND
     1    21    20    1
     2    19    18    1
     3    19    20    1
     4    18    17    1
     5    17    16    1
     6    16    15    1
     7    15    14    1
     8    14    13    1
     9    13    12    1
    10    12    11    1
    11    11    10    1
    12     9    10    1
    13     9     8    1
    14     8     7    1
    15     7     6    1
    16     1     2    1
    17     3     2    1
    18     3     4    1
    19     6     5    1
    20     5     4    1
