@<TRIPOS>MOLECULE
3dzq_IFC_A_1.pdb
 34 37 0 0 0
SMALL
GASTEIGER

@<TRIPOS>ATOM
      1  C1A       -9.9240   18.2750   58.9910 C.3   1001  IFC1001     0.0487
      2  C1Y       -9.1580   18.4170   57.6550 C.2   1001  IFC1001     0.0539
      3  C1Q       -8.6100   17.4230   56.9580 C.3   1001  IFC1001     0.1337
      4  N1S       -8.9060   19.5830   57.0470 N.2   1001  IFC1001    -0.2549
      5  C1L       -8.2040   19.3120   55.9350 C.3   1001  IFC1001     0.2194
      6  N2G       -8.0090   17.9840   55.8830 N.pl3 1001  IFC1001    -0.2820
      7  C2C       -7.3660   17.3340   54.8930 C.ar  1001  IFC1001     0.0496
      8  C1M       -7.9290   16.1290   54.4420 C.ar  1001  IFC1001     0.0191
      9  C1P       -6.1940   17.8540   54.3160 C.ar  1001  IFC1001     0.0184
     10  C2D       -5.5710   17.1510   53.2770 C.ar  1001  IFC1001     0.0728
     11  C2H       -4.2600   17.6900   52.6930 C.3   1001  IFC1001     0.4186
     12  F1F       -3.2850   17.6280   53.5450 F     1001  IFC1001    -0.1659
     13  F1G       -3.8990   16.9850   51.6610 F     1001  IFC1001    -0.1659
     14  F1E       -4.2460   18.9380   52.4810 F     1001  IFC1001    -0.1659
     15  C1O       -6.1310   15.9350   52.8210 C.ar  1001  IFC1001     0.0085
     16  C2B       -7.3060   15.4190   53.4350 C.ar  1001  IFC1001     0.0566
     17  C1W       -7.8850   14.1110   52.8820 C.2   1001  IFC1001     0.2690
     18  O1C       -7.0930   13.2860   52.4440 O.2   1001  IFC1001    -0.2680
     19  N1T       -9.2350   13.9600   52.9190 N.am  1001  IFC1001    -0.1754
     20  C2A       -9.9180   12.9320   52.3270 C.ar  1001  IFC1001     0.0750
     21  C1N       -9.3500   11.8320   51.6730 C.ar  1001  IFC1001     0.0329
     22  C1K      -11.3010   13.1250   52.2580 C.ar  1001  IFC1001     0.0164
     23  C1J      -12.1180   12.2050   51.6010 C.ar  1001  IFC1001    -0.0016
     24  C1Z      -11.5820   11.0720   51.0120 C.ar  1001  IFC1001    -0.0064
     25  C1B      -12.5670   10.1310   50.2740 C.3   1001  IFC1001     0.0324
     26  C2E      -10.1900   10.8660   51.0180 C.ar  1001  IFC1001     0.0711
     27  N1U       -9.7060    9.7500   50.3660 N.am  1001  IFC1001    -0.1730
     28  C1X       -9.6430    8.5520   50.9910 C.2   1001  IFC1001     0.3064
     29  O1D       -9.9920    8.3310   52.1510 O.2   1001  IFC1001    -0.2645
     30  C2F       -9.1220    7.4040   50.1400 C.ar  1001  IFC1001     0.2319
     31  C1I       -8.9760    6.1380   50.5510 C.ar  1001  IFC1001     0.0690
     32  C1H       -8.4970    5.4050   49.5350 C.ar  1001  IFC1001     0.1440
     33  N1R       -8.3790    6.1910   48.4600 N.ar  1001  IFC1001    -0.0751
     34  O1V       -8.7950    7.5660   48.8550 O.2   1001  IFC1001    -0.3486
@<TRIPOS>BOND
     1    33    34   ar
     2    33    32   ar
     3    34    30   ar
     4    32    31   ar
     5    30    31   ar
     6    30    28    1
     7    25    24    1
     8    27    28   am
     9    27    26    1
    10    28    29    2
    11    24    26   ar
    12    24    23   ar
    13    26    21   ar
    14    23    22   ar
    15    13    11    1
    16    21    20   ar
    17    22    20   ar
    18    20    19    1
    19    18    17    2
    20    14    11    1
    21    11    10    1
    22    11    12    1
    23    15    10   ar
    24    15    16   ar
    25    17    19   am
    26    17    16    1
    27    10     9   ar
    28    16     8   ar
    29     9     7   ar
    30     8     7   ar
    31     7     6    1
    32     6     5    1
    33     6     3    1
    34     5     4    1
    35     3     2    1
    36     4     2    2
    37     2     1    1
