@<TRIPOS>MOLECULE
3dzt_EAH_A_1.pdb
 23 22 0 0 0
SMALL
GASTEIGER

@<TRIPOS>ATOM
      1  O1       -13.0790   -6.9900    7.9600 O.co2 305  EAH305     -0.2457
      2  C1       -14.0190   -6.4500    7.4600 C.2   305  EAH305      0.3649
      3  O2       -15.0830   -6.4600    8.0280 O.co2 305  EAH305     -0.2457
      4  C2       -13.9440   -5.8000    6.1130 C.3   305  EAH305      0.1141
      5  C3       -15.1170   -4.8730    6.0520 C.3   305  EAH305      0.0144
      6  C4       -14.7270   -3.4100    5.9870 C.3   305  EAH305      0.0335
      7  C5       -15.7920   -2.6210    5.2360 C.3   305  EAH305      0.1520
      8  O3       -15.8080   -2.8660    3.9390 O.3   305  EAH305     -0.2232
      9  C6       -15.7480   -1.1500    5.6010 C.3   305  EAH305      0.0329
     10  C7       -16.6260   -0.2690    4.7520 C.3   305  EAH305      0.0026
     11  C8       -15.8880    0.8510    4.1260 C.3   305  EAH305      0.0004
     12  C9       -16.6250    1.4750    3.0650 C.3   305  EAH305      0.0047
     13  C10      -15.8940    2.2060    2.2510 C.3   305  EAH305      0.0257
     14  C11      -16.7830    2.7270    1.2520 C.2   305  EAH305     -0.0304
     15  C12      -16.3950    3.3460    0.1750 C.2   305  EAH305     -0.0260
     16  C13      -14.9660    3.6510   -0.0440 C.3   305  EAH305      0.0513
     17  C14      -14.7720    5.1300   -0.1320 C.2   305  EAH305     -0.0260
     18  C15      -14.2290    5.8410   -1.0840 C.2   305  EAH305     -0.0304
     19  C16      -13.6560    5.3030   -2.3450 C.3   305  EAH305      0.0257
     20  C17      -12.2150    4.9220   -2.1890 C.3   305  EAH305      0.0047
     21  C18      -12.2130    3.4540   -1.9330 C.3   305  EAH305      0.0003
     22  C19      -11.0200    2.6650   -2.3850 C.3   305  EAH305      0.0000
     23  C20       -9.8160    2.8450   -1.5390 C.3   305  EAH305      0.0000
@<TRIPOS>BOND
     1    22    21    1
     2    22    23    1
     3    19    20    1
     4    19    18    1
     5    20    21    1
     6    18    17    2
     7    17    16    1
     8    16    15    1
     9    15    14    2
    10    14    13    1
    11    13    12    1
    12    12    11    1
    13     8     7    1
    14    11    10    1
    15    10     9    1
    16     7     9    1
    17     7     6    1
    18     6     5    1
    19     5     4    1
    20     4     2    1
    21     2     1   ar
    22     2     3   ar
