@<TRIPOS>MOLECULE
3dzu_REA_A_1.pdb
 22 22 0 0 0
SMALL
GASTEIGER

@<TRIPOS>ATOM
      1  C1        33.6260   20.7670    4.9510 C.3   7223  REA7223     0.0146
      2  C2        34.0130   21.7420    3.6910 C.3   7223  REA7223     0.0040
      3  C3        35.5180   22.2870    3.5960 C.3   7223  REA7223     0.0046
      4  C4        36.0830   22.6420    4.9750 C.3   7223  REA7223     0.0214
      5  C5        36.0950   21.4240    5.9700 C.2   7223  REA7223    -0.0518
      6  C6        34.9330   20.4810    6.0020 C.2   7223  REA7223    -0.0524
      7  C7        34.7860   19.2990    6.8630 C.3   7223  REA7223     0.0257
      8  C8        34.6350   19.0560    8.2070 C.3   7223  REA7223     0.0263
      9  C9        35.2620   19.5680    9.3890 C.2   7223  REA7223    -0.0436
     10  C10       36.5600   19.1350    9.7780 C.2   7223  REA7223    -0.0085
     11  C11       37.3830   18.2110    9.1270 C.2   7223  REA7223    -0.0010
     12  C12       38.6260   17.9170    9.6510 C.2   7223  REA7223    -0.0041
     13  C13       39.6210   17.0300    9.1570 C.2   7223  REA7223    -0.0153
     14  C14       40.7720   16.9840    9.9420 C.2   7223  REA7223     0.0819
     15  C15       42.0840   16.2110    9.8190 C.2   7223  REA7223     0.3876
     16  C16       33.2530   19.3830    4.2070 C.3   7223  REA7223     0.0040
     17  C17       32.3280   21.2250    5.5580 C.3   7223  REA7223     0.0040
     18  C18       37.3640   21.3530    6.8250 C.3   7223  REA7223     0.0257
     19  C19       34.6000   20.5890   10.2980 C.3   7223  REA7223     0.0264
     20  C20       39.4530   16.1740    7.8340 C.3   7223  REA7223     0.0312
     21  O1        42.7910   16.1010   10.8280 O.co2 7223  REA7223    -0.2406
     22  O2        42.4250   15.7280    8.7140 O.co2 7223  REA7223    -0.2406
@<TRIPOS>BOND
     1     3     2    1
     2     3     4    1
     3     2     1    1
     4    16     1    1
     5     1    17    1
     6     1     6    1
     7     4     5    1
     8     5     6    2
     9     5    18    1
    10     6     7    1
    11     7     8    1
    12    20    13    1
    13     8     9    1
    14    22    15   ar
    15    11    12    2
    16    11    10    1
    17    13    12    1
    18    13    14    2
    19     9    10    2
    20     9    19    1
    21    15    14    1
    22    15    21   ar
