@<TRIPOS>MOLECULE
3dzu_PLB_D_1.pdb
 27 29 0 0 0
SMALL
GASTEIGER

@<TRIPOS>ATOM
      1 CL20       22.7210   49.8040   21.4360 Cl    701  PLB701     -0.0822
      2  C16       21.0710   49.2610   21.4780 C.ar  701  PLB701      0.0585
      3  C15       20.3340   49.4640   22.6780 C.ar  701  PLB701      0.0229
      4  C14       18.9720   49.0450   22.7900 C.ar  701  PLB701      0.0629
      5 CL19       18.1090   49.3170   24.2860 Cl    701  PLB701     -0.0821
      6  C17       20.4620   48.6320   20.3540 C.ar  701  PLB701      0.0116
      7  C18       19.1030   48.2080   20.4450 C.ar  701  PLB701      0.0063
      8  C13       18.3530   48.4120   21.6560 C.ar  701  PLB701      0.0660
      9  C11       16.8800   47.9240   21.6700 C.2   701  PLB701      0.2698
     10  O12       16.5980   46.7660   21.3140 O.2   701  PLB701     -0.2680
     11  N10       16.0040   48.8820   22.0820 N.am  701  PLB701     -0.1752
     12  C2        14.6450   48.8860   22.2280 C.ar  701  PLB701      0.0802
     13  C3        13.8870   47.7130   21.9210 C.ar  701  PLB701      0.0200
     14  C4        12.4830   47.6870   22.0510 C.ar  701  PLB701      0.0400
     15  C5        11.7830   48.8290   22.4890 C.ar  701  PLB701      0.1597
     16  C6        12.4970   50.0190   22.8070 C.ar  701  PLB701      0.0465
     17  C1        13.9360   50.0630   22.6810 C.ar  701  PLB701      0.0981
     18  C7        14.6800   51.3870   23.0390 C.2   701  PLB701      0.3891
     19  O9        15.9440   51.4660   22.9520 O.co2 701  PLB701     -0.2405
     20  O8        13.9430   52.3390   23.4080 O.co2 701  PLB701     -0.2405
     21  O21       10.4310   48.6550   22.5620 O.3   701  PLB701     -0.3917
     22  C22        9.3750   49.1400   21.8440 C.1   701  PLB701      0.1964
     23  N27        8.2900   49.7230   22.4230 N.2   701  PLB701     -0.1847
     24  C26        7.2760   50.1830   21.6410 C.3   701  PLB701      0.1670
     25  C25        7.3270   50.0630   20.2300 C.2   701  PLB701      0.0224
     26  C24        8.4640   49.4560   19.6630 C.2   701  PLB701      0.1099
     27  N23        9.4510   49.0110   20.4740 N.2   701  PLB701     -0.1623
@<TRIPOS>BOND
     1    26    25    2
     2    26    27    1
     3    25    24    1
     4     6     7   ar
     5     6     2   ar
     6     7     8   ar
     7    27    22    2
     8    10     9    2
     9     1     2    1
    10     2     3   ar
    11    24    23    1
    12     8     9    1
    13     8     4   ar
    14     9    11   am
    15    22    23    2
    16    22    21    1
    17    13    14   ar
    18    13    12   ar
    19    14    15   ar
    20    11    12    1
    21    12    17   ar
    22    15    21    1
    23    15    16   ar
    24     3     4   ar
    25    17    16   ar
    26    17    18    1
    27     4     5    1
    28    19    18   ar
    29    18    20   ar
