@<TRIPOS>MOLECULE
3dzv_ADP_A_1.pdb
 27 29 0 0 0
SMALL
GASTEIGER

@<TRIPOS>ATOM
      1  PB       118.8700  123.0210  142.1420 P.3   500  ADP500      0.5373
      2  O1B      119.7700  123.8820  141.2520 O.2   500  ADP500     -0.2221
      3  O2B      117.6220  123.7030  142.6820 O.3   500  ADP500     -0.1143
      4  O3B      118.5820  121.6320  141.5750 O.3   500  ADP500     -0.1143
      5  PA       120.0090  123.5290  144.8520 P.3   500  ADP500      0.2231
      6  O1A      118.9780  123.0160  145.8600 O.3   500  ADP500     -0.4370
      7  O2A      120.1390  125.0090  144.5570 O.2   500  ADP500     -0.5169
      8  O3A      119.8340  122.7250  143.4370 O.3   500  ADP500     -0.2261
      9  O5'      121.4310  123.0000  145.4030 O.3   500  ADP500     -0.3111
     10  C5'      122.6990  123.4420  144.9170 C.3   500  ADP500      0.1813
     11  C4'      123.7520  123.2690  146.0020 C.3   500  ADP500      0.1821
     12  O4'      123.8370  124.4960  146.7300 O.3   500  ADP500     -0.3135
     13  C3'      123.4050  122.1800  147.0030 C.3   500  ADP500      0.2184
     14  O3'      124.5850  121.4720  147.3770 O.3   500  ADP500     -0.2174
     15  C2'      122.8250  122.9190  148.1850 C.3   500  ADP500      0.2570
     16  O2'      123.2030  122.3020  149.4220 O.3   500  ADP500     -0.2130
     17  C1'      123.3960  124.3300  148.0720 C.3   500  ADP500      0.3186
     18  N9       122.3990  125.3750  148.4320 N.pl3 500  ADP500     -0.1439
     19  C8       121.3580  125.8100  147.6940 C.3   500  ADP500      0.3377
     20  N7       120.6670  126.7710  148.3550 N.2   500  ADP500     -0.2095
     21  C5       121.2830  126.9650  149.5350 C.2   500  ADP500      0.2526
     22  C6       121.0900  127.8270  150.7270 C.2   500  ADP500      0.4393
     23  N6       120.0730  128.6960  150.7640 N.pl3 500  ADP500      0.2180
     24  N1       121.9580  127.7330  151.7660 N.2   500  ADP500      0.0021
     25  C2       122.9890  126.8560  151.7300 C.3   500  ADP500      0.5254
     26  N3       123.2270  126.0260  150.6800 N.2   500  ADP500     -0.0055
     27  C4       122.4230  126.0390  149.5810 C.2   500  ADP500      0.3518
@<TRIPOS>BOND
     1     2     1    2
     2     4     1    1
     3     1     3    1
     4     1     8    1
     5     8     5    1
     6     7     5    2
     7     5     9    1
     8     5     6    1
     9    10     9    1
    10    10    11    1
    11    11    12    1
    12    11    13    1
    13    12    17    1
    14    13    14    1
    15    13    15    1
    16    19    20    1
    17    19    18    1
    18    17    15    1
    19    17    18    1
    20    15    16    1
    21    20    21    2
    22    18    27    1
    23    21    27    1
    24    21    22    1
    25    27    26    2
    26    26    25    1
    27    22    23    1
    28    22    24    2
    29    25    24    1
