@<TRIPOS>MOLECULE
3dzw_MAN_A_1.pdb
 11 11 0 0 0
SMALL
GASTEIGER

@<TRIPOS>ATOM
      1  C1        27.7110   34.0750    8.7300 C.3   112  MAN112      0.1777
      2  C2        28.6950   35.1540    9.1600 C.3   112  MAN112      0.2141
      3  C3        29.8730   34.5320    9.9140 C.3   112  MAN112      0.2173
      4  C4        29.3670   33.6870   11.0670 C.3   112  MAN112      0.2142
      5  C5        28.3180   32.6800   10.5760 C.3   112  MAN112      0.1810
      6  C6        27.7170   31.8910   11.7320 C.3   112  MAN112      0.2141
      7  O2        28.0280   36.1150    9.9720 O.3   112  MAN112     -0.2176
      8  O3        30.7430   35.5390   10.4030 O.3   112  MAN112     -0.2175
      9  O4        30.4640   33.0130   11.6820 O.3   112  MAN112     -0.2176
     10  O5        27.2680   33.3560    9.8650 O.3   112  MAN112     -0.3481
     11  O6        26.8220   30.9080   11.2280 O.3   112  MAN112     -0.2176
@<TRIPOS>BOND
     1     1     2    1
     2     1    10    1
     3     2     3    1
     4     2     7    1
     5    10     5    1
     6     3     8    1
     7     3     4    1
     8     5     4    1
     9     5     6    1
    10     4     9    1
    11    11     6    1
