@<TRIPOS>MOLECULE
3dzy_REA_A_1.pdb
 22 22 0 0 0
SMALL
GASTEIGER

@<TRIPOS>ATOM
      1  C1         5.1450    6.2700   39.9720 C.3   463  REA463      0.0146
      2  C2         5.7690    4.7810   39.6860 C.3   463  REA463      0.0040
      3  C3         7.2910    4.6700   39.1870 C.3   463  REA463      0.0046
      4  C4         7.6830    5.8030   38.2350 C.3   463  REA463      0.0214
      5  C5         7.4590    7.2450   38.8270 C.2   463  REA463     -0.0518
      6  C6         6.2510    7.5300   39.6730 C.2   463  REA463     -0.0524
      7  C7         5.9050    8.8180   40.2810 C.3   463  REA463      0.0257
      8  C8         6.3870    9.5730   41.3180 C.3   463  REA463      0.0263
      9  C9         6.4280   10.9820   41.5770 C.2   463  REA463     -0.0436
     10  C10        7.5900   11.5730   42.1500 C.2   463  REA463     -0.0085
     11  C11        8.7620   10.9010   42.5110 C.2   463  REA463     -0.0010
     12  C12        9.8490   11.5680   43.0530 C.2   463  REA463     -0.0041
     13  C13       11.0880   10.9900   43.4450 C.2   463  REA463     -0.0153
     14  C14       12.0230   11.8850   43.9480 C.2   463  REA463      0.0819
     15  C15       13.4550   11.6540   44.4530 C.2   463  REA463      0.3876
     16  C16        4.8560    6.2230   41.5560 C.3   463  REA463      0.0040
     17  C17        3.7740    6.3510   39.3620 C.3   463  REA463      0.0040
     18  C18        8.5700    8.2330   38.4350 C.3   463  REA463      0.0257
     19  C19        5.2750   11.9260   41.2670 C.3   463  REA463      0.0264
     20  C20       11.4080    9.4400   43.3140 C.3   463  REA463      0.0312
     21  O1        14.3930   12.1440   43.8050 O.co2 463  REA463     -0.2406
     22  O2        13.6480   10.9730   45.4930 O.co2 463  REA463     -0.2406
@<TRIPOS>BOND
     1     4     5    1
     2     4     3    1
     3    18     5    1
     4     5     6    2
     5     3     2    1
     6    17     1    1
     7     6     1    1
     8     6     7    1
     9     2     1    1
    10     1    16    1
    11     7     8    1
    12    19     9    1
    13     8     9    1
    14     9    10    2
    15    10    11    1
    16    11    12    2
    17    12    13    1
    18    20    13    1
    19    13    14    2
    20    21    15   ar
    21    14    15    1
    22    15    22   ar
