@<TRIPOS>MOLECULE
3dzy_BRL_D_1.pdb
 25 27 0 0 0
SMALL
GASTEIGER

@<TRIPOS>ATOM
      1  S1        -9.9120   15.6970   16.8950 S.3   478  BRL478      0.0093
      2  O2       -10.3530   13.5350   18.3130 O.2   478  BRL478     -0.2017
      3  O4        -6.4130   14.2020   16.3090 O.2   478  BRL478     -0.2125
      4  O13      -10.0770   22.1050   15.1520 O.3   478  BRL478     -0.4736
      5  N3        -8.3250   13.6720   17.4000 N.2   478  BRL478     -0.2557
      6  N16      -12.8340   23.0730   14.4870 N.pl3 478  BRL478     -0.2879
      7  N18      -13.7340   22.3570   12.1720 N.ar  478  BRL478     -0.2292
      8  C2        -9.5390   14.1510   17.6250 C.1   478  BRL478      0.2450
      9  C4        -7.5780   14.4850   16.6290 C.1   478  BRL478      0.2022
     10  C5        -8.2730   15.7830   16.1750 C.3   478  BRL478      0.1865
     11  C6        -7.5390   17.0790   16.7330 C.3   478  BRL478      0.0562
     12  C7        -8.2020   18.3800   16.2770 C.ar  478  BRL478     -0.0199
     13  C8        -8.3510   18.6650   14.8570 C.ar  478  BRL478     -0.0011
     14  C9        -8.9630   19.8760   14.4290 C.ar  478  BRL478      0.0366
     15  C10       -9.4530   20.8520   15.4330 C.ar  478  BRL478      0.1386
     16  C11       -9.2960   20.5410   16.8380 C.ar  478  BRL478      0.0366
     17  C12       -8.6790   19.3210   17.2610 C.ar  478  BRL478     -0.0011
     18  C14      -10.4450   22.4640   13.7880 C.3   478  BRL478      0.2267
     19  C15      -11.5270   23.5510   13.8770 C.3   478  BRL478      0.1396
     20  C16      -13.0250   23.2060   15.9810 C.3   478  BRL478      0.1137
     21  C17      -13.9450   22.4690   13.5780 C.ar  478  BRL478      0.1318
     22  C19      -14.6970   21.8270   11.3170 C.ar  478  BRL478      0.1003
     23  C20      -15.9540   21.3640   11.8090 C.ar  478  BRL478      0.0208
     24  C21      -16.2200   21.4520   13.2170 C.ar  478  BRL478      0.0045
     25  C22      -15.2390   21.9950   14.1110 C.ar  478  BRL478      0.0343
@<TRIPOS>BOND
     1    22    23   ar
     2    22     7   ar
     3    23    24   ar
     4     7    21   ar
     5    24    25   ar
     6    21    25   ar
     7    21     6    1
     8    18    19    1
     9    18     4    1
    10    19     6    1
    11    14    13   ar
    12    14    15   ar
    13     6    20    1
    14    13    12   ar
    15     4    15    1
    16    15    16   ar
    17    10     9    1
    18    10    11    1
    19    10     1    1
    20    12    11    1
    21    12    17   ar
    22     3     9    2
    23     9     5    2
    24    16    17   ar
    25     1     8    1
    26     5     8    2
    27     8     2    2
