@<TRIPOS>MOLECULE
3e00_REA_A_1.pdb
 22 22 0 0 0
SMALL
GASTEIGER

@<TRIPOS>ATOM
      1  C1         5.0260    6.3630   40.1690 C.3   7223  REA7223     0.0146
      2  C2         5.5920    4.9060   39.6910 C.3   7223  REA7223     0.0040
      3  C3         7.1050    4.8150   39.1970 C.3   7223  REA7223     0.0046
      4  C4         7.5250    6.0490   38.3950 C.3   7223  REA7223     0.0214
      5  C5         7.3660    7.4010   39.1800 C.2   7223  REA7223    -0.0518
      6  C6         6.1750    7.6100   40.0540 C.2   7223  REA7223    -0.0524
      7  C7         5.8680    8.8070   40.8420 C.3   7223  REA7223     0.0257
      8  C8         6.5330    9.5900   41.7500 C.3   7223  REA7223     0.0263
      9  C9         6.8370   10.9910   41.8020 C.2   7223  REA7223    -0.0436
     10  C10        8.0740   11.4340   42.3360 C.2   7223  REA7223    -0.0085
     11  C11        9.0960   10.6310   42.8520 C.2   7223  REA7223    -0.0010
     12  C12       10.2660   11.2010   43.3370 C.2   7223  REA7223    -0.0041
     13  C13       11.4050   10.5500   43.8860 C.2   7223  REA7223    -0.0153
     14  C14       12.4160   11.4120   44.2570 C.2   7223  REA7223     0.0819
     15  C15       13.7900   11.1220   44.8520 C.2   7223  REA7223     0.3876
     16  C16        4.7220    6.1150   41.7250 C.3   7223  REA7223     0.0040
     17  C17        3.6660    6.5810   39.5650 C.3   7223  REA7223     0.0040
     18  C18        8.5140    8.3830   38.9270 C.3   7223  REA7223     0.0257
     19  C19        5.8940   12.0830   41.3030 C.3   7223  REA7223     0.0264
     20  C20       11.5460    8.9750   44.0500 C.3   7223  REA7223     0.0312
     21  O1        14.8030   11.4520   44.2020 O.co2 7223  REA7223    -0.2406
     22  O2        13.8690   10.5540   45.9680 O.co2 7223  REA7223    -0.2406
@<TRIPOS>BOND
     1     4     5    1
     2     4     3    1
     3    18     5    1
     4     5     6    2
     5     3     2    1
     6    17     1    1
     7     2     1    1
     8     6     1    1
     9     6     7    1
    10     1    16    1
    11     7     8    1
    12    19     9    1
    13     8     9    1
    14     9    10    2
    15    10    11    1
    16    11    12    2
    17    12    13    1
    18    13    20    1
    19    13    14    2
    20    21    15   ar
    21    14    15    1
    22    15    22   ar
