@<TRIPOS>MOLECULE
3e00_GW9_D_1.pdb
 19 20 0 0 0
SMALL
GASTEIGER

@<TRIPOS>ATOM
      1 CL        -12.9180   21.0970   15.4580 Cl    7123  GW97123    -0.0821
      2  C9       -11.4860   20.9010   14.3790 C.ar  7123  GW97123     0.0622
      3  C10      -11.1680   21.9660   13.4910 C.ar  7123  GW97123     0.0132
      4  C11      -10.0670   21.9040   12.6040 C.ar  7123  GW97123     0.0249
      5  C12       -9.2590   20.7360   12.6010 C.ar  7123  GW97123     0.1431
      6  N2        -8.1290   20.6100   11.7310 N.pl3 7123  GW97123     0.0577
      7  O3        -7.4520   19.5850   11.7600 O.2   7123  GW97123    -0.1261
      8  O2        -7.8190   21.5080   10.9500 O.2   7123  GW97123    -0.1261
      9  C13       -9.5720   19.6600   13.4910 C.ar  7123  GW97123     0.0295
     10  C8       -10.6810   19.6900   14.4010 C.ar  7123  GW97123     0.0676
     11  C1       -10.7400   18.3700   15.1980 C.2   7123  GW97123     0.2698
     12  O1       -11.8520   17.9440   15.5220 O.2   7123  GW97123    -0.2680
     13  N1        -9.6220   17.6090   15.4450 N.am  7123  GW97123    -0.1754
     14  C2        -9.4640   16.3330   16.0040 C.ar  7123  GW97123     0.0737
     15  C7        -8.1280   15.8410   16.1100 C.ar  7123  GW97123     0.0166
     16  C6        -7.8390   14.5640   16.6490 C.ar  7123  GW97123     0.0013
     17  C5        -8.8850   13.7230   17.1060 C.ar  7123  GW97123     0.0001
     18  C4       -10.2180   14.1670   17.0220 C.ar  7123  GW97123     0.0013
     19  C3       -10.5030   15.4480   16.4800 C.ar  7123  GW97123     0.0166
@<TRIPOS>BOND
     1     8     6    2
     2     6     7    2
     3     6     5    1
     4     5     4   ar
     5     5     9   ar
     6     4     3   ar
     7     3     2   ar
     8     9    10   ar
     9     2    10   ar
    10     2     1    1
    11    10    11    1
    12    11    13   am
    13    11    12    2
    14    13    14    1
    15    14    15   ar
    16    14    19   ar
    17    15    16   ar
    18    19    18   ar
    19    16    17   ar
    20    18    17   ar
