@<TRIPOS>MOLECULE
3e01_PZ2_A_1.pdb
 27 30 0 0 0
SMALL
GASTEIGER

@<TRIPOS>ATOM
      1  C1        52.7790   66.7770   14.3550 C.2   562  PZ2562      0.0830
      2  C2        52.9540   67.0380   15.7280 C.2   562  PZ2562      0.0339
      3  C3        53.1050   68.3380   16.1360 C.2   562  PZ2562      0.1236
      4  N4        53.0880   69.2980   15.2220 N.2   562  PZ2562     -0.1375
      5  N5        52.9410   69.0820   13.9500 N.2   562  PZ2562     -0.0919
      6  C6        52.7770   67.8630   13.4580 C.1   562  PZ2562      0.0785
      7  C7        52.5870   65.5820   13.5440 C.2   562  PZ2562      0.0951
      8  N8        52.5940   67.3460   12.2130 N.2   562  PZ2562     -0.0922
      9  N9        52.4760   65.9580   12.3000 N.2   562  PZ2562     -0.1425
     10  C10       49.3170   64.2450   16.9500 C.ar  562  PZ2562      0.1514
     11  C11       49.0380   64.2510   15.5880 C.ar  562  PZ2562      0.0687
     12  C12       50.0640   64.2250   14.6580 C.ar  562  PZ2562      0.0059
     13  C13       51.3790   64.1870   15.0880 C.ar  562  PZ2562     -0.0154
     14  C14       51.6630   64.1880   16.4460 C.ar  562  PZ2562     -0.0007
     15  C15       50.6410   64.2180   17.3780 C.ar  562  PZ2562      0.0377
     16  C16       48.4550   62.0540   20.6890 C.ar  562  PZ2562     -0.0182
     17  C17       48.6940   62.9490   21.7140 C.ar  562  PZ2562      0.0062
     18  C18       48.7900   64.3100   21.4160 C.ar  562  PZ2562      0.0712
     19  C19       48.6490   64.7510   20.1040 C.ar  562  PZ2562      0.0477
     20  C20       48.4160   63.8390   19.0950 C.ar  562  PZ2562      0.1457
     21  C21       48.3140   62.4910   19.3850 C.ar  562  PZ2562      0.0333
     22  C22       48.3480   60.5830   20.9720 C.3   562  PZ2562      0.0312
     23  C23       49.0300   65.2700   22.4430 C.1   562  PZ2562      0.1005
     24  N24       49.2200   66.0390   23.2530 N.1   562  PZ2562     -0.1908
     25  O25       48.2720   64.2730   17.8220 O.3   562  PZ2562     -0.4530
     26 BR26       47.2370   64.2870   15.0060 Br    562  PZ2562     -0.0458
     27  C27       52.4970   64.1730   14.0750 C.3   562  PZ2562      0.0746
@<TRIPOS>BOND
     1     8     9    1
     2     8     6    2
     3     9     7    2
     4     6     5    2
     5     6     1    1
     6     7    27    1
     7     7     1    1
     8     5     4    1
     9    27    13    1
    10     1     2    2
    11    12    13   ar
    12    12    11   ar
    13    26    11    1
    14    13    14   ar
    15     4     3    2
    16    11    10   ar
    17     2     3    1
    18    14    15   ar
    19    10    15   ar
    20    10    25    1
    21    25    20    1
    22    20    21   ar
    23    20    19   ar
    24    21    16   ar
    25    19    18   ar
    26    16    22    1
    27    16    17   ar
    28    18    17   ar
    29    18    23    1
    30    23    24    3
