@<TRIPOS>MOLECULE
3e08_HEM_A_1.pdb
 43 50 0 0 0
SMALL
GASTEIGER

@<TRIPOS>ATOM
      1 FE         25.0380   14.8560    3.3390 Fe    401  HEM401      0.0000
      2  CHA       23.4520   17.8530    2.9320 C.2   401  HEM401      0.0000
      3  CHB       27.9970   16.5160    3.9440 C.2   401  HEM401      0.0000
      4  CHC       26.5430   11.8960    3.8710 C.2   401  HEM401      0.0000
      5  CHD       22.1130   13.1930    2.4780 C.2   401  HEM401      0.0000
      6  NA        25.6080   16.8080    3.4670 N.2   401  HEM401      0.0000
      7  C1A       24.8040   17.8890    3.1690 C.2   401  HEM401      0.0000
      8  C2A       25.6220   19.0860    3.1960 C.2   401  HEM401      0.0000
      9  C3A       26.8780   18.7100    3.4810 C.2   401  HEM401      0.0000
     10  C4A       26.8920   17.2780    3.6520 C.2   401  HEM401      0.0000
     11  CMA       28.1290   19.6020    3.6010 C.3   401  HEM401      0.0000
     12  CAA       25.1060   20.5160    2.9080 C.3   401  HEM401      0.0000
     13  CBA       24.9620   20.7160    1.3910 C.3   401  HEM401      0.0000
     14  CGA       26.3090   20.8620    0.7150 C.2   401  HEM401      0.0000
     15  O1A       26.7580   19.8970    0.0300 O.co2 401  HEM401      0.0000
     16  O2A       26.9590   21.9460    0.8730 O.co2 401  HEM401      0.0000
     17  NB        26.8990   14.3250    3.8500 N.ar  401  HEM401      0.0000
     18  C1B       27.9990   15.1400    4.0050 C.ar  401  HEM401      0.0000
     19  C2B       29.1460   14.3030    4.2600 C.ar  401  HEM401      0.0000
     20  C3B       28.7320   13.0280    4.2610 C.ar  401  HEM401      0.0000
     21  C4B       27.3140   13.0230    3.9780 C.ar  401  HEM401      0.0000
     22  CMB       30.5720   14.8290    4.5200 C.3   401  HEM401      0.0000
     23  CAB       29.5660   11.7440    4.4670 C.2   401  HEM401      0.0000
     24  CBB       30.8860   11.7260    4.2570 C.2   401  HEM401      0.0000
     25  NC        24.4370   12.9230    3.2070 N.2   401  HEM401      0.0000
     26  C1C       25.2450   11.8360    3.4370 C.2   401  HEM401      0.0000
     27  C2C       24.4900   10.6300    3.1630 C.2   401  HEM401      0.0000
     28  C3C       23.2720   11.0190    2.7590 C.2   401  HEM401      0.0000
     29  C4C       23.2150   12.4530    2.8060 C.2   401  HEM401      0.0000
     30  CMC       25.0440    9.1970    3.2930 C.3   401  HEM401      0.0000
     31  CAC       22.0460   10.1900    2.3670 C.2   401  HEM401      0.0000
     32  CBC       21.8100    9.0850    3.0630 C.2   401  HEM401      0.0000
     33  ND        23.0830   15.4170    2.7690 N.ar  401  HEM401      0.0000
     34  C1D       22.0300   14.5560    2.5460 C.ar  401  HEM401      0.0000
     35  C2D       20.8160   15.3110    2.3790 C.ar  401  HEM401      0.0000
     36  C3D       21.2320   16.7680    2.5060 C.ar  401  HEM401      0.0000
     37  C4D       22.6570   16.7410    2.7560 C.ar  401  HEM401      0.0000
     38  CMD       19.4050   14.7510    2.1110 C.3   401  HEM401      0.0000
     39  CAD       20.3130   17.9980    2.4290 C.3   401  HEM401      0.0000
     40  CBD       20.0130   18.3660    3.8820 C.3   401  HEM401      0.0000
     41  CGD       19.2230   19.6470    3.9560 C.2   401  HEM401      0.0000
     42  O1D       18.8890   20.0790    5.0850 O.co2 401  HEM401      0.0000
     43  O2D       18.9380   20.2350    2.8880 O.co2 401  HEM401      0.0000
@<TRIPOS>BOND
     1    15    14   ar
     2    14    16   ar
     3    14    13    1
     4    13    12    1
     5    38    35    1
     6    31    28    1
     7    31    32    2
     8    35    36   ar
     9    35    34   ar
    10    39    36    1
    11    39    40    1
    12     5    34    2
    13     5    29    1
    14    36    37   ar
    15    34    33   ar
    16    37    33   ar
    17    37     2    2
    18    28    29    1
    19    28    27    2
    20    33     1    1
    21    29    25    2
    22    43    41   ar
    23    12     8    1
    24     2     7    1
    25    27    30    1
    26    27    26    1
    27     7     8    1
    28     7     6    2
    29     8     9    2
    30    25     1    1
    31    25    26    1
    32     1     6    1
    33     1    17    1
    34    26     4    2
    35     6    10    1
    36     9    11    1
    37     9    10    1
    38    10     3    2
    39    17    21   ar
    40    17    18   ar
    41     4    21    1
    42    40    41    1
    43     3    18    1
    44    41    42   ar
    45    21    20   ar
    46    18    19   ar
    47    24    23    2
    48    19    20   ar
    49    19    22    1
    50    20    23    1
