@<TRIPOS>MOLECULE
3e08_TRP_A_1.pdb
 15 16 0 0 0
SMALL
GASTEIGER

@<TRIPOS>ATOM
      1  N         28.1190   16.9270    0.4040 N.3   402  TRP402     -0.1205
      2  CA        29.1870   15.9750    0.7050 C.3   402  TRP402      0.1984
      3  C         30.5070   16.6810    0.9870 C.2   402  TRP402      0.3822
      4  O         31.5680   16.0440    1.0210 O.co2 402  TRP402     -0.2440
      5  CB        29.3670   14.9880   -0.4460 C.3   402  TRP402      0.0549
      6  CG        28.4330   13.8060   -0.3570 C.2   402  TRP402     -0.0138
      7  CD1       27.9700   13.2050    0.7740 C.2   402  TRP402      0.0907
      8  CD2       27.8670   13.0890   -1.4610 C.3   402  TRP402      0.0819
      9  NE1       27.1260   12.1420    0.4330 N.2   402  TRP402     -0.2482
     10  CE2       27.0570   12.0600   -0.9310 C.2   402  TRP402      0.0665
     11  CE3       27.9670   13.2220   -2.8520 C.2   402  TRP402     -0.0164
     12  CZ2       26.3520   11.1700   -1.7470 C.2   402  TRP402      0.0153
     13  CZ3       27.2730   12.3320   -3.6540 C.2   402  TRP402     -0.0038
     14  CH2       26.4810   11.3180   -3.0980 C.2   402  TRP402      0.0009
     15  OXT       30.5160   17.9000    1.1730 O.co2 402  TRP402     -0.2440
@<TRIPOS>BOND
     1    13    14    1
     2    13    11    2
     3    14    12    2
     4    11     8    1
     5    12    10    1
     6     8    10    1
     7     8     6    1
     8    10     9    2
     9     5     6    1
    10     5     2    1
    11     6     7    2
    12     1     2    1
    13     9     7    1
    14     2     3    1
    15     3     4   ar
    16     3    15   ar
