@<TRIPOS>MOLECULE
3e0b_N22_A_1.pdb
 23 24 0 0 0
SMALL
GASTEIGER

@<TRIPOS>ATOM
      1  C8        -2.3820   15.1260    5.0250 C.3   208  N22208      0.0076
      2  C7        -3.6770   15.7430    4.5800 C.3   208  N22208      0.0569
      3  C5        -3.5780   16.1000    3.0910 C.2   208  N22208      0.1203
      4  N4        -3.0360   17.2790    2.7680 N.2   208  N22208     -0.3332
      5  C3        -2.9480   17.6960    1.4910 C.1   208  N22208      0.2419
      6  N8        -2.3900   18.8980    1.2380 N.pl3 208  N22208     -0.0232
      7  N2        -3.3980   16.9240    0.4880 N.2   208  N22208     -0.3105
      8  C1        -3.9400   15.7180    0.7380 C.2   208  N22208      0.2282
      9  N7        -4.4060   14.9700   -0.2600 N.pl3 208  N22208     -0.0955
     10  C6        -4.0600   15.2830    2.0670 C.3   208  N22208      0.1831
     11  C9        -4.6500   14.0030    2.4140 C.1   208  N22208     -0.0760
     12  C10       -5.1640   12.9180    2.8110 C.1   208  N22208     -0.0853
     13  C11       -5.7030   11.6450    3.3310 C.3   208  N22208      0.1054
     14  C13       -6.7080   11.8440    4.4840 C.ar  208  N22208      0.0278
     15  C18       -7.6310   12.9110    4.4190 C.ar  208  N22208      0.0366
     16  C17       -8.5820   13.1120    5.4360 C.ar  208  N22208      0.1386
     17  O2        -9.5040   14.1520    5.4130 O.3   208  N22208     -0.4714
     18  C4        -9.4080   14.9790    4.2540 C.3   208  N22208      0.2525
     19  C16       -8.6190   12.2320    6.5120 C.ar  208  N22208      0.0400
     20  C15       -7.7220   11.1640    6.5740 C.ar  208  N22208      0.0397
     21  C14       -6.7790   10.9520    5.5630 C.ar  208  N22208      0.1358
     22  O10       -5.8990    9.8820    5.6060 O.3   208  N22208     -0.4717
     23  C2        -6.1410    8.9220    6.6370 C.3   208  N22208      0.2525
@<TRIPOS>BOND
     1     9     8    1
     2     7     8    2
     3     7     5    2
     4     8    10    1
     5     6     5    1
     6     5     4    2
     7    10    11    1
     8    10     3    1
     9    11    12    3
    10     4     3    2
    11    12    13    1
    12     3     2    1
    13    13    14    1
    14    18    17    1
    15    15    14   ar
    16    15    16   ar
    17    14    21   ar
    18     2     1    1
    19    17    16    1
    20    16    19   ar
    21    21    22    1
    22    21    20   ar
    23    22    23    1
    24    19    20   ar
