@<TRIPOS>MOLECULE
3e0b_NAP_A_1.pdb
 48 52 0 0 0
SMALL
GASTEIGER

@<TRIPOS>ATOM
      1  PA        -4.0620    4.7060   -3.8190 P.3   207  NAP207      0.2189
      2  O1A       -3.3900    5.3090   -4.9910 O.2   207  NAP207     -0.5170
      3  O2A       -4.9370    5.6480   -3.0700 O.3   207  NAP207     -0.4371
      4  O5B       -5.0060    3.5330   -4.2930 O.3   207  NAP207     -0.3112
      5  C5B       -4.4960    2.4880   -5.0630 C.3   207  NAP207      0.1813
      6  C4B       -5.7420    1.8090   -5.5850 C.3   207  NAP207      0.1820
      7  O4B       -6.2680    2.6050   -6.6320 O.3   207  NAP207     -0.3136
      8  C3B       -5.4860    0.4430   -6.1850 C.3   207  NAP207      0.2157
      9  O3B       -5.4990   -0.5510   -5.2000 O.3   207  NAP207     -0.2175
     10  C2B       -6.6540    0.3210   -7.1370 C.3   207  NAP207      0.2314
     11  O2B       -7.8160   -0.0830   -6.4320 O.3   207  NAP207     -0.2630
     12  C1B       -6.8500    1.7680   -7.5940 C.3   207  NAP207      0.3158
     13  N9A       -6.1210    1.9430   -8.8380 N.pl3 207  NAP207     -0.1439
     14  C8A       -4.7670    2.1330   -9.0080 C.3   207  NAP207      0.3377
     15  N7A       -4.5200    2.2630  -10.3370 N.2   207  NAP207     -0.2095
     16  C5A       -5.6980    2.1430  -11.0000 C.2   207  NAP207      0.2526
     17  C6A       -6.0330    2.1510  -12.3470 C.2   207  NAP207      0.4393
     18  N6A       -5.0880    2.3230  -13.2680 N.pl3 207  NAP207      0.2180
     19  N1A       -7.3550    1.9960  -12.7190 N.2   207  NAP207      0.0021
     20  C2A       -8.3500    1.8330  -11.7810 C.3   207  NAP207      0.5254
     21  N3A       -8.0100    1.8100  -10.4470 N.2   207  NAP207     -0.0055
     22  C4A       -6.7100    1.9400  -10.0680 C.2   207  NAP207      0.3518
     23  O3        -2.9980    3.8680   -2.9150 O.3   207  NAP207     -0.2703
     24  PN        -1.4450    4.0730   -2.4980 P.3   207  NAP207      0.2189
     25  O1N       -1.0000    2.9150   -1.6810 O.3   207  NAP207     -0.4371
     26  O2N       -0.6900    4.3620   -3.7250 O.2   207  NAP207     -0.5170
     27  O5D       -1.5130    5.4260   -1.5770 O.3   207  NAP207     -0.3112
     28  C5D       -2.1590    5.4250   -0.3170 C.3   207  NAP207      0.1813
     29  C4D       -1.2460    6.0230    0.7460 C.3   207  NAP207      0.1799
     30  O4D       -0.9930    7.3930    0.5190 O.3   207  NAP207     -0.3327
     31  C3D       -1.8360    5.9510    2.1480 C.3   207  NAP207      0.2158
     32  O3D       -0.7410    5.8140    3.0320 O.3   207  NAP207     -0.2175
     33  C2D       -2.4040    7.3310    2.3660 C.3   207  NAP207      0.2309
     34  O2D       -2.5260    7.5760    3.7410 O.3   207  NAP207     -0.2158
     35  C1D       -1.3430    8.1800    1.6620 C.3   207  NAP207      0.2263
     36  N1N       -1.8460    9.4810    1.1710 N.pl3 207  NAP207     -0.2787
     37  C2N       -1.1680   10.6320    1.5000 C.3   207  NAP207      0.1244
     38  C3N       -1.6100   11.8570    1.0030 C.2   207  NAP207      0.0544
     39  C7N       -0.8990   13.1180    1.3730 C.2   207  NAP207      0.2818
     40  O7N       -1.2650   14.2970    0.7110 O.2   207  NAP207     -0.2670
     41  N7N        0.0710   13.1040    2.2920 N.am  207  NAP207     -0.0839
     42  C4N       -2.7310   11.9130    0.1600 C.2   207  NAP207      0.0033
     43  C5N       -3.4070   10.7510   -0.1660 C.2   207  NAP207      0.0157
     44  C6N       -2.9490    9.5340    0.3430 C.2   207  NAP207      0.0633
     45  P2B       -8.3150   -1.5970   -6.3320 P.3   207  NAP207      0.5328
     46  O1X       -8.4720   -2.1660   -7.7390 O.2   207  NAP207     -0.2224
     47  O2X       -7.2610   -2.3430   -5.5700 O.3   207  NAP207     -0.1145
     48  O3X       -9.5940   -1.6380   -5.5510 O.3   207  NAP207     -0.1145
@<TRIPOS>BOND
     1    18    17    1
     2    19    17    2
     3    19    20    1
     4    17    16    1
     5    20    21    1
     6    16    15    2
     7    16    22    1
     8    21    22    2
     9    15    14    1
    10    22    13    1
    11    14    13    1
    12    13    12    1
    13    46    45    2
    14    12    10    1
    15    12     7    1
    16    10    11    1
    17    10     8    1
    18     7     6    1
    19    11    45    1
    20    45    47    1
    21    45    48    1
    22     8     6    1
    23     8     9    1
    24     6     5    1
    25     5     4    1
    26     2     1    2
    27     4     1    1
    28     1     3    1
    29     1    23    1
    30    26    24    2
    31    23    24    1
    32    24    25    1
    33    24    27    1
    34    27    28    1
    35    28    29    1
    36    43    42    1
    37    43    44    2
    38    42    38    2
    39    44    36    1
    40    30    29    1
    41    30    35    1
    42    40    39    2
    43    29    31    1
    44    38    39    1
    45    38    37    1
    46    36    37    1
    47    36    35    1
    48    39    41   am
    49    35    33    1
    50    31    33    1
    51    31    32    1
    52    33    34    1
