@<TRIPOS>MOLECULE
3e0d_DTP_A_1.pdb
 30 32 0 0 0
SMALL
GASTEIGER

@<TRIPOS>ATOM
      1  PG        70.3900  -23.5030   13.6570 P.3   1222  DTP1222     0.5373
      2  O1G       70.0540  -24.8980   13.3320 O.3   1222  DTP1222    -0.1143
      3  O2G       69.4960  -22.7780   14.5860 O.3   1222  DTP1222    -0.1143
      4  O3G       70.8190  -22.6750   12.3960 O.2   1222  DTP1222    -0.2221
      5  PB        72.6020  -24.7060   14.9660 P.3   1222  DTP1222     0.2277
      6  O1B       73.6800  -24.1190   15.9340 O.3   1222  DTP1222    -0.4368
      7  O2B       71.6740  -25.7550   15.5060 O.2   1222  DTP1222    -0.5168
      8  O3B       71.8450  -23.5400   14.3040 O.3   1222  DTP1222    -0.2258
      9  PA        73.0790  -26.5930   12.7980 P.3   1222  DTP1222     0.2189
     10  O1A       71.6470  -27.1210   12.9880 O.3   1222  DTP1222    -0.4371
     11  O2A       73.5560  -26.1940   11.5170 O.2   1222  DTP1222    -0.5170
     12  O3A       73.2960  -25.2660   13.6820 O.3   1222  DTP1222    -0.2700
     13  O5'       74.1790  -27.6190   13.4430 O.3   1222  DTP1222    -0.3112
     14  C5'       73.9310  -28.4200   14.6220 C.3   1222  DTP1222     0.1813
     15  C4'       75.2560  -28.8770   15.2380 C.3   1222  DTP1222     0.1795
     16  O4'       76.2790  -29.1400   14.2180 O.3   1222  DTP1222    -0.3155
     17  C3'       75.9230  -27.8330   16.1640 C.3   1222  DTP1222     0.1883
     18  O3'       76.4560  -28.2020   17.4110 O.3   1222  DTP1222    -0.2202
     19  C2'       77.0120  -27.2530   15.3090 C.3   1222  DTP1222     0.1151
     20  C1'       77.4100  -28.4370   14.4360 C.3   1222  DTP1222     0.2873
     21  N9        77.9100  -27.9040   13.2000 N.pl3 1222  DTP1222    -0.1460
     22  C8        77.2000  -27.3560   12.1630 C.3   1222  DTP1222     0.3377
     23  N7        77.9270  -27.0850   11.1100 N.2   1222  DTP1222    -0.2095
     24  C5        79.2110  -27.4700   11.4670 C.2   1222  DTP1222     0.2526
     25  C6        80.4480  -27.4510   10.7720 C.2   1222  DTP1222     0.4393
     26  N6        80.5810  -27.0070    9.5160 N.pl3 1222  DTP1222     0.2180
     27  N1        81.5470  -27.9090   11.4170 N.2   1222  DTP1222     0.0021
     28  C2        81.4070  -28.3670   12.6680 C.3   1222  DTP1222     0.5254
     29  N3        80.2970  -28.4480   13.4230 N.2   1222  DTP1222    -0.0055
     30  C4        79.2230  -27.9790   12.7560 C.2   1222  DTP1222     0.3518
@<TRIPOS>BOND
     1    26    25    1
     2    25    27    2
     3    25    24    1
     4    23    24    2
     5    23    22    1
     6    27    28    1
     7    24    30    1
     8    11     9    2
     9    22    21    1
    10     4     1    2
    11    28    29    1
    12    30    21    1
    13    30    29    2
    14     9    10    1
    15     9    13    1
    16     9    12    1
    17    21    20    1
    18     2     1    1
    19    13    14    1
    20     1     8    1
    21     1     3    1
    22    12     5    1
    23    16    20    1
    24    16    15    1
    25     8     5    1
    26    20    19    1
    27    14    15    1
    28     5     7    2
    29     5     6    1
    30    15    17    1
    31    19    17    1
    32    17    18    1
