@<TRIPOS>MOLECULE
3e0i_PEP_A_1.pdb
 10 9 0 0 0
SMALL
GASTEIGER

@<TRIPOS>ATOM
      1  C1        32.6090   51.8280   22.5550 C.2   3268  PEP3268     0.3919
      2  O1        33.4100   52.3110   23.3620 O.co2 3268  PEP3268    -0.2429
      3  O2'       31.3590   51.8670   22.6730 O.co2 3268  PEP3268    -0.2429
      4  C2        33.1530   51.1170   21.2970 C.3   3268  PEP3268     0.2285
      5  C3        34.5140   50.9110   21.0000 C.3   3268  PEP3268     0.0450
      6  O2        32.1490   50.7260   20.5100 O.3   3268  PEP3268    -0.2611
      7  P         32.3650   49.6480   19.2950 P.3   3268  PEP3268     0.5330
      8  O1P       32.9920   48.2830   19.7230 O.3   3268  PEP3268    -0.1145
      9  O2P       33.1600   50.4040   18.0720 O.2   3268  PEP3268    -0.2224
     10  O3P       30.7890   49.5370   18.7530 O.3   3268  PEP3268    -0.1145
@<TRIPOS>BOND
     1     9     7    2
     2    10     7    1
     3     7     8    1
     4     7     6    1
     5     6     4    1
     6     5     4    1
     7     4     1    1
     8     1     3   ar
     9     1     2   ar
