@<TRIPOS>MOLECULE
3e0m_III_E_1.pdb
 47 47 0 0 0
SMALL
GASTEIGER

@<TRIPOS>ATOM
      1  N        164.3350   62.8760   40.1650 N.3    -1  SER-1      -0.1202
      2  CA       163.9300   64.1660   39.5370 C.3    -1  SER-1       0.2020
      3  C        162.4530   64.4480   39.8120 C.2    -1  SER-1       0.2619
      4  O        162.1080   65.4010   40.5100 O.2    -1  SER-1      -0.2717
      5  CB       164.1770   64.1100   38.0250 C.3    -1  SER-1       0.2103
      6  OG       163.9710   65.3790   37.4260 O.3    -1  SER-1      -0.2182
      7  N        161.5900   63.6020   39.2610 N.am    0  HIS0       -0.1961
      8  CA       160.1510   63.7440   39.4350 C.3     0  HIS0        0.1784
      9  C        159.5140   62.5780   40.1770 C.2     0  HIS0        0.2620
     10  O        160.0810   61.4870   40.2430 O.2     0  HIS0       -0.2715
     11  CB       159.4900   63.9310   38.0760 C.3     0  HIS0        0.0745
     12  CG       159.3340   65.3650   37.6940 C.2     0  HIS0        0.0653
     13  ND1      158.3450   66.1660   38.2220 N.2     0  HIS0       -0.2310
     14  CD2      160.0860   66.1660   36.9050 C.3     0  HIS0        0.1683
     15  CE1      158.4960   67.4010   37.7780 C.2     0  HIS0        0.1939
     16  NE2      159.5460   67.4280   36.9770 N.2     0  HIS0       -0.2440
     17  N        158.3370   62.8140   40.7470 N.am    1  MET1       -0.1963
     18  CA       157.6470   61.7680   41.4850 C.3     1  MET1        0.1736
     19  C        157.2060   60.6890   40.5120 C.2     1  MET1        0.2616
     20  O        156.4490   60.9560   39.5820 O.2     1  MET1       -0.2715
     21  CB       156.4250   62.3300   42.2020 C.3     1  MET1        0.0427
     22  CG       156.7120   63.5200   43.0930 C.3     1  MET1        0.0599
     23  SD       155.2000   64.1940   43.8160 S.3     1  MET1       -0.1393
     24  CE       155.7470   64.5560   45.4520 C.3     1  MET1        0.0692
     25  N        157.6850   59.4700   40.7250 N.am    2  ALA2       -0.1963
     26  CA       157.3320   58.3540   39.8600 C.3     2  ALA2        0.1728
     27  C        157.0860   57.1510   40.7330 C.2     2  ALA2        0.2616
     28  O        157.8010   56.9410   41.7110 O.2     2  ALA2       -0.2715
     29  CB       158.4720   58.0570   38.8850 C.3     2  ALA2        0.0334
     30  N        156.0640   56.3690   40.4090 N.am    3  GLU3       -0.1963
     31  CA       155.8110   55.1690   41.1920 C.3     3  GLU3        0.1733
     32  C        156.5170   54.0780   40.4310 C.2     3  GLU3        0.2617
     33  O        157.2890   54.3490   39.5090 O.2     3  GLU3       -0.2715
     34  CB       154.3260   54.8190   41.2730 C.3     3  GLU3        0.0429
     35  CG       153.7630   54.0740   40.0640 C.3     3  GLU3        0.1163
     36  CD       152.3950   53.4710   40.3390 C.2     3  GLU3        0.3649
     37  OE1      151.3820   54.2070   40.2740 O.co2   3  GLU3       -0.2457
     38  OE2      152.3410   52.2580   40.6340 O.co2   3  GLU3       -0.2457
     39  N        156.2490   52.8370   40.7970 N.am    4  ILE4       -0.1942
     40  CA       156.8970   51.7610   40.0820 C.3     4  ILE4        0.1977
     41  C        155.9890   51.2010   38.9910 C.2     4  ILE4        0.3842
     42  O        154.7700   51.0040   39.2700 O.co2   4  ILE4       -0.2437
     43  CB       157.3410   50.6700   41.0640 C.3     4  ILE4        0.0311
     44  CG1      156.1440   49.9920   41.7170 C.3     4  ILE4        0.0023
     45  CG2      158.2020   51.3160   42.1610 C.3     4  ILE4        0.0023
     46  CD1      156.5990   48.7260   42.5520 C.3     4  ILE4        0.0001
     47  OXT      156.5040   50.9850   37.8640 O.co2   4  ILE4       -0.2437
@<TRIPOS>BOND
     1    14    16    1
     2    14    12    1
     3    16    15    2
     4     6     5    1
     5    12    11    1
     6    12    13    2
     7    15    13    1
     8    47    41   ar
     9     5     2    1
    10    11     8    1
    11    29    26    1
    12    41    42   ar
    13    41    40    1
    14     7     8    1
    15     7     3   am
    16     8     9    1
    17    33    32    2
    18     2     3    1
    19     2     1    1
    20    20    19    2
    21     3     4    2
    22    26    25    1
    23    26    27    1
    24    35    36    1
    25    35    34    1
    26    40    39    1
    27    40    43    1
    28     9    10    2
    29     9    17   am
    30    37    36   ar
    31    36    38   ar
    32    30    27   am
    33    30    31    1
    34    32    39   am
    35    32    31    1
    36    19    25   am
    37    19    18    1
    38    27    28    2
    39    17    18    1
    40    43    44    1
    41    43    45    1
    42    31    34    1
    43    18    21    1
    44    44    46    1
    45    21    22    1
    46    22    23    1
    47    23    24    1
