@<TRIPOS>MOLECULE
3e0n_ARM_B_1.pdb
 12 11 0 0 0
SMALL
GASTEIGER

@<TRIPOS>ATOM
      1  N         24.4440    2.8190   23.8790 N.3   275  ARM275     -0.1302
      2  CA        25.3350    1.8940   24.5700 C.3   275  ARM275      0.1222
      3  CB        26.3580    1.4970   23.5060 C.3   275  ARM275      0.0253
      4  CG        25.7240    0.5260   22.4940 C.3   275  ARM275      0.0485
      5  CD        26.6780    0.3270   21.3110 C.3   275  ARM275      0.2205
      6  NE        26.0620   -0.5990   20.3460 N.pl3 275  ARM275     -0.0865
      7  CZ        26.5850   -0.8730   19.1400 C.cat 275  ARM275      0.5346
      8  NH1       27.5570   -0.1920   18.6200 N.pl3 275  ARM275      0.1354
      9  NH2       26.0230   -1.8910   18.4710 N.pl3 275  ARM275      0.1354
     10  C         26.0400    2.3620   25.8130 C.3   275  ARM275      0.1695
     11  O         26.6590    1.5510   26.5240 O.3   275  ARM275     -0.2216
     12  CM        25.1750    3.1590   26.7860 C.3   275  ARM275      0.0371
@<TRIPOS>BOND
     1     9     7    1
     2     8     7    1
     3     7     6    2
     4     6     5    1
     5     5     4    1
     6     4     3    1
     7     3     2    1
     8     1     2    1
     9     2    10    1
    10    10    11    1
    11    10    12    1
