@<TRIPOS>MOLECULE
3e0n_DPN_B_1.pdb
 11 11 0 0 0
SMALL
GASTEIGER

@<TRIPOS>ATOM
      1  N         20.6960   -0.0080   20.4560 N.3   273  DPN273     -0.1241
      2  CA        20.2960    1.3150   20.9650 C.3   273  DPN273      0.1605
      3  C         21.4990    2.0180   21.5600 C.2   273  DPN273      0.2264
      4  O         22.6220    1.8110   21.1150 O.2   273  DPN273     -0.2867
      5  CB        19.8570    2.2010   19.8340 C.3   273  DPN273      0.0534
      6  CG        18.6870    1.6830   19.0660 C.ar  273  DPN273     -0.0203
      7  CD1       18.8660    1.0400   17.8290 C.ar  273  DPN273     -0.0042
      8  CD2       17.3980    1.8020   19.5920 C.ar  273  DPN273     -0.0042
      9  CE1       17.7430    0.5760   17.0900 C.ar  273  DPN273     -0.0003
     10  CE2       16.3070    1.3070   18.8700 C.ar  273  DPN273     -0.0003
     11  CZ        16.4870    0.7150   17.6450 C.ar  273  DPN273     -0.0000
@<TRIPOS>BOND
     1     9    11   ar
     2     9     7   ar
     3    11    10   ar
     4     7     6   ar
     5    10     8   ar
     6     6     8   ar
     7     6     5    1
     8     5     2    1
     9     1     2    1
    10     2     3    1
    11     4     3    2
