@<TRIPOS>MOLECULE
3e0n_PHE_B_1.pdb
 11 11 0 0 0
SMALL
GASTEIGER

@<TRIPOS>ATOM
      1  N         21.2530    2.9030   22.5200 N.3   274  PHE274     -0.1241
      2  CA        22.3330    3.6660   23.1580 C.3   274  PHE274      0.1605
      3  C         23.1480    2.8270   24.1010 C.2   274  PHE274      0.2264
      4  O         22.6100    2.2000   25.0120 O.2   274  PHE274     -0.2867
      5  CB        21.7220    4.9380   23.7790 C.3   274  PHE274      0.0534
      6  CG        21.2260    5.8360   22.7310 C.ar  274  PHE274     -0.0203
      7  CD1       22.0920    6.7290   22.1020 C.ar  274  PHE274     -0.0042
      8  CD2       19.9240    5.7060   22.2640 C.ar  274  PHE274     -0.0042
      9  CE1       21.6370    7.5160   21.0470 C.ar  274  PHE274     -0.0003
     10  CE2       19.4680    6.5040   21.1950 C.ar  274  PHE274     -0.0003
     11  CZ        20.3380    7.3730   20.5790 C.ar  274  PHE274     -0.0000
@<TRIPOS>BOND
     1    11     9   ar
     2    11    10   ar
     3     9     7   ar
     4    10     8   ar
     5     7     6   ar
     6     8     6   ar
     7     1     2    1
     8     6     5    1
     9     2     5    1
    10     2     3    1
    11     3     4    2
