@<TRIPOS>MOLECULE
3e0q_JFD_A_1.pdb
 10 10 0 0 0
SMALL
GASTEIGER

@<TRIPOS>ATOM
      1 BR         18.7720    2.4490   28.8170 Br    400  JFD400     -0.0531
      2  C5        17.0920    2.4990   29.7970 C.3   400  JFD400      0.2453
      3  C4        16.4420    3.8340   30.0990 C.1   400  JFD400      0.2116
      4  O8        16.9690    4.9840   29.7310 O.2   400  JFD400     -0.2120
      5  N3        15.2500    3.9180   30.8390 N.2   400  JFD400     -0.2357
      6  C2        14.5520    2.6820   31.2870 C.1   400  JFD400      0.3663
      7  O9        13.3930    2.8480   31.9670 O.2   400  JFD400     -0.1745
      8  N1        15.1170    1.3350   31.0160 N.2   400  JFD400     -0.2920
      9  C6        16.3780    1.2450   30.2750 C.2   400  JFD400      0.2388
     10  N7        16.8960   -0.0540   30.0690 N.pl3 400  JFD400     -0.0948
@<TRIPOS>BOND
     1     1     2    1
     2     4     3    2
     3     2     3    1
     4     2     9    1
     5    10     9    1
     6     3     5    2
     7     9     8    2
     8     5     6    2
     9     8     6    2
    10     6     7    2
