@<TRIPOS>MOLECULE
3e10_FMN_A_1.pdb
 31 33 0 0 0
SMALL
GASTEIGER

@<TRIPOS>ATOM
      1  N1        38.2540   25.8170   67.3100 N.2   501  FMN501     -0.2887
      2  C2        38.8110   26.9730   66.8210 C.1   501  FMN501      0.3669
      3  O2        40.0370   27.1110   66.7960 O.2   501  FMN501     -0.1744
      4  N3        38.0350   27.9670   66.2780 N.2   501  FMN501     -0.2300
      5  C4        36.6550   27.9190   66.3060 C.1   501  FMN501      0.2513
      6  O4        35.9950   28.8280   65.7720 O.2   501  FMN501     -0.2057
      7  C4A       36.0690   26.7320   66.7870 C.2   501  FMN501      0.2706
      8  N5        34.7080   26.5800   66.7810 N.2   501  FMN501     -0.3841
      9  C5A       34.1270   25.4160   67.2270 C.2   501  FMN501      0.1452
     10  C6        32.7430   25.2640   67.1980 C.2   501  FMN501      0.0252
     11  C7        32.1240   24.1080   67.6180 C.2   501  FMN501     -0.0375
     12  C7M       30.6150   23.9980   67.5470 C.3   501  FMN501      0.0268
     13  C8        32.9060   23.0500   68.0780 C.3   501  FMN501      0.0417
     14  C8M       32.2510   21.7160   68.3000 C.3   501  FMN501      0.0091
     15  C9        34.3000   23.1880   68.1100 C.2   501  FMN501     -0.0049
     16  C9A       34.9240   24.3600   67.6900 C.2   501  FMN501      0.0795
     17  N10       36.3080   24.5300   67.7670 N.pl3 501  FMN501     -0.2545
     18  C10       36.8750   25.6920   67.2810 C.2   501  FMN501      0.2449
     19  C1'       37.1910   23.4260   68.2930 C.3   501  FMN501      0.1336
     20  C2'       37.1380   23.3930   69.8260 C.3   501  FMN501      0.2048
     21  O2'       37.8740   24.4660   70.3970 O.3   501  FMN501     -0.2185
     22  C3'       37.6450   22.0460   70.3170 C.3   501  FMN501      0.2165
     23  O3'       36.7360   21.0340   69.8760 O.3   501  FMN501     -0.2175
     24  C4'       37.8210   21.9740   71.8620 C.3   501  FMN501      0.2147
     25  O4'       38.8150   22.8490   72.3240 O.3   501  FMN501     -0.2176
     26  C5'       38.1300   20.5560   72.3170 C.3   501  FMN501      0.1892
     27  O5'       39.3800   20.1130   71.8110 O.3   501  FMN501     -0.2674
     28  P         39.4030   18.7940   70.8950 P.3   501  FMN501      0.5327
     29  O1P       38.6550   19.1070   69.6090 O.2   501  FMN501     -0.2224
     30  O2P       40.8750   18.5280   70.6530 O.3   501  FMN501     -0.1145
     31  O3P       38.7480   17.6530   71.6730 O.3   501  FMN501     -0.1145
@<TRIPOS>BOND
     1     6     5    2
     2     4     5    2
     3     4     2    2
     4     5     7    1
     5     8     7    2
     6     8     9    2
     7     7    18    1
     8     3     2    2
     9     2     1    2
    10    10     9    1
    11    10    11    2
    12     9    16    1
    13    18     1    2
    14    18    17    1
    15    12    11    1
    16    11    13    1
    17    16    17    1
    18    16    15    2
    19    17    19    1
    20    13    15    1
    21    13    14    1
    22    19    20    1
    23    29    28    2
    24    20    22    1
    25    20    21    1
    26    23    22    1
    27    22    24    1
    28    30    28    1
    29    28    31    1
    30    28    27    1
    31    27    26    1
    32    24    26    1
    33    24    25    1
