@<TRIPOS>MOLECULE
3e12_KD0_A_1.pdb
 20 19 0 0 0
SMALL
GASTEIGER

@<TRIPOS>ATOM
      1  O4P       39.7270   55.7430   13.7460 O.2   268  KD0268     -0.2224
      2  P         39.6260   55.9760   15.3180 P.3   268  KD0268      0.5327
      3  O2P       39.1850   57.4810   15.6280 O.3   268  KD0268     -0.1145
      4  O3P       40.9090   55.6160   15.9830 O.3   268  KD0268     -0.1145
      5  O1P       38.4920   55.0150   15.7580 O.3   268  KD0268     -0.2674
      6  C8        37.8650   55.1850   16.9500 C.3   268  KD0268      0.1892
      7  C7        37.4430   53.8060   17.4370 C.3   268  KD0268      0.2147
      8  O7        38.5460   53.2410   18.1550 O.3   268  KD0268     -0.2176
      9  C6        36.2470   53.9850   18.3460 C.3   268  KD0268      0.2173
     10  O6        35.1470   54.5220   17.5600 O.3   268  KD0268     -0.2175
     11  C5        35.8220   52.6600   18.9970 C.3   268  KD0268      0.2153
     12  O5        35.5660   51.6450   18.0140 O.3   268  KD0268     -0.2176
     13  C4        34.5270   52.8820   19.7500 C.3   268  KD0268      0.1927
     14  O4        34.6880   53.9870   20.6180 O.3   268  KD0268     -0.2198
     15  C3        34.2040   51.6600   20.6120 C.3   268  KD0268      0.1118
     16  C1        32.7440   51.7120   21.0630 C.2   268  KD0268      0.2546
     17  O3        31.8340   51.4820   20.2610 O.2   268  KD0268     -0.2842
     18  C2        32.4040   52.0100   22.5220 C.2   268  KD0268      0.4219
     19  O1        31.1740   51.9720   22.8410 O.co2 268  KD0268     -0.2373
     20  O2        33.3810   52.2120   23.3110 O.co2 268  KD0268     -0.2373
@<TRIPOS>BOND
     1     1     2    2
     2     2     3    1
     3     2     5    1
     4     2     4    1
     5     5     6    1
     6     6     7    1
     7     7     8    1
     8     7     9    1
     9    10     9    1
    10    12    11    1
    11     9    11    1
    12    11    13    1
    13    13    15    1
    14    13    14    1
    15    17    16    2
    16    15    16    1
    17    16    18    1
    18    18    19   ar
    19    18    20   ar
