@<TRIPOS>MOLECULE
3e16_B4C_B_1.pdb
 49 52 0 0 0
SMALL
GASTEIGER

@<TRIPOS>ATOM
      1  C10       21.1460   38.6110   -2.5510 C.ar    1  B4C1       -0.0002
      2  C12       22.7500   40.3700   -2.1990 C.ar    1  B4C1       -0.0002
      3  C21       20.3230   36.4090    1.7870 C.ar    1  B4C1       -0.0000
      4  C28       11.4280   34.4250    1.4420 C.3     1  B4C1        0.0206
      5  C27       12.0970   35.3460    2.4560 C.3     1  B4C1        0.0034
      6  C26       12.4650   34.5550    3.7070 C.3     1  B4C1        0.0249
      7  C25       13.0070   35.4730    4.8130 C.3     1  B4C1        0.1360
      8  C24       14.6330   37.2650    4.5770 C.2     1  B4C1        0.2613
      9  C23       19.3790   36.2420    4.0170 C.ar    1  B4C1       -0.0043
     10  C13       21.9050   40.9490   -1.2570 C.ar    1  B4C1       -0.0007
     11  C14       15.5230   39.2240    2.4320 C.2     1  B4C1        0.2617
     12  C19       19.2840   38.3270    2.8120 C.ar    1  B4C1       -0.0043
     13  C18       18.9900   37.5800    3.9550 C.ar    1  B4C1       -0.0221
     14  C17       18.2990   38.2150    5.1270 C.3     1  B4C1        0.0286
     15  C16       16.9670   37.5440    5.4180 C.3     1  B4C1        0.0358
     16  C15       16.0480   37.6140    4.1640 C.3     1  B4C1        0.1731
     17  C8        20.6740   40.3660   -0.9910 C.ar    1  B4C1        0.0213
     18  C7        19.8280   40.9440   -0.0850 C.3     1  B4C1        0.2368
     19  C5        15.6300   40.6660    1.9460 C.3     1  B4C1        0.1761
     20  C4        14.2730   41.2160    1.5320 C.3     1  B4C1        0.0313
     21  C3        13.2680   41.2850    2.6770 C.3     1  B4C1        0.0038
     22  C30       13.1110   34.6350    6.1360 C.3     1  B4C1        0.2599
     23  C31       13.6500   35.5930    7.1640 C.2     1  B4C1        0.2902
     24  C2        12.3440   42.4830    2.5340 C.3     1  B4C1        0.0206
     25  C9        20.2960   39.1940   -1.6290 C.ar    1  B4C1       -0.0007
     26  C11       22.3760   39.1910   -2.8470 C.ar    1  B4C1       -0.0000
     27  O2        18.4170   40.8500   -0.3620 O.3     1  B4C1       -0.4285
     28  C6        17.7350   40.9830    0.7940 C.2     1  B4C1        0.4218
     29  O1        18.2700   41.4600    1.7920 O.2     1  B4C1       -0.2245
     30  N2        16.4780   40.5890    0.7670 N.am    1  B4C1       -0.1611
     31  C1        11.2710   42.4190    3.6100 C.3     1  B4C1        0.1093
     32  N1        11.8800   42.5570    4.9500 N.3     1  B4C1       -0.1314
     33  O3        14.9860   38.3570    1.7460 O.2     1  B4C1       -0.2715
     34  N3        16.0660   38.9930    3.5940 N.am    1  B4C1       -0.1963
     35  C20       19.9400   37.7460    1.7310 C.ar    1  B4C1       -0.0003
     36  C22       20.0250   35.6650    2.9250 C.ar    1  B4C1       -0.0003
     37  O4        13.8390   38.1140    4.9890 O.2     1  B4C1       -0.2715
     38  N4        14.3460   35.9820    4.4550 N.am    1  B4C1       -0.2026
     39  C29       11.2480   35.0970    0.0800 C.3     1  B4C1        0.1093
     40  O5        11.9770   34.2640    6.5200 O.3     1  B4C1       -0.2099
     41  O6        12.8350   36.5350    7.6850 O.2     1  B4C1       -0.4264
     42  C37       13.6090   37.2550    8.5360 C.2     1  B4C1        0.1734
     43  C36       13.2940   38.3330    9.3650 C.2     1  B4C1        0.0188
     44  C35       14.2750   38.9200   10.1530 C.3     1  B4C1        0.0554
     45  C34       15.5650   38.4090   10.1050 C.2     1  B4C1       -0.0186
     46  C33       15.8630   37.3320    9.2660 C.2     1  B4C1        0.0311
     47  C32       14.8900   36.7350    8.4770 C.2     1  B4C1        0.1684
     48  N6        14.9020   35.6920    7.6100 N.2     1  B4C1       -0.3659
     49  N5        10.6260   36.4090    0.2140 N.3     1  B4C1       -0.1314
@<TRIPOS>BOND
     1    26     1   ar
     2    26     2   ar
     3     1    25   ar
     4     2    10   ar
     5    25    17   ar
     6    10    17   ar
     7    17    18    1
     8    27    18    1
     9    27    28    1
    10    39    49    1
    11    39     4    1
    12    30    28   am
    13    30    19    1
    14    28    29    2
    15     4     5    1
    16    20    19    1
    17    20    21    1
    18    35     3   ar
    19    35    12   ar
    20    33    11    2
    21     3    36   ar
    22    19    11    1
    23    11    34   am
    24     5     6    1
    25    24    21    1
    26    24    31    1
    27    12    13   ar
    28    36     9   ar
    29    34    16    1
    30    31    32    1
    31     6     7    1
    32    13     9   ar
    33    13    14    1
    34    16     8    1
    35    16    15    1
    36    38     8   am
    37    38     7    1
    38     8    37    2
    39     7    22    1
    40    14    15    1
    41    22    40    1
    42    22    23    1
    43    23    48    2
    44    23    41    1
    45    48    47    2
    46    41    42    1
    47    47    42    1
    48    47    46    1
    49    42    43    2
    50    46    45    2
    51    43    44    1
    52    45    44    1
