@<TRIPOS>MOLECULE
3e18_NAD_A_1.pdb
 44 48 0 0 0
SMALL
GASTEIGER

@<TRIPOS>ATOM
      1  PA        20.8790   60.6110   19.4460 P.3   360  NAD360      0.2189
      2  O1A       19.8580   60.6780   18.3760 O.2   360  NAD360     -0.5170
      3  O2A       20.6150   61.5030   20.5890 O.3   360  NAD360     -0.4371
      4  O5B       21.0530   59.0940   19.9430 O.3   360  NAD360     -0.3112
      5  C5B       21.9890   58.6900   20.9170 C.3   360  NAD360      0.1813
      6  C4B       21.4220   57.4480   21.5970 C.3   360  NAD360      0.1821
      7  O4B       22.3580   56.8970   22.5050 O.3   360  NAD360     -0.3135
      8  C3B       20.1670   57.7860   22.3970 C.3   360  NAD360      0.2184
      9  O3B       19.1270   56.9220   22.0040 O.3   360  NAD360     -0.2174
     10  C2B       20.5710   57.5340   23.8350 C.3   360  NAD360      0.2570
     11  O2B       19.5070   57.0560   24.6260 O.3   360  NAD360     -0.2130
     12  C1B       21.6850   56.5140   23.6860 C.3   360  NAD360      0.3186
     13  N9A       22.6280   56.5040   24.8150 N.pl3 360  NAD360     -0.1439
     14  C8A       23.0750   57.5770   25.5480 C.3   360  NAD360      0.3377
     15  N7A       23.9440   57.1260   26.4840 N.2   360  NAD360     -0.2095
     16  C5A       24.0490   55.7820   26.3560 C.2   360  NAD360      0.2526
     17  C6A       24.7800   54.8270   27.0540 C.2   360  NAD360      0.4393
     18  N6A       25.6950   55.2210   27.9380 N.pl3 360  NAD360      0.2180
     19  N1A       24.6800   53.4930   26.6880 N.2   360  NAD360      0.0021
     20  C2A       23.8600   53.1070   25.6460 C.3   360  NAD360      0.5254
     21  N3A       23.1360   54.0610   24.9610 N.2   360  NAD360     -0.0055
     22  C4A       23.2270   55.3760   25.3110 C.2   360  NAD360      0.3518
     23  O3        22.3280   60.9580   18.8090 O.3   360  NAD360     -0.2703
     24  PN        22.7210   60.7640   17.2760 P.3   360  NAD360      0.2189
     25  O1N       22.4040   62.0040   16.5180 O.2   360  NAD360     -0.5170
     26  O2N       22.2650   59.4460   16.7790 O.3   360  NAD360     -0.4371
     27  O5D       24.3530   60.7280   17.3760 O.3   360  NAD360     -0.3112
     28  C5D       25.0550   59.7530   18.1160 C.3   360  NAD360      0.1813
     29  C4D       26.5240   59.6980   17.6400 C.3   360  NAD360      0.1799
     30  O4D       26.5680   59.5710   16.2300 O.3   360  NAD360     -0.3327
     31  C3D       27.3070   60.9590   17.9610 C.3   360  NAD360      0.2158
     32  O3D       28.6610   60.6160   18.2180 O.3   360  NAD360     -0.2175
     33  C2D       27.2710   61.7760   16.6860 C.3   360  NAD360      0.2309
     34  O2D       28.4420   62.5510   16.5690 O.3   360  NAD360     -0.2158
     35  C1D       27.2270   60.6830   15.6270 C.3   360  NAD360      0.2263
     36  N1N       26.5970   61.0610   14.3340 N.pl3 360  NAD360     -0.2787
     37  C2N       27.3500   60.8770   13.2090 C.3   360  NAD360      0.1244
     38  C3N       26.8660   61.1870   11.9430 C.2   360  NAD360      0.0544
     39  C7N       27.6510   60.7450   10.7460 C.2   360  NAD360      0.2818
     40  O7N       27.2880   61.2240    9.4790 O.2   360  NAD360     -0.2670
     41  N7N       28.6730   59.8960   10.8890 N.am  360  NAD360     -0.0839
     42  C4N       25.5560   61.6700   11.8120 C.2   360  NAD360      0.0033
     43  C5N       24.7780   61.8430   12.9600 C.2   360  NAD360      0.0157
     44  C6N       25.3070   61.5260   14.2170 C.2   360  NAD360      0.0633
@<TRIPOS>BOND
     1    40    39    2
     2    39    41   am
     3    39    38    1
     4    42    38    2
     5    42    43    1
     6    38    37    1
     7    43    44    2
     8    37    36    1
     9    44    36    1
    10    36    35    1
    11    35    30    1
    12    35    33    1
    13    30    29    1
    14    25    24    2
    15    34    33    1
    16    33    31    1
    17    26    24    1
    18    24    27    1
    19    24    23    1
    20    27    28    1
    21    29    31    1
    22    29    28    1
    23    31    32    1
    24     2     1    2
    25    23     1    1
    26     1     4    1
    27     1     3    1
    28     4     5    1
    29     5     6    1
    30     6     8    1
    31     6     7    1
    32     9     8    1
    33     8    10    1
    34     7    12    1
    35    12    10    1
    36    12    13    1
    37    10    11    1
    38    13    22    1
    39    13    14    1
    40    21    22    2
    41    21    20    1
    42    22    16    1
    43    14    15    1
    44    20    19    1
    45    16    15    2
    46    16    17    1
    47    19    17    2
    48    17    18    1
