@<TRIPOS>MOLECULE
3e1f_GAL_1_1.pdb
 12 12 0 0 0
SMALL
GASTEIGER

@<TRIPOS>ATOM
      1  C1        54.0000   -8.6320   26.4940 C.3   2001  GAL2001     0.3024
      2  C2        53.7190   -7.6610   25.3370 C.3   2001  GAL2001     0.2434
      3  C3        52.4070   -6.9080   25.6360 C.3   2001  GAL2001     0.2199
      4  C4        51.2710   -7.9370   25.7760 C.3   2001  GAL2001     0.2144
      5  C5        51.6510   -8.9020   26.9220 C.3   2001  GAL2001     0.1836
      6  C6        50.5470   -9.9330   27.0740 C.3   2001  GAL2001     0.2142
      7  O1        55.2060   -9.3290   26.2160 O.3   2001  GAL2001    -0.1869
      8  O2        54.7960   -6.7390   25.2300 O.3   2001  GAL2001    -0.2148
      9  O3        52.0960   -5.9970   24.5650 O.3   2001  GAL2001    -0.2174
     10  O4        51.1270   -8.6710   24.5550 O.3   2001  GAL2001    -0.2176
     11  O5        52.9070   -9.5890   26.6290 O.3   2001  GAL2001    -0.3236
     12  O6        49.7420   -9.5650   28.1890 O.3   2001  GAL2001    -0.2176
@<TRIPOS>BOND
     1    10     4    1
     2     9     3    1
     3     8     2    1
     4     2     3    1
     5     2     1    1
     6     3     4    1
     7     4     5    1
     8     7     1    1
     9     1    11    1
    10    11     5    1
    11     5     6    1
    12     6    12    1
