@<TRIPOS>MOLECULE
3e1j_HEM_B_1.pdb
 43 50 0 0 0
SMALL
GASTEIGER

@<TRIPOS>ATOM
      1 FE        -92.5130  -50.6090    0.1290 Fe    200  HEM200      0.0000
      2  CHA      -89.0580  -50.7280    0.1730 C.2   200  HEM200      0.0000
      3  CHB      -92.6020  -53.0000    2.6310 C.2   200  HEM200      0.0000
      4  CHC      -95.9810  -50.6660    0.0100 C.2   200  HEM200      0.0000
      5  CHD      -92.4670  -48.1520   -2.2720 C.2   200  HEM200      0.0000
      6  NA       -91.0710  -51.7340    1.1670 N.2   200  HEM200      0.0000
      7  C1A      -89.7100  -51.4990    1.1180 C.2   200  HEM200      0.0000
      8  C2A      -89.1070  -52.2050    2.2340 C.2   200  HEM200      0.0000
      9  C3A      -90.0880  -52.8290    2.9020 C.2   200  HEM200      0.0000
     10  C4A      -91.3500  -52.5470    2.2480 C.2   200  HEM200      0.0000
     11  CMA      -89.9230  -53.7060    4.1560 C.3   200  HEM200      0.0000
     12  CAA      -87.5980  -52.2380    2.5840 C.3   200  HEM200      0.0000
     13  CBA      -87.1280  -50.8840    3.1060 C.3   200  HEM200      0.0000
     14  CGA      -85.8370  -50.5090    2.4240 C.2   200  HEM200      0.0000
     15  O1A      -84.7540  -50.7820    3.0030 O.co2 200  HEM200      0.0000
     16  O2A      -85.8880  -49.9390    1.3040 O.co2 200  HEM200      0.0000
     17  NB       -94.0400  -51.6790    1.1250 N.ar  200  HEM200      0.0000
     18  C1B      -93.8330  -52.5640    2.1700 C.ar  200  HEM200      0.0000
     19  C2B      -95.1390  -52.9420    2.6780 C.ar  200  HEM200      0.0000
     20  C3B      -96.0700  -52.3020    1.9600 C.ar  200  HEM200      0.0000
     21  C4B      -95.3980  -51.4870    0.9600 C.ar  200  HEM200      0.0000
     22  CMB      -95.4110  -53.9140    3.8480 C.3   200  HEM200      0.0000
     23  CAB      -97.5950  -52.4310    2.1740 C.2   200  HEM200      0.0000
     24  CBB      -98.3900  -51.3640    2.1080 C.2   200  HEM200      0.0000
     25  NC       -93.9770  -49.5980   -0.9480 N.2   200  HEM200      0.0000
     26  C1C      -95.3440  -49.7600   -0.8210 C.2   200  HEM200      0.0000
     27  C2C      -95.9700  -48.8070   -1.7170 C.2   200  HEM200      0.0000
     28  C3C      -95.0050  -48.1190   -2.3420 C.2   200  HEM200      0.0000
     29  C4C      -93.7200  -48.6010   -1.8740 C.2   200  HEM200      0.0000
     30  CMC      -97.4910  -48.6210   -1.9140 C.3   200  HEM200      0.0000
     31  CAC      -95.2120  -46.9960   -3.3790 C.2   200  HEM200      0.0000
     32  CBC      -95.4260  -47.2840   -4.6610 C.2   200  HEM200      0.0000
     33  ND       -90.9670  -49.5560   -0.8840 N.ar  200  HEM200      0.0000
     34  C1D      -91.2200  -48.6370   -1.8980 C.ar  200  HEM200      0.0000
     35  C2D      -89.9480  -48.2800   -2.4920 C.ar  200  HEM200      0.0000
     36  C3D      -88.8810  -49.0860   -1.7310 C.ar  200  HEM200      0.0000
     37  C4D      -89.6120  -49.8520   -0.7440 C.ar  200  HEM200      0.0000
     38  CMD      -89.7120  -47.2940   -3.6510 C.3   200  HEM200      0.0000
     39  CAD      -87.3520  -49.0770   -1.9600 C.3   200  HEM200      0.0000
     40  CBD      -86.9150  -50.3260   -2.7210 C.3   200  HEM200      0.0000
     41  CGD      -85.4220  -50.5040   -2.6040 C.2   200  HEM200      0.0000
     42  O1D      -84.9830  -51.4890   -1.9560 O.co2 200  HEM200      0.0000
     43  O2D      -84.6660  -49.6660   -3.1600 O.co2 200  HEM200      0.0000
@<TRIPOS>BOND
     1    32    31    2
     2    38    35    1
     3    31    28    1
     4    43    41   ar
     5    40    41    1
     6    40    39    1
     7    41    42   ar
     8    35    34   ar
     9    35    36   ar
    10    28    29    1
    11    28    27    2
    12     5    34    2
    13     5    29    1
    14    39    36    1
    15    30    27    1
    16    34    33   ar
    17    29    25    2
    18    36    37   ar
    19    27    26    1
    20    25    26    1
    21    25     1    1
    22    33    37   ar
    23    33     1    1
    24    26     4    2
    25    37     2    2
    26     4    21    1
    27     1    17    1
    28     1     6    1
    29     2     7    1
    30    21    17   ar
    31    21    20   ar
    32     7     6    2
    33     7     8    1
    34    17    18   ar
    35     6    10    1
    36    16    14   ar
    37    20    23    1
    38    20    19   ar
    39    24    23    2
    40    18     3    1
    41    18    19   ar
    42     8    12    1
    43     8     9    2
    44    10     3    2
    45    10     9    1
    46    14    15   ar
    47    14    13    1
    48    12    13    1
    49    19    22    1
    50     9    11    1
