@<TRIPOS>MOLECULE
3e1l_HEM_A_1.pdb
 43 50 0 0 0
SMALL
GASTEIGER

@<TRIPOS>ATOM
      1 FE        -92.9820  -50.5760    0.0770 Fe    200  HEM200      0.0000
      2  CHA      -89.5150  -50.5870    0.0440 C.2   200  HEM200      0.0000
      3  CHB      -92.9060  -52.8900    2.6870 C.2   200  HEM200      0.0000
      4  CHC      -96.4040  -50.6820    0.1150 C.2   200  HEM200      0.0000
      5  CHD      -93.0560  -48.1980   -2.4100 C.2   200  HEM200      0.0000
      6  NA       -91.4650  -51.6120    1.1490 N.2   200  HEM200      0.0000
      7  C1A      -90.1120  -51.3660    1.0220 C.2   200  HEM200      0.0000
      8  C2A      -89.4420  -52.0690    2.1020 C.2   200  HEM200      0.0000
      9  C3A      -90.3740  -52.7070    2.8300 C.2   200  HEM200      0.0000
     10  C4A      -91.6750  -52.4310    2.2440 C.2   200  HEM200      0.0000
     11  CMA      -90.1300  -53.5870    4.0790 C.3   200  HEM200      0.0000
     12  CAA      -87.9120  -52.0780    2.3420 C.3   200  HEM200      0.0000
     13  CBA      -87.4940  -51.0290    3.3660 C.3   200  HEM200      0.0000
     14  CGA      -86.0180  -50.7480    3.2270 C.2   200  HEM200      0.0000
     15  O1A      -85.1960  -51.5990    3.6560 O.co2 200  HEM200      0.0000
     16  O2A      -85.6600  -49.6680    2.6890 O.co2 200  HEM200      0.0000
     17  NB       -94.4150  -51.6380    1.1930 N.ar  200  HEM200      0.0000
     18  C1B      -94.1620  -52.4860    2.2580 C.ar  200  HEM200      0.0000
     19  C2B      -95.4470  -52.8540    2.8250 C.ar  200  HEM200      0.0000
     20  C3B      -96.4090  -52.2480    2.1180 C.ar  200  HEM200      0.0000
     21  C4B      -95.7780  -51.4640    1.0700 C.ar  200  HEM200      0.0000
     22  CMB      -95.6710  -53.7870    4.0360 C.3   200  HEM200      0.0000
     23  CAB      -97.9270  -52.3780    2.3880 C.2   200  HEM200      0.0000
     24  CBB      -98.8030  -51.5510    1.8150 C.2   200  HEM200      0.0000
     25  NC       -94.4750  -49.6060   -0.9670 N.2   200  HEM200      0.0000
     26  C1C      -95.8260  -49.8080   -0.7850 C.2   200  HEM200      0.0000
     27  C2C      -96.5190  -48.9350   -1.7110 C.2   200  HEM200      0.0000
     28  C3C      -95.6040  -48.2500   -2.4090 C.2   200  HEM200      0.0000
     29  C4C      -94.2840  -48.6570   -1.9560 C.2   200  HEM200      0.0000
     30  CMC      -98.0520  -48.8240   -1.8610 C.3   200  HEM200      0.0000
     31  CAC      -95.9080  -47.2020   -3.5020 C.2   200  HEM200      0.0000
     32  CBC      -95.3610  -47.3070   -4.7130 C.2   200  HEM200      0.0000
     33  ND       -91.4850  -49.5010   -1.0040 N.ar  200  HEM200      0.0000
     34  C1D      -91.7880  -48.6470   -2.0630 C.ar  200  HEM200      0.0000
     35  C2D      -90.5460  -48.3150   -2.7350 C.ar  200  HEM200      0.0000
     36  C3D      -89.4440  -49.0650   -1.9660 C.ar  200  HEM200      0.0000
     37  C4D      -90.1220  -49.7760   -0.9030 C.ar  200  HEM200      0.0000
     38  CMD      -90.3630  -47.4000   -3.9680 C.3   200  HEM200      0.0000
     39  CAD      -87.9250  -49.0600   -2.2530 C.3   200  HEM200      0.0000
     40  CBD      -87.5740  -50.0000   -3.3990 C.3   200  HEM200      0.0000
     41  CGD      -86.0750  -50.1420   -3.4680 C.2   200  HEM200      0.0000
     42  O1D      -85.5270  -51.0650   -2.8130 O.co2 200  HEM200      0.0000
     43  O2D      -85.4260  -49.3290   -4.1750 O.co2 200  HEM200      0.0000
@<TRIPOS>BOND
     1    32    31    2
     2    43    41   ar
     3    38    35    1
     4    31    28    1
     5    41    40    1
     6    41    42   ar
     7    40    39    1
     8    35    34   ar
     9    35    36   ar
    10     5    34    2
    11     5    29    1
    12    28    29    1
    13    28    27    2
    14    39    36    1
    15    34    33   ar
    16    36    37   ar
    17    29    25    2
    18    30    27    1
    19    27    26    1
    20    33    37   ar
    21    33     1    1
    22    25    26    1
    23    25     1    1
    24    37     2    2
    25    26     4    2
    26     2     7    1
    27     1     6    1
    28     1    17    1
    29     4    21    1
    30     7     6    2
    31     7     8    1
    32    21    17   ar
    33    21    20   ar
    34     6    10    1
    35    17    18   ar
    36    24    23    2
    37     8    12    1
    38     8     9    2
    39    20    23    1
    40    20    19   ar
    41    10     3    2
    42    10     9    1
    43    18     3    1
    44    18    19   ar
    45    12    13    1
    46    16    14   ar
    47    19    22    1
    48     9    11    1
    49    14    13    1
    50    14    15   ar
