@<TRIPOS>MOLECULE
3e1m_HEM_B_1.pdb
 43 50 0 0 0
SMALL
GASTEIGER

@<TRIPOS>ATOM
      1 FE        -92.2900  -50.5430    0.1470 Fe    200  HEM200      0.0000
      2  CHA      -88.8520  -50.6230    0.2360 C.2   200  HEM200      0.0000
      3  CHB      -92.3990  -52.8270    2.7470 C.2   200  HEM200      0.0000
      4  CHC      -95.7530  -50.6250   -0.0120 C.2   200  HEM200      0.0000
      5  CHD      -92.2520  -48.1540   -2.3280 C.2   200  HEM200      0.0000
      6  NA       -90.8620  -51.6190    1.2460 N.2   200  HEM200      0.0000
      7  C1A      -89.5050  -51.3540    1.2150 C.2   200  HEM200      0.0000
      8  C2A      -88.9140  -51.9770    2.3910 C.2   200  HEM200      0.0000
      9  C3A      -89.8940  -52.5860    3.0770 C.2   200  HEM200      0.0000
     10  C4A      -91.1460  -52.3710    2.3720 C.2   200  HEM200      0.0000
     11  CMA      -89.7310  -53.3800    4.3960 C.3   200  HEM200      0.0000
     12  CAA      -87.4150  -51.9650    2.7860 C.3   200  HEM200      0.0000
     13  CBA      -86.8960  -50.5540    3.0430 C.3   200  HEM200      0.0000
     14  CGA      -85.5620  -50.3860    2.3600 C.2   200  HEM200      0.0000
     15  O1A      -84.5340  -50.8320    2.9320 O.co2 200  HEM200      0.0000
     16  O2A      -85.5250  -49.8070    1.2440 O.co2 200  HEM200      0.0000
     17  NB       -93.8170  -51.5750    1.1660 N.ar  200  HEM200      0.0000
     18  C1B      -93.6250  -52.4190    2.2470 C.ar  200  HEM200      0.0000
     19  C2B      -94.9390  -52.7830    2.7460 C.ar  200  HEM200      0.0000
     20  C3B      -95.8610  -52.1780    1.9890 C.ar  200  HEM200      0.0000
     21  C4B      -95.1740  -51.4010    0.9730 C.ar  200  HEM200      0.0000
     22  CMB      -95.2340  -53.7070    3.9470 C.3   200  HEM200      0.0000
     23  CAB      -97.3900  -52.3030    2.1750 C.2   200  HEM200      0.0000
     24  CBB      -98.1890  -51.2490    2.0070 C.2   200  HEM200      0.0000
     25  NC       -93.7520  -49.5770   -0.9850 N.2   200  HEM200      0.0000
     26  C1C      -95.1190  -49.7290   -0.8490 C.2   200  HEM200      0.0000
     27  C2C      -95.7540  -48.7840   -1.7450 C.2   200  HEM200      0.0000
     28  C3C      -94.7900  -48.1070   -2.3820 C.2   200  HEM200      0.0000
     29  C4C      -93.5020  -48.5890   -1.9190 C.2   200  HEM200      0.0000
     30  CMC      -97.2800  -48.6050   -1.9190 C.3   200  HEM200      0.0000
     31  CAC      -94.9970  -46.9930   -3.4250 C.2   200  HEM200      0.0000
     32  CBC      -95.5280  -47.2410   -4.6210 C.2   200  HEM200      0.0000
     33  ND       -90.7570  -49.4940   -0.8730 N.ar  200  HEM200      0.0000
     34  C1D      -91.0080  -48.6270   -1.9360 C.ar  200  HEM200      0.0000
     35  C2D      -89.7390  -48.3040   -2.5570 C.ar  200  HEM200      0.0000
     36  C3D      -88.6740  -49.0790   -1.7590 C.ar  200  HEM200      0.0000
     37  C4D      -89.4030  -49.7900   -0.7260 C.ar  200  HEM200      0.0000
     38  CMD      -89.5090  -47.3800   -3.7750 C.3   200  HEM200      0.0000
     39  CAD      -87.1450  -49.0720   -2.0050 C.3   200  HEM200      0.0000
     40  CBD      -86.6310  -50.4000   -2.5530 C.3   200  HEM200      0.0000
     41  CGD      -85.1280  -50.4480   -2.4240 C.2   200  HEM200      0.0000
     42  O1D      -84.6110  -51.4130   -1.8050 O.co2 200  HEM200      0.0000
     43  O2D      -84.4400  -49.5280   -2.9370 O.co2 200  HEM200      0.0000
@<TRIPOS>BOND
     1    32    31    2
     2    38    35    1
     3    31    28    1
     4    43    41   ar
     5    35    34   ar
     6    35    36   ar
     7    40    41    1
     8    40    39    1
     9    41    42   ar
    10    28    29    1
    11    28    27    2
    12     5    34    2
    13     5    29    1
    14    39    36    1
    15    34    33   ar
    16    29    25    2
    17    30    27    1
    18    36    37   ar
    19    27    26    1
    20    25    26    1
    21    25     1    1
    22    33    37   ar
    23    33     1    1
    24    26     4    2
    25    37     2    2
    26     4    21    1
    27     1    17    1
    28     1     6    1
    29     2     7    1
    30    21    17   ar
    31    21    20   ar
    32    17    18   ar
    33     7     6    2
    34     7     8    1
    35    16    14   ar
    36     6    10    1
    37    20    23    1
    38    20    19   ar
    39    24    23    2
    40    18    19   ar
    41    18     3    1
    42    14    15   ar
    43    14    13    1
    44    10     3    2
    45    10     9    1
    46     8    12    1
    47     8     9    2
    48    19    22    1
    49    12    13    1
    50     9    11    1
