@<TRIPOS>MOLECULE
3e1n_HEM_A_1.pdb
 43 50 0 0 0
SMALL
GASTEIGER

@<TRIPOS>ATOM
      1 FE        -92.6230  -50.5240    0.0880 Fe    200  HEM200      0.0000
      2  CHA      -89.1360  -50.5360    0.1770 C.2   200  HEM200      0.0000
      3  CHB      -92.6060  -52.8630    2.6840 C.2   200  HEM200      0.0000
      4  CHC      -96.0500  -50.6090    0.0680 C.2   200  HEM200      0.0000
      5  CHD      -92.6150  -48.1420   -2.3570 C.2   200  HEM200      0.0000
      6  NA       -91.1220  -51.5740    1.2010 N.2   200  HEM200      0.0000
      7  C1A      -89.7640  -51.3230    1.1270 C.2   200  HEM200      0.0000
      8  C2A      -89.1280  -52.0290    2.2270 C.2   200  HEM200      0.0000
      9  C3A      -90.0820  -52.6730    2.9180 C.2   200  HEM200      0.0000
     10  C4A      -91.3620  -52.3970    2.2870 C.2   200  HEM200      0.0000
     11  CMA      -89.8710  -53.5550    4.1720 C.3   200  HEM200      0.0000
     12  CAA      -87.6070  -52.0310    2.5240 C.3   200  HEM200      0.0000
     13  CBA      -87.2450  -51.0090    3.5990 C.3   200  HEM200      0.0000
     14  CGA      -85.7450  -50.9400    3.7460 C.2   200  HEM200      0.0000
     15  O1A      -85.1430  -51.9080    4.2770 O.co2 200  HEM200      0.0000
     16  O2A      -85.1470  -49.9130    3.3320 O.co2 200  HEM200      0.0000
     17  NB       -94.0770  -51.5710    1.1760 N.ar  200  HEM200      0.0000
     18  C1B      -93.8480  -52.4540    2.2200 C.ar  200  HEM200      0.0000
     19  C2B      -95.1460  -52.8660    2.7260 C.ar  200  HEM200      0.0000
     20  C3B      -96.0910  -52.2500    2.0100 C.ar  200  HEM200      0.0000
     21  C4B      -95.4400  -51.4160    1.0120 C.ar  200  HEM200      0.0000
     22  CMB      -95.4050  -53.8430    3.8930 C.3   200  HEM200      0.0000
     23  CAB      -97.6110  -52.4190    2.2280 C.2   200  HEM200      0.0000
     24  CBB      -98.4610  -51.4440    1.9100 C.2   200  HEM200      0.0000
     25  NC       -94.0830  -49.5460   -0.9550 N.2   200  HEM200      0.0000
     26  C1C      -95.4430  -49.7320   -0.8110 C.2   200  HEM200      0.0000
     27  C2C      -96.1020  -48.8440   -1.7490 C.2   200  HEM200      0.0000
     28  C3C      -95.1600  -48.1670   -2.4150 C.2   200  HEM200      0.0000
     29  C4C      -93.8570  -48.5950   -1.9330 C.2   200  HEM200      0.0000
     30  CMC      -97.6280  -48.7060   -1.9430 C.3   200  HEM200      0.0000
     31  CAC      -95.4170  -47.1110   -3.5090 C.2   200  HEM200      0.0000
     32  CBC      -94.9440  -47.3040   -4.7420 C.2   200  HEM200      0.0000
     33  ND       -91.0840  -49.4510   -0.9160 N.ar  200  HEM200      0.0000
     34  C1D      -91.3570  -48.5880   -1.9730 C.ar  200  HEM200      0.0000
     35  C2D      -90.0960  -48.2350   -2.5980 C.ar  200  HEM200      0.0000
     36  C3D      -89.0130  -48.9850   -1.8040 C.ar  200  HEM200      0.0000
     37  C4D      -89.7220  -49.7160   -0.7750 C.ar  200  HEM200      0.0000
     38  CMD      -89.8830  -47.3030   -3.8130 C.3   200  HEM200      0.0000
     39  CAD      -87.4840  -48.9650   -2.0380 C.3   200  HEM200      0.0000
     40  CBD      -87.0450  -50.1300   -2.9170 C.3   200  HEM200      0.0000
     41  CGD      -85.6890  -49.8250   -3.4970 C.2   200  HEM200      0.0000
     42  O1D      -84.6730  -49.9800   -2.7730 O.co2 200  HEM200      0.0000
     43  O2D      -85.6220  -49.4250   -4.6870 O.co2 200  HEM200      0.0000
@<TRIPOS>BOND
     1    32    31    2
     2    43    41   ar
     3    38    35    1
     4    31    28    1
     5    41    40    1
     6    41    42   ar
     7    40    39    1
     8    35    34   ar
     9    35    36   ar
    10    28    29    1
    11    28    27    2
    12     5    34    2
    13     5    29    1
    14    39    36    1
    15    34    33   ar
    16    30    27    1
    17    29    25    2
    18    36    37   ar
    19    27    26    1
    20    25    26    1
    21    25     1    1
    22    33    37   ar
    23    33     1    1
    24    26     4    2
    25    37     2    2
    26     4    21    1
    27     1    17    1
    28     1     6    1
    29     2     7    1
    30    21    17   ar
    31    21    20   ar
    32     7     6    2
    33     7     8    1
    34    17    18   ar
    35     6    10    1
    36    24    23    2
    37    20    23    1
    38    20    19   ar
    39    18     3    1
    40    18    19   ar
    41     8    12    1
    42     8     9    2
    43    10     3    2
    44    10     9    1
    45    12    13    1
    46    19    22    1
    47     9    11    1
    48    16    14   ar
    49    13    14    1
    50    14    15   ar
