@<TRIPOS>MOLECULE
3e1o_HEM_A_1.pdb
 43 50 0 0 0
SMALL
GASTEIGER

@<TRIPOS>ATOM
      1 FE        -92.4520  -50.5470    0.1200 Fe    200  HEM200      0.0000
      2  CHA      -88.9980  -50.6810    0.1760 C.2   200  HEM200      0.0000
      3  CHB      -92.5480  -52.9190    2.6640 C.2   200  HEM200      0.0000
      4  CHC      -95.9110  -50.6080   -0.0070 C.2   200  HEM200      0.0000
      5  CHD      -92.3940  -48.1160   -2.3040 C.2   200  HEM200      0.0000
      6  NA       -91.0180  -51.6570    1.1940 N.2   200  HEM200      0.0000
      7  C1A      -89.6530  -51.4540    1.1170 C.2   200  HEM200      0.0000
      8  C2A      -89.0430  -52.2010    2.2000 C.2   200  HEM200      0.0000
      9  C3A      -90.0210  -52.8150    2.8760 C.2   200  HEM200      0.0000
     10  C4A      -91.2920  -52.4890    2.2630 C.2   200  HEM200      0.0000
     11  CMA      -89.8370  -53.7250    4.1020 C.3   200  HEM200      0.0000
     12  CAA      -87.5280  -52.2730    2.5110 C.3   200  HEM200      0.0000
     13  CBA      -87.0440  -50.9560    3.1130 C.3   200  HEM200      0.0000
     14  CGA      -85.7670  -50.5370    2.4310 C.2   200  HEM200      0.0000
     15  O1A      -84.6760  -50.7740    3.0080 O.co2 200  HEM200      0.0000
     16  O2A      -85.8390  -49.9660    1.3110 O.co2 200  HEM200      0.0000
     17  NB       -93.9730  -51.6040    1.1370 N.ar  200  HEM200      0.0000
     18  C1B      -93.7770  -52.4880    2.1860 C.ar  200  HEM200      0.0000
     19  C2B      -95.0900  -52.8710    2.6760 C.ar  200  HEM200      0.0000
     20  C3B      -96.0130  -52.2360    1.9420 C.ar  200  HEM200      0.0000
     21  C4B      -95.3300  -51.4200    0.9510 C.ar  200  HEM200      0.0000
     22  CMB      -95.3780  -53.8410    3.8440 C.3   200  HEM200      0.0000
     23  CAB      -97.5410  -52.3580    2.1250 C.2   200  HEM200      0.0000
     24  CBB      -98.3140  -51.2680    2.1140 C.2   200  HEM200      0.0000
     25  NC       -93.9070  -49.5560   -0.9800 N.2   200  HEM200      0.0000
     26  C1C      -95.2740  -49.7020   -0.8370 C.2   200  HEM200      0.0000
     27  C2C      -95.9000  -48.7300   -1.7140 C.2   200  HEM200      0.0000
     28  C3C      -94.9340  -48.0490   -2.3430 C.2   200  HEM200      0.0000
     29  C4C      -93.6480  -48.5530   -1.8980 C.2   200  HEM200      0.0000
     30  CMC      -97.4190  -48.5210   -1.8930 C.3   200  HEM200      0.0000
     31  CAC      -95.1480  -46.9140   -3.3630 C.2   200  HEM200      0.0000
     32  CBC      -95.1830  -47.1820   -4.6660 C.2   200  HEM200      0.0000
     33  ND       -90.9030  -49.5200   -0.9020 N.ar  200  HEM200      0.0000
     34  C1D      -91.1480  -48.5930   -1.9120 C.ar  200  HEM200      0.0000
     35  C2D      -89.8670  -48.2200   -2.4770 C.ar  200  HEM200      0.0000
     36  C3D      -88.8060  -49.0210   -1.7060 C.ar  200  HEM200      0.0000
     37  C4D      -89.5470  -49.8040   -0.7420 C.ar  200  HEM200      0.0000
     38  CMD      -89.6150  -47.2200   -3.6170 C.3   200  HEM200      0.0000
     39  CAD      -87.2730  -48.9980   -1.9110 C.3   200  HEM200      0.0000
     40  CBD      -86.8430  -50.2080   -2.7370 C.3   200  HEM200      0.0000
     41  CGD      -85.3540  -50.4180   -2.6270 C.2   200  HEM200      0.0000
     42  O1D      -84.9320  -51.3810   -1.9370 O.co2 200  HEM200      0.0000
     43  O2D      -84.5850  -49.6280   -3.2310 O.co2 200  HEM200      0.0000
@<TRIPOS>BOND
     1    32    31    2
     2    38    35    1
     3    31    28    1
     4    43    41   ar
     5    40    41    1
     6    40    39    1
     7    41    42   ar
     8    35    34   ar
     9    35    36   ar
    10    28    29    1
    11    28    27    2
    12     5    34    2
    13     5    29    1
    14    34    33   ar
    15    39    36    1
    16    29    25    2
    17    30    27    1
    18    27    26    1
    19    36    37   ar
    20    25    26    1
    21    25     1    1
    22    33    37   ar
    23    33     1    1
    24    26     4    2
    25    37     2    2
    26     4    21    1
    27     1    17    1
    28     1     6    1
    29     2     7    1
    30    21    17   ar
    31    21    20   ar
    32     7     6    2
    33     7     8    1
    34    17    18   ar
    35     6    10    1
    36    16    14   ar
    37    20    23    1
    38    20    19   ar
    39    24    23    2
    40    18     3    1
    41    18    19   ar
    42     8    12    1
    43     8     9    2
    44    10     3    2
    45    10     9    1
    46    14    15   ar
    47    14    13    1
    48    12    13    1
    49    19    22    1
    50     9    11    1
