@<TRIPOS>MOLECULE
3e1p_HEM_A_1.pdb
 43 50 0 0 0
SMALL
GASTEIGER

@<TRIPOS>ATOM
      1 FE        -92.3670  -50.4680    0.1370 Fe    200  HEM200      0.0000
      2  CHA      -88.9390  -50.5810    0.1730 C.2   200  HEM200      0.0000
      3  CHB      -92.4490  -52.7400    2.7800 C.2   200  HEM200      0.0000
      4  CHC      -95.8000  -50.5280    0.0320 C.2   200  HEM200      0.0000
      5  CHD      -92.3380  -48.1590   -2.4420 C.2   200  HEM200      0.0000
      6  NA       -90.9430  -51.5290    1.2500 N.2   200  HEM200      0.0000
      7  C1A      -89.5800  -51.3250    1.1500 C.2   200  HEM200      0.0000
      8  C2A      -88.9590  -52.0320    2.2570 C.2   200  HEM200      0.0000
      9  C3A      -89.9250  -52.6260    2.9720 C.2   200  HEM200      0.0000
     10  C4A      -91.2000  -52.3230    2.3530 C.2   200  HEM200      0.0000
     11  CMA      -89.7280  -53.4880    4.2400 C.3   200  HEM200      0.0000
     12  CAA      -87.4420  -52.0900    2.5560 C.3   200  HEM200      0.0000
     13  CBA      -86.9710  -50.7730    3.1600 C.3   200  HEM200      0.0000
     14  CGA      -85.7070  -50.3370    2.4660 C.2   200  HEM200      0.0000
     15  O1A      -84.6080  -50.5630    3.0320 O.co2 200  HEM200      0.0000
     16  O2A      -85.7980  -49.7670    1.3470 O.co2 200  HEM200      0.0000
     17  NB       -93.8630  -51.4720    1.2160 N.ar  200  HEM200      0.0000
     18  C1B      -93.6750  -52.3410    2.2780 C.ar  200  HEM200      0.0000
     19  C2B      -94.9870  -52.7450    2.7460 C.ar  200  HEM200      0.0000
     20  C3B      -95.9060  -52.1360    1.9880 C.ar  200  HEM200      0.0000
     21  C4B      -95.2180  -51.3180    1.0040 C.ar  200  HEM200      0.0000
     22  CMB      -95.2800  -53.7100    3.9180 C.3   200  HEM200      0.0000
     23  CAB      -97.4350  -52.2840    2.1400 C.2   200  HEM200      0.0000
     24  CBB      -98.2580  -51.3480    1.6630 C.2   200  HEM200      0.0000
     25  NC       -93.8160  -49.5330   -1.0270 N.2   200  HEM200      0.0000
     26  C1C      -95.1770  -49.6640   -0.8460 C.2   200  HEM200      0.0000
     27  C2C      -95.8260  -48.7300   -1.7420 C.2   200  HEM200      0.0000
     28  C3C      -94.8790  -48.0770   -2.4250 C.2   200  HEM200      0.0000
     29  C4C      -93.5830  -48.5690   -1.9920 C.2   200  HEM200      0.0000
     30  CMC      -97.3510  -48.5300   -1.8810 C.3   200  HEM200      0.0000
     31  CAC      -95.1250  -46.9860   -3.4880 C.2   200  HEM200      0.0000
     32  CBC      -94.7880  -47.2020   -4.7610 C.2   200  HEM200      0.0000
     33  ND       -90.8500  -49.4850   -0.9690 N.ar  200  HEM200      0.0000
     34  C1D      -91.0930  -48.6050   -2.0220 C.ar  200  HEM200      0.0000
     35  C2D      -89.8160  -48.2390   -2.5990 C.ar  200  HEM200      0.0000
     36  C3D      -88.7580  -48.9980   -1.7800 C.ar  200  HEM200      0.0000
     37  C4D      -89.4940  -49.7480   -0.7850 C.ar  200  HEM200      0.0000
     38  CMD      -89.5660  -47.2860   -3.7900 C.3   200  HEM200      0.0000
     39  CAD      -87.2250  -48.9660   -1.9720 C.3   200  HEM200      0.0000
     40  CBD      -86.7850  -50.1130   -2.8750 C.3   200  HEM200      0.0000
     41  CGD      -85.3090  -50.3560   -2.6900 C.2   200  HEM200      0.0000
     42  O1D      -84.9480  -51.3630   -2.0290 O.co2 200  HEM200      0.0000
     43  O2D      -84.4940  -49.5460   -3.2030 O.co2 200  HEM200      0.0000
@<TRIPOS>BOND
     1    32    31    2
     2    38    35    1
     3    31    28    1
     4    43    41   ar
     5    40    41    1
     6    40    39    1
     7    41    42   ar
     8    35    34   ar
     9    35    36   ar
    10     5    34    2
    11     5    29    1
    12    28    29    1
    13    28    27    2
    14    34    33   ar
    15    29    25    2
    16    39    36    1
    17    30    27    1
    18    36    37   ar
    19    27    26    1
    20    25    26    1
    21    25     1    1
    22    33    37   ar
    23    33     1    1
    24    26     4    2
    25    37     2    2
    26     4    21    1
    27     1    17    1
    28     1     6    1
    29     2     7    1
    30    21    17   ar
    31    21    20   ar
    32     7     6    2
    33     7     8    1
    34    17    18   ar
    35     6    10    1
    36    16    14   ar
    37    24    23    2
    38    20    23    1
    39    20    19   ar
    40     8    12    1
    41     8     9    2
    42    18    19   ar
    43    18     3    1
    44    10     3    2
    45    10     9    1
    46    14    15   ar
    47    14    13    1
    48    12    13    1
    49    19    22    1
    50     9    11    1
