@<TRIPOS>MOLECULE
3e1q_HEM_A_1.pdb
 43 50 0 0 0
SMALL
GASTEIGER

@<TRIPOS>ATOM
      1  CHA      -89.0780  -50.5460    0.2210 C.2   200  HEM200      0.0000
      2  CHB      -92.6170  -52.7170    2.8230 C.2   200  HEM200      0.0000
      3  CHC      -96.0600  -50.4880    0.0970 C.2   200  HEM200      0.0000
      4  CHD      -92.5220  -48.1970   -2.4620 C.2   200  HEM200      0.0000
      5  C1A      -89.7220  -51.3080    1.1860 C.2   200  HEM200      0.0000
      6  C2A      -89.1070  -52.0500    2.2760 C.2   200  HEM200      0.0000
      7  C3A      -90.0570  -52.6490    2.9930 C.2   200  HEM200      0.0000
      8  C4A      -91.3460  -52.3150    2.3970 C.2   200  HEM200      0.0000
      9  CMA      -89.8010  -53.5280    4.2370 C.3   200  HEM200      0.0000
     10  CAA      -87.5990  -52.1400    2.5540 C.3   200  HEM200      0.0000
     11  CBA      -87.1240  -50.9600    3.3780 C.3   200  HEM200      0.0000
     12  CGA      -85.7760  -50.5470    2.8510 C.2   200  HEM200      0.0000
     13  O1A      -84.7980  -50.6570    3.6300 O.co2 200  HEM200      0.0000
     14  O2A      -85.6840  -50.1120    1.6620 O.co2 200  HEM200      0.0000
     15  C1B      -93.8610  -52.3280    2.3230 C.ar  200  HEM200      0.0000
     16  C2B      -95.1700  -52.7810    2.7730 C.ar  200  HEM200      0.0000
     17  C3B      -96.0950  -52.1710    2.0200 C.ar  200  HEM200      0.0000
     18  C4B      -95.4470  -51.2910    1.0560 C.ar  200  HEM200      0.0000
     19  CMB      -95.4580  -53.7810    3.9020 C.3   200  HEM200      0.0000
     20  CAB      -97.6070  -52.3400    2.1450 C.2   200  HEM200      0.0000
     21  CBB      -98.3350  -51.3140    1.7130 C.2   200  HEM200      0.0000
     22  C1C      -95.4320  -49.6310   -0.7950 C.2   200  HEM200      0.0000
     23  C2C      -96.0450  -48.6490   -1.6580 C.2   200  HEM200      0.0000
     24  C3C      -95.0830  -48.0310   -2.3470 C.2   200  HEM200      0.0000
     25  C4C      -93.7900  -48.5790   -1.9810 C.2   200  HEM200      0.0000
     26  CMC      -97.5460  -48.3490   -1.7710 C.3   200  HEM200      0.0000
     27  CAC      -95.3150  -46.9040   -3.3510 C.2   200  HEM200      0.0000
     28  CBC      -94.9380  -47.0790   -4.6030 C.2   200  HEM200      0.0000
     29  C1D      -91.2470  -48.6170   -2.0420 C.ar  200  HEM200      0.0000
     30  C2D      -89.9520  -48.2710   -2.6160 C.ar  200  HEM200      0.0000
     31  C3D      -88.9070  -49.0040   -1.7770 C.ar  200  HEM200      0.0000
     32  C4D      -89.6360  -49.7330   -0.7630 C.ar  200  HEM200      0.0000
     33  CMD      -89.6590  -47.3640   -3.8240 C.3   200  HEM200      0.0000
     34  CAD      -87.3840  -48.9890   -1.9610 C.3   200  HEM200      0.0000
     35  CBD      -86.9910  -50.0780   -2.9530 C.3   200  HEM200      0.0000
     36  CGD      -85.4930  -50.1950   -2.9880 C.2   200  HEM200      0.0000
     37  O1D      -84.9440  -51.1590   -2.4020 O.co2 200  HEM200      0.0000
     38  O2D      -84.8370  -49.3260   -3.5950 O.co2 200  HEM200      0.0000
     39  NA       -91.0820  -51.4990    1.3020 N.2   200  HEM200      0.0000
     40  NB       -94.0890  -51.4270    1.2770 N.ar  200  HEM200      0.0000
     41  NC       -94.0710  -49.5500   -1.0290 N.2   200  HEM200      0.0000
     42  ND       -90.9900  -49.4700   -0.9640 N.ar  200  HEM200      0.0000
     43 FE        -92.5800  -50.3920    0.1320 Fe    200  HEM200      0.0000
@<TRIPOS>BOND
     1    28    27    2
     2    33    30    1
     3    38    36   ar
     4    27    24    1
     5    36    35    1
     6    36    37   ar
     7    35    34    1
     8    30    29   ar
     9    30    31   ar
    10     4    29    2
    11     4    25    1
    12    24    25    1
    13    24    23    2
    14    29    42   ar
    15    25    41    2
    16    34    31    1
    17    31    32   ar
    18    26    23    1
    19    23    22    1
    20    41    22    1
    21    41    43    1
    22    42    32   ar
    23    42    43    1
    24    22     3    2
    25    32     1    2
    26     3    18    1
    27    43    40    1
    28    43    39    1
    29     1     5    1
    30    18    40   ar
    31    18    17   ar
    32     5    39    2
    33     5     6    1
    34    40    15   ar
    35    39     8    1
    36    14    12   ar
    37    21    20    2
    38    17    20    1
    39    17    16   ar
    40     6    10    1
    41     6     7    2
    42    15    16   ar
    43    15     2    1
    44     8     2    2
    45     8     7    1
    46    10    11    1
    47    16    19    1
    48    12    11    1
    49    12    13   ar
    50     7     9    1
