@<TRIPOS>MOLECULE
3e1y_ATP_A_1.pdb
 31 33 0 0 0
SMALL
GASTEIGER

@<TRIPOS>ATOM
      1  PG       -37.6520   96.0160   15.8630 P.3   1526  ATP1526     0.5373
      2  O1G      -37.4570   94.6230   15.3060 O.2   1526  ATP1526    -0.2221
      3  O2G      -36.4980   96.9540   15.5850 O.3   1526  ATP1526    -0.1143
      4  O3G      -39.0190   96.6140   15.6100 O.3   1526  ATP1526    -0.1143
      5  PB       -36.2830   95.2580   18.2080 P.3   1526  ATP1526     0.2277
      6  O1B      -35.6480   94.1540   17.3880 O.2   1526  ATP1526    -0.5168
      7  O2B      -36.6750   95.0060   19.6420 O.3   1526  ATP1526    -0.4368
      8  O3B      -37.6070   95.7960   17.4570 O.3   1526  ATP1526    -0.2258
      9  PA       -35.4620   97.6670   19.3830 P.3   1526  ATP1526     0.2189
     10  O1A      -36.8910   97.7410   19.8680 O.2   1526  ATP1526    -0.5170
     11  O2A      -34.3410   97.4680   20.3720 O.3   1526  ATP1526    -0.4371
     12  O3A      -35.3330   96.5610   18.2140 O.3   1526  ATP1526    -0.2700
     13  O5'      -35.1390   99.0080   18.5750 O.3   1526  ATP1526    -0.3112
     14  C5'      -35.9100   99.3710   17.4390 C.3   1526  ATP1526     0.1813
     15  C4'      -37.0110  100.3280   17.8640 C.3   1526  ATP1526     0.1821
     16  O4'      -36.5260  101.2160   18.8750 O.3   1526  ATP1526    -0.3135
     17  C3'      -37.4310  101.1560   16.6660 C.3   1526  ATP1526     0.2184
     18  O3'      -38.8300  100.9860   16.4290 O.3   1526  ATP1526    -0.2174
     19  C2'      -37.1230  102.5950   17.0160 C.3   1526  ATP1526     0.2570
     20  O2'      -38.3280  103.3650   16.9380 O.3   1526  ATP1526    -0.2130
     21  C1'      -36.6010  102.5800   18.4520 C.3   1526  ATP1526     0.3186
     22  N9       -35.3010  103.3150   18.6220 N.pl3 1526  ATP1526    -0.1439
     23  C8       -35.1900  104.6600   18.5920 C.3   1526  ATP1526     0.3377
     24  N7       -33.9170  105.0860   18.7830 N.2   1526  ATP1526    -0.2095
     25  C5       -33.1620  103.9910   18.9530 C.2   1526  ATP1526     0.2526
     26  C6       -31.7230  103.7440   19.2010 C.2   1526  ATP1526     0.4393
     27  N6       -30.8530  104.7790   19.3040 N.pl3 1526  ATP1526     0.2180
     28  N1       -31.3210  102.4610   19.3230 N.2   1526  ATP1526     0.0021
     29  C2       -32.1960  101.4420   19.2160 C.3   1526  ATP1526     0.5254
     30  N3       -33.5160  101.6010   18.9940 N.2   1526  ATP1526    -0.0055
     31  C4       -34.0680  102.8280   18.8520 C.2   1526  ATP1526     0.3518
@<TRIPOS>BOND
     1     2     1    2
     2     3     1    1
     3     4     1    1
     4     1     8    1
     5    18    17    1
     6    17    19    1
     7    17    15    1
     8    20    19    1
     9    19    21    1
    10     6     5    2
    11    14    15    1
    12    14    13    1
    13     8     5    1
    14    15    16    1
    15     5    12    1
    16     5     7    1
    17    12     9    1
    18    21    22    1
    19    21    16    1
    20    13     9    1
    21    23    22    1
    22    23    24    1
    23    22    31    1
    24    24    25    2
    25    31    25    1
    26    31    30    2
    27    25    26    1
    28    30    29    1
    29    26    27    1
    30    26    28    2
    31    29    28    1
    32     9    10    2
    33     9    11    1
