@<TRIPOS>MOLECULE
3e22_GTP_A_1.pdb
 32 34 0 0 0
SMALL
GASTEIGER

@<TRIPOS>ATOM
      1  PG       182.6760   58.1960   51.2880 P.3   600  GTP600      0.5373
      2  O1G      183.4110   59.5040   51.1820 O.3   600  GTP600     -0.1143
      3  O2G      183.0050   57.5180   52.6230 O.3   600  GTP600     -0.1143
      4  O3G      183.0380   57.0510   50.2790 O.2   600  GTP600     -0.2221
      5  O3B      181.0820   58.5310   51.1790 O.3   600  GTP600     -0.2258
      6  PB       179.9990   57.3310   50.9810 P.3   600  GTP600      0.2277
      7  O1B      178.6380   57.6840   51.4780 O.2   600  GTP600     -0.5168
      8  O2B      180.5630   55.9460   51.4870 O.3   600  GTP600     -0.4368
      9  O3A      179.8070   57.3860   49.3840 O.3   600  GTP600     -0.2700
     10  PA       179.0700   58.5850   48.6380 P.3   600  GTP600      0.2189
     11  O1A      180.1430   59.2940   47.9050 O.2   600  GTP600     -0.5170
     12  O2A      178.2870   59.3970   49.6890 O.3   600  GTP600     -0.4371
     13  O5'      178.0470   57.8640   47.6040 O.3   600  GTP600     -0.3112
     14  C5'      178.2650   57.7620   46.2020 C.3   600  GTP600      0.1813
     15  C4'      176.9480   57.9780   45.4270 C.3   600  GTP600      0.1799
     16  O4'      176.3100   59.1790   45.8370 O.3   600  GTP600     -0.3326
     17  C3'      177.1590   58.1430   43.9140 C.3   600  GTP600      0.2158
     18  O3'      176.0190   57.6660   43.2060 O.3   600  GTP600     -0.2175
     19  C2'      177.3220   59.6400   43.6990 C.3   600  GTP600      0.2310
     20  O2'      176.7810   60.0590   42.4690 O.3   600  GTP600     -0.2158
     21  C1'      176.5120   60.2180   44.8580 C.3   600  GTP600      0.2293
     22  N9       177.1400   61.4320   45.4310 N.pl3 600  GTP600     -0.2354
     23  C8       178.3010   61.5160   46.1630 C.3   600  GTP600      0.2246
     24  N7       178.5230   62.8070   46.5130 N.2   600  GTP600     -0.2322
     25  C5       177.5050   63.5500   46.0130 C.2   600  GTP600      0.2182
     26  C6       177.2250   64.9200   46.0570 C.1   600  GTP600      0.2372
     27  O6       177.9880   65.6940   46.6410 O.2   600  GTP600     -0.2069
     28  N1       176.0970   65.4120   45.4350 N.2   600  GTP600     -0.2485
     29  C2       175.2590   64.5450   44.7900 C.1   600  GTP600      0.2531
     30  N2       174.1730   65.0320   44.2250 N.pl3 600  GTP600     -0.0226
     31  N3       175.5340   63.1990   44.7270 N.2   600  GTP600     -0.3074
     32  C4       176.6360   62.7020   45.3310 C.2   600  GTP600      0.2300
@<TRIPOS>BOND
     1    20    19    1
     2    18    17    1
     3    19    17    1
     4    19    21    1
     5    17    15    1
     6    30    29    1
     7    31    29    2
     8    31    32    2
     9    29    28    2
    10    21    22    1
    11    21    16    1
    12    32    22    1
    13    32    25    1
    14    15    16    1
    15    15    14    1
    16    22    23    1
    17    28    26    2
    18    25    26    1
    19    25    24    2
    20    26    27    2
    21    23    24    1
    22    14    13    1
    23    13    10    1
    24    11    10    2
    25    10     9    1
    26    10    12    1
    27     9     6    1
    28     4     1    2
    29     6     5    1
    30     6     7    2
    31     6     8    1
    32     5     1    1
    33     2     1    1
    34     1     3    1
