@<TRIPOS>MOLECULE
3e22_GDP_B_1.pdb
 28 30 0 0 0
SMALL
GASTEIGER

@<TRIPOS>ATOM
      1  PB       215.9310   39.6260   39.8100 P.3   600  GDP600      0.5373
      2  O1B      215.0040   39.0670   40.8170 O.3   600  GDP600     -0.1143
      3  O2B      215.9920   41.1240   40.1190 O.3   600  GDP600     -0.1143
      4  O3B      217.3850   39.0120   39.8730 O.2   600  GDP600     -0.2221
      5  O3A      215.1830   39.3180   38.4110 O.3   600  GDP600     -0.2261
      6  PA       215.4910   40.2580   37.1540 P.3   600  GDP600      0.2231
      7  O1A      215.2490   41.6710   37.4900 O.3   600  GDP600     -0.4370
      8  O2A      216.9420   39.9910   36.6840 O.2   600  GDP600     -0.5169
      9  O5'      214.3910   39.8430   36.0640 O.3   600  GDP600     -0.3111
     10  C5'      214.5760   38.8120   35.1020 C.3   600  GDP600      0.1813
     11  C4'      213.4990   38.9500   34.0070 C.3   600  GDP600      0.1799
     12  O4'      212.6700   40.1020   34.2250 O.3   600  GDP600     -0.3326
     13  C3'      214.0950   39.0350   32.5950 C.3   600  GDP600      0.2158
     14  O3'      213.7970   37.8900   31.8300 O.3   600  GDP600     -0.2175
     15  C2'      213.4570   40.2570   31.9610 C.3   600  GDP600      0.2310
     16  O2'      212.4640   39.9070   31.0220 O.3   600  GDP600     -0.2158
     17  C1'      212.8250   40.9940   33.1350 C.3   600  GDP600      0.2293
     18  N9       213.6750   42.1520   33.5040 N.pl3 600  GDP600     -0.2354
     19  C8       214.9140   42.1980   34.1120 C.3   600  GDP600      0.2246
     20  N7       215.2800   43.5010   34.2310 N.2   600  GDP600     -0.2322
     21  C5       214.2860   44.3080   33.7050 C.2   600  GDP600      0.2182
     22  C6       214.0780   45.7150   33.5420 C.1   600  GDP600      0.2372
     23  O6       215.0210   46.5010   33.4550 O.2   600  GDP600     -0.2069
     24  N1       212.9170   46.1860   32.9680 N.2   600  GDP600     -0.2485
     25  C2       211.9510   45.3050   32.5240 C.1   600  GDP600      0.2531
     26  N2       211.0310   45.6910   31.6490 N.pl3 600  GDP600     -0.0226
     27  N3       212.1410   43.9500   32.6760 N.2   600  GDP600     -0.3074
     28  C4       213.2800   43.4470   33.2500 C.2   600  GDP600      0.2300
@<TRIPOS>BOND
     1    16    15    1
     2    26    25    1
     3    14    13    1
     4    15    13    1
     5    15    17    1
     6    25    27    2
     7    25    24    2
     8    13    11    1
     9    27    28    2
    10    24    22    2
    11    17    18    1
    12    17    12    1
    13    28    18    1
    14    28    21    1
    15    23    22    2
    16    18    19    1
    17    22    21    1
    18    21    20    2
    19    11    12    1
    20    11    10    1
    21    19    20    1
    22    10     9    1
    23     9     6    1
    24     8     6    2
    25     6     7    1
    26     6     5    1
    27     5     1    1
    28     1     4    2
    29     1     3    1
    30     1     2    1
