@<TRIPOS>MOLECULE
3e22_TZT_B_1.pdb
 50 51 0 0 0
SMALL
GASTEIGER

@<TRIPOS>ATOM
      1  C6       216.7010   40.5400   22.7320 C.3   800  TZT800      0.0019
      2  C5       217.0660   39.0530   22.6590 C.3   800  TZT800      0.0236
      3  C7       216.3720   38.4550   21.4300 C.3   800  TZT800      0.0019
      4  C4       218.6030   38.6710   22.6780 C.3   800  TZT800      0.1365
      5  N2       219.0020   37.6850   23.6830 N.3   800  TZT800     -0.2640
      6  C3       219.4030   36.4830   22.9400 C.3   800  TZT800      0.0900
      7  C1       217.9570   37.4950   24.6940 C.3   800  TZT800      0.0900
      8  C8       219.6410   39.7540   22.9200 C.2   800  TZT800      0.2562
      9  O9       220.7510   39.5550   22.4440 O.2   800  TZT800     -0.2719
     10  N10      219.3130   40.8050   23.6830 N.am  800  TZT800     -0.1967
     11  C11      220.2240   41.9320   23.9560 C.3   800  TZT800      0.1712
     12  C12      220.5940   42.6060   22.6050 C.3   800  TZT800      0.0289
     13  C14      219.3740   43.1170   21.7890 C.3   800  TZT800      0.0023
     14  C13      221.4960   41.7700   21.6940 C.3   800  TZT800      0.0023
     15  C15      219.4750   43.0510   24.6620 C.2   800  TZT800      0.2456
     16  O16      218.2560   43.1400   24.5150 O.2   800  TZT800     -0.2730
     17  N17      220.1750   43.9350   25.3760 N.am  800  TZT800     -0.2756
     18  C78      221.6280   43.7350   25.4530 C.3   800  TZT800      0.1149
     19  C18      219.4320   45.0570   26.0140 C.3   800  TZT800      0.1029
     20  C19      218.0020   44.5870   26.3850 C.3   800  TZT800      0.0206
     21  C22      217.0500   45.6700   26.8270 C.3   800  TZT800      0.0018
     22  C20      217.9900   43.4320   27.3440 C.3   800  TZT800      0.0017
     23  C21      216.9270   42.4740   26.8560 C.3   800  TZT800      0.0001
     24  C23      220.2570   45.9760   27.0230 C.3   800  TZT800      0.1424
     25  O24      219.5120   47.2170   27.1360 O.3   800  TZT800     -0.3514
     26  C25      219.9690   47.9490   25.9860 C.3   800  TZT800      0.1741
     27  C26      220.8280   45.7080   28.4490 C.3   800  TZT800      0.1164
     28  C27      221.0020   46.9420   29.4040 C.2   800  TZT800      0.2282
     29  O28      220.6340   46.7090   30.5390 O.2   800  TZT800     -0.2748
     30  N29      221.4820   48.2270   29.1910 N.am  800  TZT800     -0.2787
     31  C30      222.0360   48.7830   27.9540 C.3   800  TZT800      0.0935
     32  C31      223.2720   49.5430   28.4220 C.3   800  TZT800      0.0233
     33  C32      223.0050   49.9030   29.8870 C.3   800  TZT800      0.0241
     34  C33      221.6280   49.3130   30.2390 C.3   800  TZT800      0.1029
     35  C34      220.4810   50.4300   30.4350 C.3   800  TZT800      0.1419
     36  O35      220.5420   51.6300   29.5300 O.3   800  TZT800     -0.3514
     37  C36      219.6840   52.7810   29.8610 C.3   800  TZT800      0.1741
     38  C37      220.2850   51.0800   31.8750 C.3   800  TZT800      0.1069
     39  C38      221.6190   51.4850   32.5520 C.3   800  TZT800      0.0122
     40  C39      219.4200   50.2930   32.9050 C.2   800  TZT800      0.2433
     41  O40      218.3000   50.7040   33.1930 O.2   800  TZT800     -0.2733
     42  N41      220.0260   49.2150   33.4400 N.am  800  TZT800     -0.2050
     43  C42      219.5260   48.2390   34.4500 C.3   800  TZT800      0.1198
     44  C43      220.4140   48.2200   35.7680 C.3   800  TZT800      0.0498
     45  C44      221.7350   47.2930   35.9800 C.ar  800  TZT800     -0.0204
     46  C45      221.7250   45.8620   35.9740 C.ar  800  TZT800     -0.0042
     47  C46      222.9160   45.1010   36.1770 C.ar  800  TZT800     -0.0003
     48  C47      224.1600   45.7280   36.4110 C.ar  800  TZT800     -0.0000
     49  C48      224.2070   47.1350   36.4390 C.ar  800  TZT800     -0.0003
     50  C49      223.0160   47.8900   36.2350 C.ar  800  TZT800     -0.0042
@<TRIPOS>BOND
     1     3     2    1
     2    14    12    1
     3    13    12    1
     4     9     8    2
     5    12    11    1
     6     2     4    1
     7     2     1    1
     8     4     8    1
     9     4     5    1
    10     8    10   am
    11     6     5    1
    12    10    11    1
    13     5     7    1
    14    11    15    1
    15    16    15    2
    16    15    17   am
    17    17    18    1
    18    17    19    1
    19    26    25    1
    20    19    20    1
    21    19    24    1
    22    20    21    1
    23    20    22    1
    24    23    22    1
    25    24    25    1
    26    24    27    1
    27    31    32    1
    28    31    30    1
    29    32    33    1
    30    27    28    1
    31    30    28   am
    32    30    34    1
    33    28    29    2
    34    36    37    1
    35    36    35    1
    36    33    34    1
    37    34    35    1
    38    35    38    1
    39    38    39    1
    40    38    40    1
    41    40    41    2
    42    40    42   am
    43    42    43    1
    44    43    44    1
    45    44    45    1
    46    46    45   ar
    47    46    47   ar
    48    45    50   ar
    49    47    48   ar
    50    50    49   ar
    51    48    49   ar
