@<TRIPOS>MOLECULE
3e22_LOC_B_1.pdb
 29 31 0 0 0
SMALL
GASTEIGER

@<TRIPOS>ATOM
      1  O4       184.7330   57.1100   39.2350 O.2   700  LOC700     -0.2733
      2  C12      184.3510   56.8190   40.3610 C.2   700  LOC700      0.2421
      3  C13      183.0940   57.4910   40.8260 C.3   700  LOC700      0.0964
      4  N1       184.8970   55.9500   41.2350 N.am  700  LOC700     -0.2030
      5  C11      186.1300   55.1760   41.0650 C.3   700  LOC700      0.1143
      6  C14      186.1000   53.9530   40.2020 C.2   700  LOC700     -0.0172
      7  C15      184.8670   53.4320   39.8950 C.3   700  LOC700      0.0910
      8  C10      186.4450   54.7060   42.4780 C.3   700  LOC700      0.0305
      9  C9       187.6880   53.8090   42.5820 C.3   700  LOC700      0.0287
     10  C8       188.7900   54.2680   41.6540 C.ar  700  LOC700     -0.0160
     11  C7       189.9630   54.8610   42.0990 C.ar  700  LOC700      0.0360
     12  C5       190.9610   55.2740   41.2180 C.ar  700  LOC700      0.1751
     13  C3       190.7620   55.0920   39.8610 C.ar  700  LOC700      0.2060
     14  C1       189.6000   54.4900   39.3860 C.ar  700  LOC700      0.1750
     15  O1       189.4270   54.3290   38.0640 O.3   700  LOC700     -0.4683
     16  C2       188.9590   55.4950   37.3810 C.3   700  LOC700      0.2526
     17  O2       191.7510   55.4840   39.0030 O.3   700  LOC700     -0.4654
     18  C4       192.7980   54.5640   38.6450 C.3   700  LOC700      0.2528
     19  O3       192.0900   55.8810   41.7590 O.3   700  LOC700     -0.4683
     20  C6       193.4540   55.7670   41.3450 C.3   700  LOC700      0.2526
     21  C22      188.6030   54.0730   40.2280 C.ar  700  LOC700      0.0327
     22  C21      187.3060   53.4570   39.8300 C.2   700  LOC700     -0.0034
     23  C20      187.1640   52.4700   39.1660 C.2   700  LOC700     -0.0022
     24  C19      186.4730   51.7360   38.6620 C.2   700  LOC700      0.0103
     25  C17      185.3510   51.3680   38.3920 C.3   700  LOC700      0.1944
     26  C16      184.4170   52.2600   39.0680 C.2   700  LOC700      0.1858
     27  O5       183.2310   52.0470   38.9310 O.2   700  LOC700     -0.2928
     28  O6       185.0110   50.2570   37.5220 O.3   700  LOC700     -0.3417
     29  C18      184.5370   50.5130   36.2010 C.3   700  LOC700      0.1751
@<TRIPOS>BOND
     1    29    28    1
     2    16    15    1
     3    28    25    1
     4    15    14    1
     5    25    24    1
     6    25    26    1
     7    18    17    1
     8    24    23    2
     9    27    26    2
    10    17    13    1
    11    26     7    1
    12    23    22    1
    13     1     2    2
    14    14    13   ar
    15    14    21   ar
    16    22     6    2
    17    22    21    1
    18    13    12   ar
    19     7     6    1
    20     6     5    1
    21    21    10   ar
    22     2     3    1
    23     2     4   am
    24     5     4    1
    25     5     8    1
    26    12    19    1
    27    12    11   ar
    28    20    19    1
    29    10    11   ar
    30    10     9    1
    31     8     9    1
