@<TRIPOS>MOLECULE
3e23_SAM_A_1.pdb
 27 29 0 0 0
SMALL
GASTEIGER

@<TRIPOS>ATOM
      1  N         -6.2710   43.4390    6.1920 N.3   221  SAM221     -0.1208
      2  CA        -4.9950   44.0730    5.6490 C.3   221  SAM221      0.1952
      3  C         -3.8020   43.2680    5.2260 C.2   221  SAM221      0.3819
      4  O         -3.0700   43.6550    4.3390 O.co2 221  SAM221     -0.2441
      5  OXT       -3.6040   42.1660    5.7930 O.co2 221  SAM221     -0.2441
      6  CB        -4.5070   45.4790    6.1800 C.3   221  SAM221      0.0414
      7  CG        -3.6760   45.2100    7.4820 C.3   221  SAM221      0.0503
      8  SD        -2.9660   46.6830    8.2150 S.3   221  SAM221     -0.1761
      9  CE        -1.7090   45.8490    9.1520 C.3   221  SAM221      0.0590
     10  C5'       -3.8420   47.2130    9.6650 C.3   221  SAM221      0.0806
     11  C4'       -5.2680   47.7700    9.0370 C.3   221  SAM221      0.1622
     12  O4'       -6.1180   48.0920   10.1820 O.3   221  SAM221     -0.3153
     13  C3'       -4.9860   49.0910    8.1470 C.3   221  SAM221      0.2168
     14  O3'       -5.5300   49.1020    6.8260 O.3   221  SAM221     -0.2175
     15  C2'       -5.4920   50.2200    9.0440 C.3   221  SAM221      0.2569
     16  O2'       -5.9980   51.3560    8.2530 O.3   221  SAM221     -0.2130
     17  C1'       -6.6940   49.5220    9.8130 C.3   221  SAM221      0.3185
     18  N9        -6.8780   50.3610   10.8370 N.pl3 221  SAM221     -0.1439
     19  C8        -5.9750   50.7270   11.8430 C.3   221  SAM221      0.3377
     20  N7        -6.7830   51.1000   12.9390 N.2   221  SAM221     -0.2095
     21  C5        -8.0720   50.8030   12.7400 C.2   221  SAM221      0.2526
     22  C6        -9.3370   51.0690   13.4380 C.2   221  SAM221      0.4393
     23  N6        -9.2820   51.4610   14.6520 N.pl3 221  SAM221      0.2180
     24  N1       -10.5010   50.9150   12.7600 N.2   221  SAM221      0.0021
     25  C2       -10.4780   50.3370   11.5710 C.3   221  SAM221      0.5254
     26  N3        -9.4070   50.2650   10.7640 N.2   221  SAM221     -0.0055
     27  C4        -8.1530   50.4400   11.2850 C.2   221  SAM221      0.3518
@<TRIPOS>BOND
     1     4     3   ar
     2     3     2    1
     3     3     5   ar
     4     2     6    1
     5     2     1    1
     6     6     7    1
     7    14    13    1
     8     7     8    1
     9    13    11    1
    10    13    15    1
    11     8     9    1
    12     8    10    1
    13    16    15    1
    14    11    10    1
    15    11    12    1
    16    15    17    1
    17    17    12    1
    18    17    18    1
    19    26    27    2
    20    26    25    1
    21    18    27    1
    22    18    19    1
    23    27    21    1
    24    25    24    1
    25    19    20    1
    26    21    20    2
    27    21    22    1
    28    24    22    2
    29    22    23    1
