@<TRIPOS>MOLECULE
3e25_UDP_A_1.pdb
 25 26 0 0 0
SMALL
GASTEIGER

@<TRIPOS>ATOM
      1  N1        15.4660  -13.5370    4.9660 N.am  339  UDP339     -0.1766
      2  C2        14.0130  -13.5940    5.0860 C.1   339  UDP339      0.2845
      3  N3        13.4260  -14.6000    5.7840 N.2   339  UDP339     -0.2452
      4  C4        14.2020  -15.5610    6.3770 C.1   339  UDP339      0.2182
      5  C5        15.5890  -15.5090    6.2790 C.2   339  UDP339      0.1242
      6  C6        16.2050  -14.4760    5.5560 C.2   339  UDP339      0.0929
      7  O2        13.1570  -12.6430    4.5130 O.2   339  UDP339     -0.1918
      8  O4        13.5910  -16.6260    7.0350 O.2   339  UDP339     -0.2085
      9  C1'       16.1820  -12.5230    4.1850 C.3   339  UDP339      0.2401
     10  C2'       15.6960  -12.3680    2.7930 C.3   339  UDP339      0.2319
     11  O2'       15.9040  -13.3920    1.8450 O.3   339  UDP339     -0.2157
     12  C3'       16.1740  -10.9590    2.4880 C.3   339  UDP339      0.2158
     13  C4'       15.9100  -10.2190    3.8500 C.3   339  UDP339      0.1799
     14  O4'       16.2220  -11.2790    4.8150 O.3   339  UDP339     -0.3320
     15  O3'       17.4140  -10.7510    1.9000 O.3   339  UDP339     -0.2175
     16  C5'       14.5800   -9.4770    3.9850 C.3   339  UDP339      0.1813
     17  O5'       13.5160  -10.1480    3.3850 O.3   339  UDP339     -0.3111
     18  PA        12.3880   -9.2670    2.5920 P.3   339  UDP339      0.2231
     19  O1A       13.0600   -8.6240    1.2220 O.2   339  UDP339     -0.5169
     20  O2A       11.2850  -10.1680    2.2550 O.3   339  UDP339     -0.4370
     21  O3A       11.9140   -8.0250    3.5740 O.3   339  UDP339     -0.2261
     22  PB        11.0910   -6.7290    2.9360 P.3   339  UDP339      0.5373
     23  O1B       12.1710   -5.6080    2.3600 O.3   339  UDP339     -0.1143
     24  O2B       10.2100   -7.1990    1.8660 O.2   339  UDP339     -0.2221
     25  O3B       10.1940   -5.9830    4.1080 O.3   339  UDP339     -0.1143
@<TRIPOS>BOND
     1    19    18    2
     2    11    10    1
     3    24    22    2
     4    15    12    1
     5    20    18    1
     6    23    22    1
     7    12    10    1
     8    12    13    1
     9    18    17    1
    10    18    21    1
    11    10     9    1
    12    22    21    1
    13    22    25    1
    14    17    16    1
    15    13    16    1
    16    13    14    1
    17     9    14    1
    18     9     1    1
    19     7     2    2
    20     1     2   am
    21     1     6    1
    22     2     3    2
    23     6     5    2
    24     3     4    2
    25     5     4    1
    26     4     8    2
