@<TRIPOS>MOLECULE
3e25_3PG_A_1.pdb
 11 10 0 0 0
SMALL
GASTEIGER

@<TRIPOS>ATOM
      1  C1         8.6510   -2.5040    3.1760 C.2   340  3PG340      0.3972
      2  O1         9.6660   -2.7750    3.7550 O.co2 340  3PG340     -0.2427
      3  O2         7.7750   -1.6320    3.8530 O.co2 340  3PG340     -0.2427
      4  C2         8.5260   -2.6750    1.6290 C.3   340  3PG340      0.2838
      5  O3         9.1620   -1.6980    0.8470 O.3   340  3PG340     -0.2081
      6  C3         7.1250   -2.8690    1.0550 C.3   340  3PG340      0.1983
      7  O1P        6.7050   -1.9220    0.0960 O.3   340  3PG340     -0.2669
      8  P          5.0980   -1.6610   -0.3760 P.3   340  3PG340      0.5327
      9  O2P        5.0220   -0.3370   -1.3780 O.2   340  3PG340     -0.2224
     10  O3P        4.2870   -1.3170    0.7960 O.3   340  3PG340     -0.1145
     11  O4P        4.3670   -2.9410   -1.1780 O.3   340  3PG340     -0.1145
@<TRIPOS>BOND
     1     9     8    2
     2    11     8    1
     3     8     7    1
     4     8    10    1
     5     7     6    1
     6     5     4    1
     7     6     4    1
     8     4     1    1
     9     1     2   ar
    10     1     3   ar
