@<TRIPOS>MOLECULE
3e27_DND_A_1.pdb
 44 48 0 0 0
SMALL
GASTEIGER

@<TRIPOS>ATOM
      1  PN       -15.8990  -26.8620   12.8220 P.3   191  DND191      0.2189
      2  O11      -17.0140  -27.5150   12.1280 O.2   191  DND191     -0.5170
      3  O12      -16.1480  -26.1050   14.0730 O.3   191  DND191     -0.4371
      4  O3P      -14.9040  -26.0290   11.9020 O.3   191  DND191     -0.2703
      5  O5D      -14.8820  -28.0330   13.1620 O.3   191  DND191     -0.3112
      6  C5D      -13.7220  -27.8050   13.9200 C.3   191  DND191      0.1813
      7  C4D      -12.9110  -29.0960   13.9860 C.3   191  DND191      0.1799
      8  O4D      -13.2870  -29.7760   15.1550 O.3   191  DND191     -0.3327
      9  C3D      -13.2310  -30.0540   12.8460 C.3   191  DND191      0.2158
     10  O3D      -12.0830  -30.8190   12.6230 O.3   191  DND191     -0.2175
     11  C2D      -14.2510  -31.0210   13.4150 C.3   191  DND191      0.2309
     12  O2D      -14.3030  -32.2490   12.6930 O.3   191  DND191     -0.2158
     13  C1D      -13.7130  -31.0900   14.8460 C.3   191  DND191      0.2263
     14  N1N      -14.7170  -31.5560   15.8100 N.pl3 191  DND191     -0.2787
     15  C6N      -15.8090  -30.8030   16.1970 C.3   191  DND191      0.1195
     16  C5N      -16.7220  -31.3370   17.1070 C.2   191  DND191     -0.0044
     17  C4N      -16.5080  -32.6180   17.6240 C.2   191  DND191      0.0050
     18  C3N      -15.3860  -33.3490   17.2240 C.2   191  DND191      0.0940
     19  C2N      -14.5060  -32.7980   16.3110 C.2   191  DND191      0.0699
     20  C7N      -15.2340  -34.8040   17.5430 C.2   191  DND191      0.3890
     21  O7N      -16.2650  -35.4880   18.1900 O.co2 191  DND191     -0.2405
     22  O8N      -14.1120  -35.4230   17.2220 O.co2 191  DND191     -0.2405
     23  PA       -15.1030  -24.5920   11.2280 P.3   191  DND191      0.2189
     24  O13      -14.9710  -24.8360    9.7880 O.2   191  DND191     -0.5170
     25  O14      -16.3570  -23.8650   11.5060 O.3   191  DND191     -0.4371
     26  O5B      -13.7840  -23.7740   11.7000 O.3   191  DND191     -0.3112
     27  C5B      -12.5070  -24.3730   11.8070 C.3   191  DND191      0.1813
     28  C4B      -11.8040  -23.8960   13.0690 C.3   191  DND191      0.1821
     29  O4B      -11.6000  -22.5020   13.0060 O.3   191  DND191     -0.3135
     30  C3B      -12.6350  -24.1460   14.3190 C.3   191  DND191      0.2184
     31  O3B      -11.7320  -24.6070   15.2730 O.3   191  DND191     -0.2174
     32  C2B      -13.1870  -22.7840   14.7160 C.3   191  DND191      0.2570
     33  O2B      -13.3670  -22.7130   16.1140 O.3   191  DND191     -0.2130
     34  C1B      -12.1060  -21.8660   14.1550 C.3   191  DND191      0.3186
     35  N9A      -12.6010  -20.5520   13.7390 N.pl3 191  DND191     -0.1439
     36  C4A      -12.2210  -19.3910   14.3700 C.2   191  DND191      0.3518
     37  N3A      -11.4010  -19.1590   15.4350 N.2   191  DND191     -0.0055
     38  C2A      -11.1790  -17.8700   15.8870 C.3   191  DND191      0.5254
     39  N1A      -11.8140  -16.8240   15.2510 N.2   191  DND191      0.0021
     40  C6A      -12.6600  -17.0510   14.1860 C.2   191  DND191      0.4393
     41  C5A      -12.8810  -18.3570   13.7330 C.2   191  DND191      0.2526
     42  N7A      -13.6360  -18.8950   12.7290 N.2   191  DND191     -0.2095
     43  C8A      -13.4800  -20.2490   12.7210 C.3   191  DND191      0.3377
     44  N6A      -13.1810  -16.0180   13.5390 N.pl3 191  DND191      0.2180
@<TRIPOS>BOND
     1    24    23    2
     2    23    25    1
     3    23    26    1
     4    23     4    1
     5    26    27    1
     6    27    28    1
     7     4     1    1
     8     2     1    2
     9    10     9    1
    10    12    11    1
    11    43    42    1
    12    43    35    1
    13    42    41    2
    14     1     5    1
    15     1     3    1
    16     9    11    1
    17     9     7    1
    18    29    28    1
    19    29    34    1
    20    28    30    1
    21     5     6    1
    22    11    13    1
    23    44    40    1
    24    41    40    1
    25    41    36    1
    26    35    34    1
    27    35    36    1
    28     6     7    1
    29     7     8    1
    30    34    32    1
    31    40    39    2
    32    30    32    1
    33    30    31    1
    34    36    37    2
    35    32    33    1
    36    13     8    1
    37    13    14    1
    38    39    38    1
    39    37    38    1
    40    14    15    1
    41    14    19    1
    42    15    16    1
    43    19    18    2
    44    16    17    2
    45    22    20   ar
    46    18    20    1
    47    18    17    1
    48    20    21   ar
