@<TRIPOS>MOLECULE
3e2c_HEM_A_1.pdb
 43 50 0 0 0
SMALL
GASTEIGER

@<TRIPOS>ATOM
      1 FE          9.2930   -5.8040  -13.5900 Fe    203  HEM203      0.0000
      2  CHA        6.2610   -6.2560  -12.1520 C.2   203  HEM203      0.0000
      3  CHB       10.1540   -3.6040  -11.0790 C.2   203  HEM203      0.0000
      4  CHC       12.3550   -5.1360  -15.0860 C.2   203  HEM203      0.0000
      5  CHD        8.6330   -8.0580  -16.0500 C.2   203  HEM203      0.0000
      6  NA         8.3750   -5.0560  -11.9310 N.2   203  HEM203      0.0000
      7  C1A        7.1120   -5.4000  -11.4930 C.2   203  HEM203      0.0000
      8  C2A        6.8560   -4.6960  -10.2490 C.2   203  HEM203      0.0000
      9  C3A        7.9350   -3.9710   -9.9590 C.2   203  HEM203      0.0000
     10  C4A        8.9070   -4.1790  -11.0090 C.2   203  HEM203      0.0000
     11  CMA        8.1100   -3.0590   -8.7270 C.3   203  HEM203      0.0000
     12  CAA        5.5790   -4.7680   -9.3870 C.3   203  HEM203      0.0000
     13  CBA        5.7460   -5.8750   -8.3510 C.3   203  HEM203      0.0000
     14  CGA        4.5390   -6.0010   -7.4530 C.2   203  HEM203      0.0000
     15  O1A        4.7400   -6.0930   -6.2160 O.co2 203  HEM203      0.0000
     16  O2A        3.3830   -6.0290   -7.9530 O.co2 203  HEM203      0.0000
     17  NB        10.9600   -4.6150  -13.1650 N.ar  203  HEM203      0.0000
     18  C1B       11.0710   -3.7630  -12.0870 C.ar  203  HEM203      0.0000
     19  C2B       12.3240   -3.0510  -12.1950 C.ar  203  HEM203      0.0000
     20  C3B       12.9480   -3.4580  -13.3070 C.ar  203  HEM203      0.0000
     21  C4B       12.0990   -4.4550  -13.9280 C.ar  203  HEM203      0.0000
     22  CMB       12.8010   -2.0070  -11.1670 C.3   203  HEM203      0.0000
     23  CAB       14.3200   -2.9920  -13.8600 C.2   203  HEM203      0.0000
     24  CBB       15.0240   -1.9930  -13.3010 C.2   203  HEM203      0.0000
     25  NC        10.2960   -6.4640  -15.2500 N.2   203  HEM203      0.0000
     26  C1C       11.5370   -6.0600  -15.6850 C.2   203  HEM203      0.0000
     27  C2C       11.8520   -6.7750  -16.8960 C.2   203  HEM203      0.0000
     28  C3C       10.8270   -7.5820  -17.1770 C.2   203  HEM203      0.0000
     29  C4C        9.8320   -7.4010  -16.1410 C.2   203  HEM203      0.0000
     30  CMC       13.1620   -6.5900  -17.6840 C.3   203  HEM203      0.0000
     31  CAC       10.6850   -8.5470  -18.3750 C.2   203  HEM203      0.0000
     32  CBC       11.4210   -8.3910  -19.4750 C.2   203  HEM203      0.0000
     33  ND         7.7200   -6.9900  -14.0210 N.ar  203  HEM203      0.0000
     34  C1D        7.6410   -7.8240  -15.1320 C.ar  203  HEM203      0.0000
     35  C2D        6.3270   -8.4060  -15.1880 C.ar  203  HEM203      0.0000
     36  C3D        5.5970   -7.8380  -13.9720 C.ar  203  HEM203      0.0000
     37  C4D        6.5320   -6.9700  -13.3000 C.ar  203  HEM203      0.0000
     38  CMD        5.7710   -9.3920  -16.2390 C.3   203  HEM203      0.0000
     39  CAD        4.1510   -8.1320  -13.5580 C.3   203  HEM203      0.0000
     40  CBD        3.2610   -7.0580  -14.1670 C.3   203  HEM203      0.0000
     41  CGD        1.8830   -7.2800  -13.6100 C.2   203  HEM203      0.0000
     42  O1D        1.3370   -6.3410  -12.9740 O.co2 203  HEM203      0.0000
     43  O2D        1.3650   -8.4130  -13.8000 O.co2 203  HEM203      0.0000
@<TRIPOS>BOND
     1    32    31    2
     2    31    28    1
     3    30    27    1
     4    28    27    2
     5    28    29    1
     6    27    26    1
     7    38    35    1
     8    29     5    1
     9    29    25    2
    10     5    34    2
    11    26    25    1
    12    26     4    2
    13    25     1    1
    14    35    34   ar
    15    35    36   ar
    16    34    33   ar
    17     4    21    1
    18    40    41    1
    19    40    39    1
    20    33     1    1
    21    33    37   ar
    22    36    39    1
    23    36    37   ar
    24    21    20   ar
    25    21    17   ar
    26    23    20    1
    27    23    24    2
    28    43    41   ar
    29    41    42   ar
    30     1    17    1
    31     1     6    1
    32    20    19   ar
    33    37     2    2
    34    17    18   ar
    35    19    18   ar
    36    19    22    1
    37     2     7    1
    38    18     3    1
    39     6     7    2
    40     6    10    1
    41     7     8    1
    42     3    10    2
    43    10     9    1
    44     8     9    2
    45     8    12    1
    46     9    11    1
    47    12    13    1
    48    13    14    1
    49    16    14   ar
    50    14    15   ar
