@<TRIPOS>MOLECULE
3e2m_E2M_A_1.pdb
 42 45 0 0 0
SMALL
GASTEIGER

@<TRIPOS>ATOM
      1  O1       -21.5680   17.9960   -5.2590 O.3     1  E2M1       -0.4750
      2  C1       -17.7220   14.6870   -5.6810 C.3     1  E2M1        0.4190
      3  C2       -17.7630   16.1280   -6.0960 C.ar    1  E2M1        0.0813
      4  C3       -18.5080   17.0370   -5.3650 C.ar    1  E2M1        0.0334
      5  C4       -20.1910   17.8390   -3.3190 C.ar    1  E2M1        0.0634
      6  C5       -21.2160   18.4530   -4.0170 C.ar    1  E2M1        0.1444
      7  C6       -22.7400   18.4980   -5.8980 C.3     1  E2M1        0.2053
      8  F6       -16.5010   14.2150   -5.8510 F       1  E2M1       -0.1658
      9  F1       -18.0590   14.5860   -4.4090 F       1  E2M1       -0.1658
     10  F2       -18.5690   13.9930   -6.4170 F       1  E2M1       -0.1658
     11  S        -19.3720   16.5210   -4.0010 S.3     1  E2M1       -0.0839
     12  C17      -19.8320   18.3010   -2.0580 C.ar    1  E2M1        0.0095
     13  C16      -20.5020   19.3820   -1.4970 C.ar    1  E2M1        0.0007
     14  C15      -21.5320   19.9990   -2.1980 C.ar    1  E2M1        0.0031
     15  C14      -21.8880   19.5340   -3.4580 C.ar    1  E2M1        0.0374
     16  C7       -22.7490   18.0630   -7.3580 C.3     1  E2M1        0.0438
     17  C12      -23.8560   18.8010   -8.1010 C.3     1  E2M1        0.0043
     18  C11      -23.6050   20.3040   -8.1020 C.3     1  E2M1        0.0114
     19  C10      -22.2600   20.6330   -8.7380 C.3     1  E2M1        0.1034
     20  C13      -22.0090   22.1360   -8.7390 C.2     1  E2M1        0.3643
     21  O3       -22.3960   22.9270   -7.6100 O.co2   1  E2M1       -0.2457
     22  O2       -21.3300   22.7480   -9.8420 O.co2   1  E2M1       -0.2457
     23  C9       -21.1520   19.8950   -7.9950 C.3     1  E2M1        0.0114
     24  C8       -21.4030   18.3920   -7.9940 C.3     1  E2M1        0.0043
     25  C18      -18.5460   18.3720   -5.7480 C.ar    1  E2M1        0.0064
     26  C19      -17.8360   18.7920   -6.8660 C.ar    1  E2M1        0.0005
     27  C20      -17.0900   17.8750   -7.5970 C.ar    1  E2M1        0.0040
     28  C28      -17.0550   16.5460   -7.2100 C.ar    1  E2M1        0.0758
     29  C29      -16.2490   15.5580   -8.0000 C.3     1  E2M1        0.4186
     30  F5       -16.0010   16.0500   -9.1990 F       1  E2M1       -0.1659
     31  F4       -15.1100   15.3220   -7.3770 F       1  E2M1       -0.1659
     32  F3       -16.9280   14.4320   -8.1180 F       1  E2M1       -0.1659
     33  C21      -16.3320   18.3190   -8.7880 C.2     1  E2M1        0.0046
     34  C22      -15.8730   19.5650   -8.8590 C.2     1  E2M1        0.0579
     35  C23      -15.1170   20.0060  -10.0470 C.2     1  E2M1        0.2493
     36  O5       -14.3580   19.2400  -10.6170 O.2     1  E2M1       -0.2699
     37  N        -15.3150   21.2600  -10.4430 N.am    1  E2M1       -0.2709
     38  C27      -14.7930   21.7680  -11.7030 C.3     1  E2M1        0.1258
     39  C26      -13.8540   22.9030  -11.3110 C.3     1  E2M1        0.1637
     40  O4       -14.5740   23.8770  -10.5580 O.3     1  E2M1       -0.3501
     41  C25      -15.0780   23.3360   -9.3380 C.3     1  E2M1        0.1637
     42  C24      -16.0670   22.2180   -9.6490 C.3     1  E2M1        0.1258
@<TRIPOS>BOND
     1    38    39    1
     2    38    37    1
     3    39    40    1
     4    36    35    2
     5    40    41    1
     6    37    35   am
     7    37    42    1
     8    35    34    1
     9    22    20   ar
    10    42    41    1
    11    30    29    1
    12    34    33    2
    13    33    27    1
    14    20    19    1
    15    20    21   ar
    16    19    18    1
    17    19    23    1
    18    32    29    1
    19    18    17    1
    20    17    16    1
    21    29    31    1
    22    29    28    1
    23    23    24    1
    24    24    16    1
    25    27    28   ar
    26    27    26   ar
    27    16     7    1
    28    28     3   ar
    29    26    25   ar
    30    10     2    1
    31     3     2    1
    32     3     4   ar
    33     7     1    1
    34     8     2    1
    35    25     4   ar
    36     2     9    1
    37     4    11    1
    38     1     6    1
    39     6    15   ar
    40     6     5   ar
    41    11     5    1
    42    15    14   ar
    43     5    12   ar
    44    14    13   ar
    45    12    13   ar
