@<TRIPOS>MOLECULE
3e2n_HEM_A_1.pdb
 43 50 0 0 0
SMALL
GASTEIGER

@<TRIPOS>ATOM
      1 FE         27.8330   90.9030   52.0000 Fe    296  HEM296      0.0000
      2  CHA       27.7110   92.9120   49.2300 C.2   296  HEM296      0.0000
      3  CHB       30.1910   92.9860   53.3690 C.2   296  HEM296      0.0000
      4  CHC       28.1140   88.7940   54.6110 C.2   296  HEM296      0.0000
      5  CHD       25.1660   89.1190   50.8370 C.2   296  HEM296      0.0000
      6  NA        28.7180   92.5510   51.4450 N.2   296  HEM296      0.0000
      7  C1A       28.4880   93.2980   50.3100 C.2   296  HEM296      0.0000
      8  C2A       29.3020   94.4860   50.2430 C.2   296  HEM296      0.0000
      9  C3A       30.0710   94.4560   51.3550 C.2   296  HEM296      0.0000
     10  C4A       29.6790   93.3020   52.1200 C.2   296  HEM296      0.0000
     11  CMA       31.0360   95.5330   51.8490 C.3   296  HEM296      0.0000
     12  CAA       29.3160   95.4920   49.1070 C.3   296  HEM296      0.0000
     13  CBA       28.1940   96.5260   49.2530 C.3   296  HEM296      0.0000
     14  CGA       28.2380   97.4440   48.0360 C.2   296  HEM296      0.0000
     15  O1A       27.2700   97.4740   47.2790 O.co2 296  HEM296      0.0000
     16  O2A       29.2830   98.1350   47.8790 O.co2 296  HEM296      0.0000
     17  NB        28.9800   90.8720   53.6410 N.ar  296  HEM296      0.0000
     18  C1B       29.9510   91.7770   54.0310 C.ar  296  HEM296      0.0000
     19  C2B       30.5220   91.3550   55.2650 C.ar  296  HEM296      0.0000
     20  C3B       30.0810   90.1070   55.5310 C.ar  296  HEM296      0.0000
     21  C4B       28.9960   89.8700   54.5960 C.ar  296  HEM296      0.0000
     22  CMB       31.7350   92.0910   55.8750 C.3   296  HEM296      0.0000
     23  CAB       30.3470   89.2930   56.6590 C.3   296  HEM296      0.0000
     24  CBB       31.6120   89.1580   57.3630 C.3   296  HEM296      0.0000
     25  NC        26.7720   89.3380   52.6530 N.2   296  HEM296      0.0000
     26  C1C       27.0380   88.5860   53.7790 C.2   296  HEM296      0.0000
     27  C2C       26.1050   87.4950   53.9130 C.2   296  HEM296      0.0000
     28  C3C       25.2220   87.6310   52.8920 C.2   296  HEM296      0.0000
     29  C4C       25.6720   88.7120   52.0650 C.2   296  HEM296      0.0000
     30  CMC       25.9960   86.5940   55.1450 C.3   296  HEM296      0.0000
     31  CAC       23.9810   86.9340   52.6420 C.3   296  HEM296      0.0000
     32  CBC       23.8130   85.5580   52.8290 C.3   296  HEM296      0.0000
     33  ND        26.5630   91.0940   50.4230 N.ar  296  HEM296      0.0000
     34  C1D       25.6790   90.1110   50.0260 C.ar  296  HEM296      0.0000
     35  C2D       25.2140   90.3730   48.6820 C.ar  296  HEM296      0.0000
     36  C3D       25.9420   91.4180   48.2120 C.ar  296  HEM296      0.0000
     37  C4D       26.8440   91.8080   49.2610 C.ar  296  HEM296      0.0000
     38  CMD       24.2090   89.4900   47.9540 C.3   296  HEM296      0.0000
     39  CAD       25.9370   91.9780   46.7780 C.3   296  HEM296      0.0000
     40  CBD       25.1830   93.2900   46.6660 C.3   296  HEM296      0.0000
     41  CGD       25.0970   93.8540   45.2030 C.2   296  HEM296      0.0000
     42  O1D       24.5910   94.9880   45.2300 O.co2 296  HEM296      0.0000
     43  O2D       25.4890   93.1220   44.3090 O.co2 296  HEM296      0.0000
@<TRIPOS>BOND
     1    43    41   ar
     2    41    42   ar
     3    41    40    1
     4    40    39    1
     5    39    36    1
     6    15    14   ar
     7    16    14   ar
     8    38    35    1
     9    14    13    1
    10    36    35   ar
    11    36    37   ar
    12    35    34   ar
    13    12    13    1
    14    12     8    1
    15     2    37    2
    16     2     7    1
    17    37    33   ar
    18    34    33   ar
    19    34     5    2
    20     8     7    1
    21     8     9    2
    22     7     6    2
    23    33     1    1
    24     5    29    1
    25     9    11    1
    26     9    10    1
    27     6     1    1
    28     6    10    1
    29     1    25    1
    30     1    17    1
    31    29    25    2
    32    29    28    1
    33    10     3    2
    34    31    32    1
    35    31    28    1
    36    25    26    1
    37    28    27    2
    38     3    18    1
    39    17    18   ar
    40    17    21   ar
    41    26    27    1
    42    26     4    2
    43    27    30    1
    44    18    19   ar
    45    21     4    1
    46    21    20   ar
    47    19    20   ar
    48    19    22    1
    49    20    23    1
    50    23    24    1
