@<TRIPOS>MOLECULE
3e2o_HEM_A_1.pdb
 43 50 0 0 0
SMALL
GASTEIGER

@<TRIPOS>ATOM
      1 FE         28.4950   92.1780   52.2940 Fe    296  HEM296      0.0000
      2  CHA       28.2710   94.3610   49.6760 C.2   296  HEM296      0.0000
      3  CHB       30.9310   94.2180   53.7520 C.2   296  HEM296      0.0000
      4  CHC       28.6280   90.1060   55.0030 C.2   296  HEM296      0.0000
      5  CHD       25.7360   90.4880   51.1350 C.2   296  HEM296      0.0000
      6  NA        29.3890   93.9360   51.8390 N.2   296  HEM296      0.0000
      7  C1A       29.1650   94.6780   50.6920 C.2   296  HEM296      0.0000
      8  C2A       30.0580   95.8200   50.6890 C.2   296  HEM296      0.0000
      9  C3A       30.7930   95.7360   51.8120 C.2   296  HEM296      0.0000
     10  C4A       30.3610   94.5830   52.5250 C.2   296  HEM296      0.0000
     11  CMA       31.8460   96.7380   52.2300 C.3   296  HEM296      0.0000
     12  CAA       30.0630   96.8540   49.6000 C.3   296  HEM296      0.0000
     13  CBA       28.9290   97.9050   49.7100 C.3   296  HEM296      0.0000
     14  CGA       29.0460   98.8200   48.5270 C.2   296  HEM296      0.0000
     15  O1A       30.0710   99.5620   48.3860 O.co2 296  HEM296      0.0000
     16  O2A       28.0860   98.8220   47.7160 O.co2 296  HEM296      0.0000
     17  NB        29.5690   92.1560   54.0280 N.ar  296  HEM296      0.0000
     18  C1B       30.6010   93.0070   54.3760 C.ar  296  HEM296      0.0000
     19  C2B       31.1970   92.5410   55.6030 C.ar  296  HEM296      0.0000
     20  C3B       30.6190   91.3710   55.9350 C.ar  296  HEM296      0.0000
     21  C4B       29.5540   91.1340   54.9550 C.ar  296  HEM296      0.0000
     22  CMB       32.3680   93.3020   56.2740 C.3   296  HEM296      0.0000
     23  CAB       30.8430   90.4930   57.0540 C.3   296  HEM296      0.0000
     24  CBB       32.0930   90.3880   57.7170 C.3   296  HEM296      0.0000
     25  NC        27.3830   90.6360   52.9660 N.2   296  HEM296      0.0000
     26  C1C       27.5620   89.9380   54.1290 C.2   296  HEM296      0.0000
     27  C2C       26.6020   88.8870   54.2210 C.2   296  HEM296      0.0000
     28  C3C       25.7330   89.0330   53.1830 C.2   296  HEM296      0.0000
     29  C4C       26.2650   90.1130   52.3700 C.2   296  HEM296      0.0000
     30  CMC       26.4100   88.0110   55.4630 C.3   296  HEM296      0.0000
     31  CAC       24.4950   88.3590   52.9450 C.2   296  HEM296      0.0000
     32  CBC       24.1910   87.0470   53.1730 C.2   296  HEM296      0.0000
     33  ND        27.2200   92.4000   50.7400 N.ar  296  HEM296      0.0000
     34  C1D       26.2650   91.4880   50.3250 C.ar  296  HEM296      0.0000
     35  C2D       25.8160   91.8310   48.9990 C.ar  296  HEM296      0.0000
     36  C3D       26.5450   92.8810   48.5760 C.ar  296  HEM296      0.0000
     37  C4D       27.4310   93.2490   49.6660 C.ar  296  HEM296      0.0000
     38  CMD       24.8170   90.9760   48.2410 C.3   296  HEM296      0.0000
     39  CAD       26.4620   93.5960   47.2300 C.3   296  HEM296      0.0000
     40  CBD       25.5770   94.8280   47.2570 C.3   296  HEM296      0.0000
     41  CGD       25.4500   95.5390   45.8490 C.2   296  HEM296      0.0000
     42  O1D       24.8180   96.6250   45.9150 O.co2 296  HEM296      0.0000
     43  O2D       25.9900   95.0620   44.8750 O.co2 296  HEM296      0.0000
@<TRIPOS>BOND
     1    43    41   ar
     2    41    42   ar
     3    41    40    1
     4    39    40    1
     5    39    36    1
     6    16    14   ar
     7    38    35    1
     8    15    14   ar
     9    14    13    1
    10    36    35   ar
    11    36    37   ar
    12    35    34   ar
    13    12    13    1
    14    12     8    1
    15    37     2    2
    16    37    33   ar
    17     2     7    1
    18    34    33   ar
    19    34     5    2
    20     8     7    1
    21     8     9    2
    22     7     6    2
    23    33     1    1
    24     5    29    1
    25     9    11    1
    26     9    10    1
    27     6     1    1
    28     6    10    1
    29     1    25    1
    30     1    17    1
    31    29    25    2
    32    29    28    1
    33    10     3    2
    34    31    32    2
    35    31    28    1
    36    25    26    1
    37    28    27    2
    38     3    18    1
    39    17    18   ar
    40    17    21   ar
    41    26    27    1
    42    26     4    2
    43    27    30    1
    44    18    19   ar
    45    21     4    1
    46    21    20   ar
    47    19    20   ar
    48    19    22    1
    49    20    23    1
    50    23    24    1
