@<TRIPOS>MOLECULE
3e2r_CIT_A_1.pdb
 13 12 0 0 0
SMALL
GASTEIGER

@<TRIPOS>ATOM
      1  C1        -6.9540   38.8840   34.1520 C.2   2502  CIT2502     0.3680
      2  O1        -7.5430   38.0050   33.4910 O.co2 2502  CIT2502    -0.2455
      3  O2        -6.9460   38.7890   35.3990 O.co2 2502  CIT2502    -0.2455
      4  C2        -6.2550   40.0450   33.4810 C.3   2502  CIT2502     0.1560
      5  C3        -6.8870   40.4420   32.1470 C.3   2502  CIT2502     0.2402
      6  O7        -6.5280   39.4500   31.1500 O.3   2502  CIT2502    -0.2129
      7  C4        -6.3810   41.8110   31.7020 C.3   2502  CIT2502     0.1560
      8  C5        -4.8690   41.8320   31.6900 C.2   2502  CIT2502     0.3680
      9  O3        -4.2310   42.3770   32.6180 O.co2 2502  CIT2502    -0.2455
     10  O4        -4.2350   41.3090   30.7470 O.co2 2502  CIT2502    -0.2455
     11  C6        -8.4030   40.4970   32.2490 C.2   2502  CIT2502     0.3927
     12  O5        -9.0770   39.4470   32.2860 O.co2 2502  CIT2502    -0.2429
     13  O6        -8.9920   41.5990   32.3100 O.co2 2502  CIT2502    -0.2429
@<TRIPOS>BOND
     1    10     8   ar
     2     6     5    1
     3     8     7    1
     4     8     9   ar
     5     7     5    1
     6     5    11    1
     7     5     4    1
     8    11    12   ar
     9    11    13   ar
    10     4     1    1
    11     2     1   ar
    12     1     3   ar
