@<TRIPOS>MOLECULE
3e2t_TRP_A_1.pdb
 15 16 0 0 0
SMALL
GASTEIGER

@<TRIPOS>ATOM
      1  N        -15.2430   33.3660   -3.5930 N.3     3  TRP3       -0.1205
      2  CA       -14.7640   32.2130   -2.7550 C.3     3  TRP3        0.1987
      3  C        -14.3420   32.6940   -1.3970 C.2     3  TRP3        0.3822
      4  O        -14.1910   33.9150   -1.2120 O.co2   3  TRP3       -0.2440
      5  CB       -13.5890   31.5080   -3.4510 C.3     3  TRP3        0.0585
      6  CG       -13.9620   31.1340   -4.8640 C.2     3  TRP3        0.0001
      7  CD1      -13.5970   31.7960   -6.0340 C.2     3  TRP3        0.0942
      8  CD2      -14.7880   29.9910   -5.3000 C.2     3  TRP3        0.0115
      9  NE1      -14.1020   31.1660   -7.1330 N.2     3  TRP3       -0.2482
     10  CE2      -14.8470   30.0870   -6.7580 C.2     3  TRP3        0.0631
     11  CE3      -15.4420   28.9760   -4.5910 C.2     3  TRP3        0.0006
     12  CZ2      -15.5890   29.1110   -7.4380 C.3     3  TRP3        0.0717
     13  CZ3      -16.1680   28.0300   -5.3170 C.2     3  TRP3       -0.0042
     14  CH2      -16.2430   28.1060   -6.7150 C.2     3  TRP3       -0.0198
     15  OXT      -14.1200   31.9100   -0.4550 O.co2   3  TRP3       -0.2440
@<TRIPOS>BOND
     1    12    10    1
     2    12    14    1
     3     9    10    2
     4     9     7    1
     5    10     8    1
     6    14    13    2
     7     7     6    2
     8    13    11    1
     9     8     6    1
    10     8    11    2
    11     6     5    1
    12     1     2    1
    13     5     2    1
    14     2     3    1
    15     3     4   ar
    16     3    15   ar
