@<TRIPOS>MOLECULE
3e2y_GLN_A_1.pdb
 10 9 0 0 0
SMALL
GASTEIGER

@<TRIPOS>ATOM
      1  N         17.7070  -11.1430  -25.8400 N.3   456  GLN456     -0.1208
      2  CA        18.5290  -12.2740  -26.1400 C.3   456  GLN456      0.1948
      3  C         17.6480  -13.0410  -27.0130 C.2   456  GLN456      0.3819
      4  O         16.4620  -13.0160  -26.8000 O.co2 456  GLN456     -0.2441
      5  CB        18.8320  -13.0610  -24.8600 C.3   456  GLN456      0.0403
      6  CG        19.6850  -14.2800  -25.0380 C.3   456  GLN456      0.0906
      7  CD        20.7020  -14.4920  -23.9320 C.2   456  GLN456      0.2608
      8  OE1       21.4420  -13.5890  -23.5790 O.2   456  GLN456     -0.2717
      9  NE2       20.7510  -15.7050  -23.4030 N.am  456  GLN456     -0.0878
     10  OXT       18.1340  -13.3920  -27.9670 O.co2 456  GLN456     -0.2441
@<TRIPOS>BOND
     1    10     3   ar
     2     3     4   ar
     3     3     2    1
     4     2     1    1
     5     2     5    1
     6     6     5    1
     7     6     7    1
     8     7     8    2
     9     7     9   am
