@<TRIPOS>MOLECULE
3e2y_PMP_A_1.pdb
 16 16 0 0 0
SMALL
GASTEIGER

@<TRIPOS>ATOM
      1  N1        12.1510  -12.2600  -21.0890 N.ar  457  PMP457     -0.2452
      2  C2        12.2870  -11.8570  -22.3940 C.ar  457  PMP457      0.0978
      3  C2A       11.0810  -11.7920  -23.2780 C.3   457  PMP457      0.0555
      4  C3        13.5350  -11.5040  -22.8860 C.ar  457  PMP457      0.2063
      5  O3        13.6610  -11.1030  -24.1800 O.3   457  PMP457     -0.2856
      6  C4        14.6430  -11.5640  -22.0530 C.ar  457  PMP457      0.0369
      7  C4A       16.0100  -11.1670  -22.5590 C.3   457  PMP457      0.1386
      8  N4A       16.6680  -12.3030  -23.1520 N.3   457  PMP457     -0.1261
      9  C5        14.4870  -11.9910  -20.7420 C.ar  457  PMP457      0.0275
     10  C6        13.2280  -12.3200  -20.2690 C.ar  457  PMP457      0.0965
     11  C5A       15.6900  -12.1710  -19.8500 C.3   457  PMP457      0.1816
     12  O4P       15.7000  -11.1630  -18.8770 O.3   457  PMP457     -0.2653
     13  P         16.9000  -10.9950  -17.8330 P.3   457  PMP457      0.5329
     14  O1P       18.1640  -10.7150  -18.5710 O.2   457  PMP457     -0.2224
     15  O2P       17.0710  -12.2450  -17.0310 O.3   457  PMP457     -0.1145
     16  O3P       16.5790   -9.8510  -16.9290 O.3   457  PMP457     -0.1145
@<TRIPOS>BOND
     1     5     4    1
     2     3     2    1
     3     8     7    1
     4     4     2   ar
     5     4     6   ar
     6     7     6    1
     7     2     1   ar
     8     6     9   ar
     9     1    10   ar
    10     9    10   ar
    11     9    11    1
    12    11    12    1
    13    12    13    1
    14    14    13    2
    15    13    15    1
    16    13    16    1
