@<TRIPOS>MOLECULE
3e2z_PMP_B_1.pdb
 16 16 0 0 0
SMALL
GASTEIGER

@<TRIPOS>ATOM
      1  N1        18.7680  -23.3980    3.3780 N.ar  456  PMP456     -0.2452
      2  C2        18.4020  -23.7980    4.6580 C.ar  456  PMP456      0.0978
      3  C2A       17.8540  -22.7050    5.5480 C.3   456  PMP456      0.0555
      4  C3        18.5320  -25.1780    5.0340 C.ar  456  PMP456      0.2063
      5  O3        18.1330  -25.6310    6.2810 O.3   456  PMP456     -0.2856
      6  C4        19.0870  -26.0830    4.1060 C.ar  456  PMP456      0.0369
      7  C4A       19.5220  -27.4550    4.6290 C.3   456  PMP456      0.1386
      8  N4A       18.4360  -28.0700    5.3500 N.3   456  PMP456     -0.1261
      9  C5        19.3940  -25.6400    2.7710 C.ar  456  PMP456      0.0275
     10  C6        19.2400  -24.2900    2.4650 C.ar  456  PMP456      0.0965
     11  C5A       19.9550  -26.4670    1.5790 C.3   456  PMP456      0.1816
     12  O4P       19.5430  -27.8170    1.4660 O.3   456  PMP456     -0.2653
     13  P         19.3450  -28.4980    0.0400 P.3   456  PMP456      0.5329
     14  O1P       19.7020  -29.9390    0.2660 O.3   456  PMP456     -0.1145
     15  O2P       17.9390  -28.1870   -0.4760 O.3   456  PMP456     -0.1145
     16  O3P       20.4470  -27.9190   -0.8450 O.2   456  PMP456     -0.2224
@<TRIPOS>BOND
     1    16    13    2
     2    15    13    1
     3    13    14    1
     4    13    12    1
     5    12    11    1
     6    11     9    1
     7    10     9   ar
     8    10     1   ar
     9     9     6   ar
    10     1     2   ar
    11     6     7    1
    12     6     4   ar
    13     7     8    1
    14     2     4   ar
    15     2     3    1
    16     4     5    1
