@<TRIPOS>MOLECULE
3e2z_KYN_A_1.pdb
 15 15 0 0 0
SMALL
GASTEIGER

@<TRIPOS>ATOM
      1  C         27.8720  -32.9530  -26.7260 C.2   456  KYN456      0.3823
      2  N         27.3690  -34.4850  -25.0630 N.3   456  KYN456     -0.1203
      3  OXT       29.0380  -32.8340  -26.4080 O.co2 456  KYN456     -0.2440
      4  C1        25.2700  -32.4000  -24.0400 C.2   456  KYN456      0.1764
      5  N1        26.1570  -29.8560  -24.4280 N.pl3 456  KYN456     -0.1280
      6  O2        24.8150  -33.5150  -23.8640 O.2   456  KYN456     -0.2912
      7  CA        26.8330  -33.3430  -25.7580 C.3   456  KYN456      0.2020
      8  CB        26.5510  -32.1760  -24.8180 C.3   456  KYN456      0.0997
      9  CG        25.0390  -29.9860  -23.6780 C.ar  456  KYN456      0.0918
     10  CZ        22.7540  -30.3280  -22.1530 C.ar  456  KYN456      0.0002
     11  CD1       24.3940  -28.8830  -23.1400 C.ar  456  KYN456      0.0181
     12  CD2       24.5490  -31.2410  -23.4550 C.ar  456  KYN456      0.0515
     13  CE1       23.2490  -29.0540  -22.3760 C.ar  456  KYN456      0.0014
     14  CE2       23.4090  -31.4260  -22.6950 C.ar  456  KYN456      0.0042
     15  O         27.5330  -32.8470  -27.9090 O.co2 456  KYN456     -0.2440
@<TRIPOS>BOND
     1    15     1   ar
     2     1     3   ar
     3     1     7    1
     4     7     2    1
     5     7     8    1
     6     8     4    1
     7     5     9    1
     8     4     6    2
     9     4    12    1
    10     9    12   ar
    11     9    11   ar
    12    12    14   ar
    13    11    13   ar
    14    14    10   ar
    15    13    10   ar
