@<TRIPOS>MOLECULE
3e30_FPP_B_1.pdb
 24 23 0 0 0
SMALL
GASTEIGER

@<TRIPOS>ATOM
      1  C1       -63.4190  -24.8750    0.7640 C.3   1002  FPP1002     0.1747
      2  O1       -63.4520  -23.4900    1.1560 O.3   1002  FPP1002    -0.3089
      3  C2       -64.6750  -25.4620    0.5820 C.2   1002  FPP1002    -0.0024
      4  C3       -65.3900  -25.5140   -0.6120 C.2   1002  FPP1002    -0.0454
      5  C4       -64.8090  -24.8120   -1.8520 C.3   1002  FPP1002     0.0261
      6  C5       -66.7570  -26.2130   -0.7500 C.3   1002  FPP1002     0.0264
      7  C6       -67.3550  -26.7480    0.5620 C.3   1002  FPP1002     0.0297
      8  C7       -68.5900  -27.3640    0.3240 C.2   1002  FPP1002    -0.0342
      9  C8       -69.6660  -27.4730    1.2060 C.2   1002  FPP1002    -0.0478
     10  C10      -69.5510  -26.9270    2.6330 C.3   1002  FPP1002     0.0260
     11  C9       -70.9520  -28.1940    0.7670 C.3   1002  FPP1002     0.0263
     12  C11      -72.1910  -27.3120    0.8870 C.3   1002  FPP1002     0.0297
     13  C12      -73.3580  -28.0490    0.6910 C.2   1002  FPP1002    -0.0342
     14  C13      -74.4210  -27.7670   -0.1670 C.2   1002  FPP1002    -0.0478
     15  C14      -75.6180  -28.6980   -0.2180 C.3   1002  FPP1002     0.0260
     16  C15      -74.4260  -26.5470   -1.0810 C.3   1002  FPP1002     0.0260
     17  PA       -62.2450  -22.8890    2.0830 P.3   1002  FPP1002     0.2233
     18  O1A      -60.8610  -23.3620    1.4390 O.2   1002  FPP1002    -0.5169
     19  O2A      -62.3040  -21.4200    2.1930 O.3   1002  FPP1002    -0.4370
     20  O3A      -62.5110  -23.6590    3.4280 O.3   1002  FPP1002    -0.2261
     21  PB       -61.5300  -24.6530    4.2200 P.3   1002  FPP1002     0.5373
     22  O1B      -61.3490  -25.9300    3.2660 O.2   1002  FPP1002    -0.2221
     23  O2B      -60.0680  -24.0150    4.2450 O.3   1002  FPP1002    -0.1143
     24  O3B      -62.1260  -24.9280    5.5500 O.3   1002  FPP1002    -0.1143
@<TRIPOS>BOND
     1     5     4    1
     2    16    14    1
     3     6     4    1
     4     6     7    1
     5     4     3    2
     6    15    14    1
     7    14    13    2
     8     8     7    1
     9     8     9    2
    10     3     1    1
    11    13    12    1
    12     1     2    1
    13    11    12    1
    14    11     9    1
    15     2    17    1
    16     9    10    1
    17    18    17    2
    18    17    19    1
    19    17    20    1
    20    22    21    2
    21    20    21    1
    22    21    23    1
    23    21    24    1
