@<TRIPOS>MOLECULE
3e30_ED4_B_1.pdb
 42 45 0 0 0
SMALL
GASTEIGER

@<TRIPOS>ATOM
      1  NAF      -74.4690  -15.7210    5.8070 N.1   1003  ED41003    -0.1908
      2  CAJ      -73.5450  -16.2220    5.2860 C.1   1003  ED41003     0.1004
      3  CBE      -72.5180  -16.8200    4.7670 C.ar  1003  ED41003     0.0685
      4  CAK      -71.2370  -16.6670    5.3190 C.ar  1003  ED41003     0.0115
      5  CAM      -70.1360  -17.3290    4.7650 C.ar  1003  ED41003     0.0152
      6  CAL      -72.6820  -17.6480    3.6570 C.ar  1003  ED41003     0.0115
      7  CAN      -71.5770  -18.3030    3.0990 C.ar  1003  ED41003     0.0152
      8  CBF      -70.2980  -18.1610    3.6540 C.ar  1003  ED41003     0.0482
      9  NBK      -69.1800  -18.8150    3.0770 N.pl3 1003  ED41003    -0.3009
     10  CAY      -68.0160  -18.6290    3.5490 C.3   1003  ED41003     0.1368
     11  CBG      -67.4860  -19.3810    4.7210 C.ar  1003  ED41003     0.0778
     12  NBN      -66.2630  -19.1930    5.2320 N.ar  1003  ED41003    -0.3089
     13  CAB      -65.1960  -18.2450    4.7820 C.3   1003  ED41003     0.1318
     14  CAP      -66.1990  -20.0600    6.2690 C.ar  1003  ED41003     0.1784
     15  NBA      -67.3730  -20.7440    6.3650 N.ar  1003  ED41003    -0.2226
     16  CAO      -68.2230  -20.3350    5.3900 C.ar  1003  ED41003     0.1150
     17  CAW      -69.3190  -19.6400    1.8750 C.3   1003  ED41003     0.1102
     18  CAX      -70.0420  -20.9270    2.2460 C.3   1003  ED41003     0.1172
     19  NBL      -70.3750  -21.7240    1.0450 N.3   1003  ED41003    -0.1527
     20  SBP      -69.3180  -22.9460    0.8120 S.O2  1003  ED41003     0.0771
     21  CBH      -68.3810  -23.1650    2.1540 C.2   1003  ED41003     0.1931
     22  NBB      -68.8410  -23.7690    3.2600 N.2   1003  ED41003    -0.2362
     23  CAQ      -67.7910  -23.7350    4.1110 C.3   1003  ED41003     0.2025
     24  NBM      -66.7430  -23.1310    3.5150 N.3   1003  ED41003    -0.2443
     25  CAA      -65.4340  -22.9220    4.1790 C.3   1003  ED41003     0.0916
     26  CAR      -67.0760  -22.7470    2.2630 C.3   1003  ED41003     0.1408
     27  OAI      -68.4550  -22.5800   -0.3480 O.2   1003  ED41003    -0.1516
     28  OAH      -70.0710  -24.1920    0.5260 O.2   1003  ED41003    -0.1516
     29  CAZ      -71.7450  -22.2370    1.2240 C.3   1003  ED41003     0.0960
     30  CBI      -72.6810  -21.8680    0.0730 C.3   1003  ED41003     0.0212
     31  CAT      -72.0190  -21.0100   -1.0050 C.3   1003  ED41003     0.0231
     32  CAV      -72.6530  -21.1360   -2.4070 C.3   1003  ED41003     0.0968
     33  CAS      -73.1390  -23.1700   -0.5510 C.3   1003  ED41003     0.0231
     34  CAU      -74.2820  -22.9050   -1.5170 C.3   1003  ED41003     0.0968
     35  NBJ      -73.9880  -21.7580   -2.3840 N.am  1003  ED41003    -0.2460
     36  CBD      -74.9830  -21.3380   -3.1680 C.2   1003  ED41003     0.4046
     37  OAG      -75.9520  -22.0450   -3.3640 O.2   1003  ED41003    -0.2262
     38  OBC      -74.9800  -20.0280   -3.7980 O.3   1003  ED41003    -0.4418
     39  CBO      -74.9460  -19.8700   -5.2190 C.3   1003  ED41003     0.1378
     40  CAE      -75.3770  -18.4550   -5.5370 C.3   1003  ED41003     0.0437
     41  CAD      -75.9090  -20.8130   -5.9330 C.3   1003  ED41003     0.0437
     42  CAC      -73.5060  -20.1230   -5.6420 C.3   1003  ED41003     0.0437
@<TRIPOS>BOND
     1    41    39    1
     2    42    39    1
     3    40    39    1
     4    39    38    1
     5    38    36    1
     6    37    36    2
     7    36    35   am
     8    32    35    1
     9    32    31    1
    10    35    34    1
    11    34    33    1
    12    31    30    1
    13    33    30    1
    14    27    20    2
    15    30    29    1
    16    28    20    2
    17    20    19    1
    18    20    21    1
    19    19    29    1
    20    19    18    1
    21    17    18    1
    22    17     9    1
    23    21    26    1
    24    21    22    2
    25    26    24    1
    26     9    10    1
    27     9     8    1
    28     7     8   ar
    29     7     6   ar
    30    22    23    1
    31    24    23    1
    32    24    25    1
    33    10    11    1
    34     8     5   ar
    35     6     3   ar
    36    11    12   ar
    37    11    16   ar
    38     5     4   ar
    39     3     2    1
    40     3     4   ar
    41    13    12    1
    42    12    14   ar
    43     2     1    3
    44    16    15   ar
    45    14    15   ar
