@<TRIPOS>MOLECULE
3e32_FPP_B_1.pdb
 24 23 0 0 0
SMALL
GASTEIGER

@<TRIPOS>ATOM
      1  C1        53.3310  -42.3140    1.6310 C.3   1002  FPP1002     0.1747
      2  O1        52.2430  -43.1090    2.1230 O.3   1002  FPP1002    -0.3089
      3  C2        54.5350  -43.0100    1.4790 C.2   1002  FPP1002    -0.0024
      4  C3        54.8950  -43.9010    0.4650 C.2   1002  FPP1002    -0.0454
      5  C4        53.8850  -44.2360   -0.6460 C.3   1002  FPP1002     0.0261
      6  C5        56.3030  -44.5300    0.3980 C.3   1002  FPP1002     0.0264
      7  C6        56.7690  -45.2470    1.6740 C.3   1002  FPP1002     0.0297
      8  C7        57.9440  -45.9630    1.4330 C.2   1002  FPP1002    -0.0342
      9  C8        58.6590  -46.7000    2.3710 C.2   1002  FPP1002    -0.0478
     10  C10       58.1660  -46.7450    3.8180 C.3   1002  FPP1002     0.0260
     11  C9        59.9430  -47.4440    1.9730 C.3   1002  FPP1002     0.0263
     12  C11       59.7380  -48.9600    1.9260 C.3   1002  FPP1002     0.0297
     13  C12       60.9350  -49.6290    1.6870 C.2   1002  FPP1002    -0.0342
     14  C13       61.1390  -50.7040    0.8230 C.2   1002  FPP1002    -0.0478
     15  C14       62.5260  -51.3250    0.6990 C.3   1002  FPP1002     0.0260
     16  C15       59.9900  -51.2750   -0.0110 C.3   1002  FPP1002     0.0260
     17  PA        51.1070  -42.4370    3.0840 P.3   1002  FPP1002     0.2233
     18  O1A       50.8210  -40.9840    2.4600 O.2   1002  FPP1002    -0.5169
     19  O2A       49.8600  -43.2320    3.1510 O.3   1002  FPP1002    -0.4370
     20  O3A       51.8100  -42.3030    4.5190 O.3   1002  FPP1002    -0.2261
     21  PB        52.2830  -40.9010    5.1430 P.3   1002  FPP1002     0.5373
     22  O1B       50.9410  -40.0370    5.3420 O.3   1002  FPP1002    -0.1143
     23  O2B       52.7920  -41.2880    6.6220 O.3   1002  FPP1002    -0.1143
     24  O3B       53.3000  -40.2100    4.3180 O.2   1002  FPP1002    -0.2221
@<TRIPOS>BOND
     1     5     4    1
     2    16    14    1
     3     6     4    1
     4     6     7    1
     5     4     3    2
     6    15    14    1
     7    14    13    2
     8     8     7    1
     9     8     9    2
    10     3     1    1
    11     1     2    1
    12    13    12    1
    13    12    11    1
    14    11     9    1
    15     2    17    1
    16     9    10    1
    17    18    17    2
    18    17    19    1
    19    17    20    1
    20    24    21    2
    21    20    21    1
    22    21    22    1
    23    21    23    1
