@<TRIPOS>MOLECULE
3e32_ED2_B_1.pdb
 35 38 0 0 0
SMALL
GASTEIGER

@<TRIPOS>ATOM
      1  CAB       49.0670  -47.4450    5.8640 C.3   1003  ED21003     0.1318
      2  NBH       50.3430  -47.8910    6.2090 N.ar  1003  ED21003    -0.3089
      3  CAQ       50.9830  -47.4680    7.2370 C.ar  1003  ED21003     0.1784
      4  NAX       52.1320  -48.0560    7.3130 N.ar  1003  ED21003    -0.2226
      5  CAP       52.1480  -48.8420    6.2520 C.ar  1003  ED21003     0.1150
      6  CBC       51.0240  -48.7700    5.5850 C.ar  1003  ED21003     0.0778
      7  CAW       50.5640  -49.5000    4.2990 C.3   1003  ED21003     0.1368
      8  NBE       51.3830  -50.6020    3.8430 N.pl3 1003  ED21003    -0.3009
      9  CBB       51.2950  -51.7510    4.4300 C.ar  1003  ED21003     0.0482
     10  CAN       51.9070  -52.8290    3.8570 C.ar  1003  ED21003     0.0152
     11  CAL       51.8740  -54.0650    4.4250 C.ar  1003  ED21003     0.0115
     12  CAZ       51.1920  -54.2330    5.5830 C.ar  1003  ED21003     0.0685
     13  CAF       51.1120  -55.4980    6.2060 C.1   1003  ED21003     0.1004
     14  NAC       51.0320  -56.4890    6.7320 N.1   1003  ED21003    -0.1908
     15  CAM       50.5690  -53.1560    6.1460 C.ar  1003  ED21003     0.0115
     16  CAO       50.6130  -51.9150    5.5880 C.ar  1003  ED21003     0.0152
     17  CAT       52.2090  -50.5520    2.6320 C.3   1003  ED21003     0.1103
     18  CAU       53.4060  -49.6790    2.7490 C.3   1003  ED21003     0.1176
     19  NBF       54.5810  -50.1080    2.0550 N.3   1003  ED21003    -0.1482
     20  SBI       55.4740  -48.9260    2.0420 S.O2  1003  ED21003     0.0774
     21  OAD       56.5610  -49.3680    2.7520 O.2   1003  ED21003    -0.1516
     22  OAE       55.9320  -48.6020    0.7620 O.2   1003  ED21003    -0.1516
     23  CBD       54.5860  -47.7250    2.7630 C.2   1003  ED21003     0.1931
     24  CAS       53.4760  -47.3930    2.2330 C.3   1003  ED21003     0.1408
     25  NBG       53.0050  -46.5080    3.0160 N.3   1003  ED21003    -0.2443
     26  CAA       51.8200  -45.9470    2.7130 C.3   1003  ED21003     0.0916
     27  CAR       53.7340  -46.2880    4.0670 C.3   1003  ED21003     0.2025
     28  NAY       54.7340  -47.0970    3.8990 N.2   1003  ED21003    -0.2362
     29  CAV       54.7520  -50.8880    0.9950 C.3   1003  ED21003     0.1222
     30  CBA       54.7890  -52.1150    0.8180 C.ar  1003  ED21003    -0.0045
     31  CAJ       56.0090  -52.5840    1.2290 C.ar  1003  ED21003    -0.0029
     32  CAH       56.2330  -53.9340    1.2660 C.ar  1003  ED21003    -0.0003
     33  CAG       55.2410  -54.8050    0.8950 C.ar  1003  ED21003    -0.0000
     34  CAI       54.0350  -54.3560    0.4870 C.ar  1003  ED21003    -0.0003
     35  CAK       53.8130  -53.0050    0.4530 C.ar  1003  ED21003    -0.0029
@<TRIPOS>BOND
     1    35    34   ar
     2    35    30   ar
     3    34    33   ar
     4    22    20    2
     5    30    29    1
     6    30    31   ar
     7    33    32   ar
     8    29    19    1
     9    31    32   ar
    10    20    19    1
    11    20    21    2
    12    20    23    1
    13    19    18    1
    14    24    23    1
    15    24    25    1
    16    17    18    1
    17    17     8    1
    18    26    25    1
    19    23    28    2
    20    25    27    1
    21     8     7    1
    22     8     9    1
    23    10    11   ar
    24    10     9   ar
    25    28    27    1
    26     7     6    1
    27    11    12   ar
    28     9    16   ar
    29    12    15   ar
    30    12    13    1
    31     6     2   ar
    32     6     5   ar
    33    16    15   ar
    34     1     2    1
    35    13    14    3
    36     2     3   ar
    37     5     4   ar
    38     3     4   ar
