@<TRIPOS>MOLECULE
3e33_FPP_B_1.pdb
 24 23 0 0 0
SMALL
GASTEIGER

@<TRIPOS>ATOM
      1  C1       -62.4920  -24.3840   -0.0570 C.3   1002  FPP1002     0.1747
      2  O1       -62.6390  -23.1850    0.7180 O.3   1002  FPP1002    -0.3089
      3  C2       -63.7290  -25.2810   -0.1340 C.2   1002  FPP1002    -0.0024
      4  C3       -64.7360  -25.1770   -1.0330 C.2   1002  FPP1002    -0.0454
      5  C4       -64.7120  -24.0750   -2.0660 C.3   1002  FPP1002     0.0261
      6  C5       -65.9170  -26.1370   -1.0500 C.3   1002  FPP1002     0.0264
      7  C6       -66.7140  -26.2560    0.2430 C.3   1002  FPP1002     0.0297
      8  C7       -68.0370  -26.9330   -0.0500 C.2   1002  FPP1002    -0.0342
      9  C8       -69.0080  -27.0550    0.8760 C.2   1002  FPP1002    -0.0478
     10  C10      -68.7890  -26.5320    2.2650 C.3   1002  FPP1002     0.0260
     11  C9       -70.3020  -27.7650    0.5260 C.3   1002  FPP1002     0.0263
     12  C11      -71.4640  -26.8390    0.2380 C.3   1002  FPP1002     0.0297
     13  C12      -72.7340  -27.6490    0.2520 C.2   1002  FPP1002    -0.0342
     14  C13      -73.7420  -27.3820   -0.5870 C.2   1002  FPP1002    -0.0478
     15  C14      -73.6440  -26.2590   -1.5690 C.3   1002  FPP1002     0.0260
     16  C15      -74.9880  -28.2150   -0.5380 C.3   1002  FPP1002     0.0260
     17  PA       -61.4280  -22.5330    1.5750 P.3   1002  FPP1002     0.2233
     18  O1A      -59.9980  -22.8760    1.0020 O.2   1002  FPP1002    -0.5169
     19  O2A      -61.6310  -20.7690    1.7640 O.3   1002  FPP1002    -0.4370
     20  O3A      -61.6450  -23.1770    3.0230 O.3   1002  FPP1002    -0.2261
     21  PB       -60.6400  -24.2440    3.7180 P.3   1002  FPP1002     0.5373
     22  O1B      -59.2290  -23.6350    4.0450 O.3   1002  FPP1002    -0.1143
     23  O2B      -60.5570  -25.6480    2.6870 O.2   1002  FPP1002    -0.2221
     24  O3B      -61.4820  -24.5730    5.1990 O.3   1002  FPP1002    -0.1143
@<TRIPOS>BOND
     1     5     4    1
     2    15    14    1
     3     6     4    1
     4     6     7    1
     5     4     3    2
     6    14    16    1
     7    14    13    2
     8     3     1    1
     9     1     2    1
    10     8     7    1
    11     8     9    2
    12    12    13    1
    13    12    11    1
    14    11     9    1
    15     2    17    1
    16     9    10    1
    17    18    17    2
    18    17    19    1
    19    17    20    1
    20    23    21    2
    21    20    21    1
    22    21    22    1
    23    21    24    1
