@<TRIPOS>MOLECULE
3e33_ED7_B_1.pdb
 36 39 0 0 0
SMALL
GASTEIGER

@<TRIPOS>ATOM
      1  CAA      -71.8850  -23.2640    0.7900 C.3   1003  ED71003     0.0324
      2  CBA      -72.3910  -21.9580    0.1560 C.ar  1003  ED71003    -0.0032
      3  CAL      -73.7140  -21.5610    0.3360 C.ar  1003  ED71003    -0.0029
      4  CAJ      -74.1680  -20.3720   -0.2320 C.ar  1003  ED71003    -0.0002
      5  CAK      -73.3150  -19.5660   -0.9800 C.ar  1003  ED71003     0.0013
      6  CAQ      -71.9930  -19.9620   -1.1580 C.ar  1003  ED71003     0.0196
      7  CBF      -71.5370  -21.1490   -0.5850 C.ar  1003  ED71003     0.1182
      8  SBJ      -69.8820  -21.6130   -0.8410 S.O2  1003  ED71003     0.0633
      9  OAD      -69.2400  -20.5650   -1.7030 O.2   1003  ED71003    -0.1528
     10  OAE      -69.8620  -22.9270   -1.5850 O.2   1003  ED71003    -0.1528
     11  NBH      -69.0560  -21.8160    0.5950 N.3   1003  ED71003    -0.1493
     12  CAX      -67.6240  -22.0310    0.2670 C.3   1003  ED71003     0.1221
     13  CBC      -66.8660  -22.4000    1.5280 C.ar  1003  ED71003    -0.0045
     14  CAM      -65.6380  -21.8070    1.7900 C.ar  1003  ED71003    -0.0029
     15  CAH      -64.9590  -22.1460    2.9520 C.ar  1003  ED71003    -0.0003
     16  CAG      -65.4960  -23.0610    3.8520 C.ar  1003  ED71003    -0.0000
     17  CAI      -66.7290  -23.6460    3.5820 C.ar  1003  ED71003    -0.0003
     18  CAN      -67.4150  -23.3140    2.4210 C.ar  1003  ED71003    -0.0029
     19  CAW      -69.2990  -20.8140    1.6840 C.3   1003  ED71003     0.1175
     20  CAV      -68.6870  -19.4580    1.3820 C.3   1003  ED71003     0.1103
     21  NBG      -68.5550  -18.6590    2.6230 N.pl3 1003  ED71003    -0.3009
     22  CBD      -69.6090  -18.0400    3.2070 C.ar  1003  ED71003     0.0482
     23  CAR      -69.3890  -17.2140    4.3070 C.ar  1003  ED71003     0.0152
     24  CAO      -70.4540  -16.5450    4.9210 C.ar  1003  ED71003     0.0115
     25  CBB      -71.7390  -16.6760    4.4040 C.ar  1003  ED71003     0.0685
     26  CAF      -72.8330  -16.0060    5.0230 C.1   1003  ED71003     0.1004
     27  NAC      -73.7350  -15.4980    5.4930 N.1   1003  ED71003    -0.1908
     28  CAP      -71.9690  -17.4840    3.2980 C.ar  1003  ED71003     0.0115
     29  CAS      -70.9070  -18.1650    2.6960 C.ar  1003  ED71003     0.0152
     30  CAY      -67.2010  -18.3390    3.0720 C.3   1003  ED71003     0.1368
     31  CBE      -66.7300  -19.1700    4.2720 C.ar  1003  ED71003     0.0778
     32  CAT      -67.4000  -20.0740    4.9940 C.ar  1003  ED71003     0.1150
     33  NAZ      -66.5620  -20.5310    5.9440 N.ar  1003  ED71003    -0.2226
     34  CAU      -65.3920  -19.9050    5.8210 C.ar  1003  ED71003     0.1784
     35  NBI      -65.5120  -19.0690    4.7990 N.ar  1003  ED71003    -0.3089
     36  CAB      -64.4440  -18.1420    4.2860 C.3   1003  ED71003     0.1318
@<TRIPOS>BOND
     1     9     8    2
     2    10     8    2
     3     6     5   ar
     4     6     7   ar
     5     5     4   ar
     6     8     7    1
     7     8    11    1
     8     7     2   ar
     9     4     3   ar
    10     2     3   ar
    11     2     1    1
    12    12    11    1
    13    12    13    1
    14    11    19    1
    15    20    19    1
    16    20    21    1
    17    13    14   ar
    18    13    18   ar
    19    14    15   ar
    20    18    17   ar
    21    21    30    1
    22    21    22    1
    23    29    22   ar
    24    29    28   ar
    25    15    16   ar
    26    30    31    1
    27    22    23   ar
    28    28    25   ar
    29    17    16   ar
    30    31    35   ar
    31    31    32   ar
    32    36    35    1
    33    23    24   ar
    34    25    24   ar
    35    25    26    1
    36    35    34   ar
    37    32    33   ar
    38    26    27    3
    39    34    33   ar
