@<TRIPOS>MOLECULE
3e34_FPP_B_1.pdb
 24 23 0 0 0
SMALL
GASTEIGER

@<TRIPOS>ATOM
      1  C1       108.1030   24.3190   33.4380 C.3   1002  FPP1002     0.1747
      2  O1       108.0460   23.1110   32.6470 O.3   1002  FPP1002    -0.3089
      3  C2       106.7820   25.0860   33.4350 C.2   1002  FPP1002    -0.0024
      4  C3       105.9530   25.1750   34.4990 C.2   1002  FPP1002    -0.0454
      5  C4       106.3060   24.4900   35.7940 C.3   1002  FPP1002     0.0261
      6  C5       104.6480   25.9570   34.4470 C.3   1002  FPP1002     0.0264
      7  C6       103.9790   25.9660   33.0730 C.3   1002  FPP1002     0.0297
      8  C7       102.5740   26.5450   33.1160 C.2   1002  FPP1002    -0.0342
      9  C8       101.7990   26.5690   32.0050 C.2   1002  FPP1002    -0.0478
     10  C10      102.3340   26.0430   30.7070 C.3   1002  FPP1002     0.0260
     11  C9       100.3970   27.1480   31.9830 C.3   1002  FPP1002     0.0263
     12  C11       99.7420   27.2190   33.3500 C.3   1002  FPP1002     0.0297
     13  C12       98.3890   27.8870   33.1940 C.2   1002  FPP1002    -0.0342
     14  C13       97.2550   27.4640   33.7990 C.2   1002  FPP1002    -0.0478
     15  C14       97.2180   26.2600   34.6900 C.3   1002  FPP1002     0.0260
     16  C15       95.9740   28.2120   33.5730 C.3   1002  FPP1002     0.0260
     17  PA       109.3330   22.5310   31.8340 P.3   1002  FPP1002     0.2233
     18  O1A      110.6310   23.2930   32.3290 O.3   1002  FPP1002    -0.4370
     19  O2A      109.6230   20.7850   31.9520 O.2   1002  FPP1002    -0.5169
     20  O3A      109.0010   22.8570   30.2980 O.3   1002  FPP1002    -0.2261
     21  PB       109.8740   23.9630   29.5210 P.3   1002  FPP1002     0.5373
     22  O1B      111.2970   23.3820   29.1990 O.3   1002  FPP1002    -0.1143
     23  O2B      110.0140   25.3370   30.6190 O.3   1002  FPP1002    -0.1143
     24  O3B      109.0030   24.2970   28.0240 O.2   1002  FPP1002    -0.2221
@<TRIPOS>BOND
     1    24    21    2
     2    22    21    1
     3    21    20    1
     4    21    23    1
     5    20    17    1
     6    10     9    1
     7    17    19    2
     8    17    18    1
     9    17     2    1
    10    11     9    1
    11    11    12    1
    12     9     8    2
    13     2     1    1
    14     7     8    1
    15     7     6    1
    16    13    12    1
    17    13    14    2
    18     3     1    1
    19     3     4    2
    20    16    14    1
    21    14    15    1
    22     6     4    1
    23     4     5    1
