@<TRIPOS>MOLECULE
3e37_ED5_B_1.pdb
 43 46 0 0 0
SMALL
GASTEIGER

@<TRIPOS>ATOM
      1  OAG       17.0440  -77.3730    8.6050 O.2     1  ED51       -0.2262
      2  CBE       16.7930  -77.3680    7.4020 C.2     1  ED51        0.4046
      3  OBD       15.7560  -78.2360    6.9230 O.3     1  ED51       -0.4418
      4  CBP       14.8910  -78.9940    7.7630 C.3     1  ED51        0.1378
      5  CAC       15.6230  -80.0750    8.5430 C.3     1  ED51        0.0437
      6  CAD       14.2790  -78.0370    8.7600 C.3     1  ED51        0.0437
      7  CAE       13.8700  -79.6580    6.8510 C.3     1  ED51        0.0437
      8  NBL       17.4020  -76.6650    6.5400 N.am    1  ED51       -0.2460
      9  CAX       18.4950  -75.7700    6.8760 C.3     1  ED51        0.0968
     10  CAV       17.9820  -74.3610    6.6500 C.3     1  ED51        0.0231
     11  CAW       17.0520  -76.6730    5.1200 C.3     1  ED51        0.0968
     12  CAU       16.4070  -75.2970    4.9070 C.3     1  ED51        0.0231
     13  CBK       17.3590  -74.1500    5.2770 C.3     1  ED51        0.0212
     14  CBB       16.6010  -72.8410    5.4660 C.3     1  ED51        0.0959
     15  NBN       16.3410  -72.0010    4.2810 N.3     1  ED51       -0.1538
     16  SBQ       14.7260  -71.7450    4.0960 S.O2    1  ED51        0.0630
     17  OAI       14.3880  -71.4650    2.6720 O.2     1  ED51       -0.1528
     18  OAH       14.4850  -70.5320    4.9220 O.2     1  ED51       -0.1528
     19  CBJ       13.7710  -72.9140    4.6940 C.ar    1  ED51        0.1182
     20  CAN       13.3070  -72.7860    6.0050 C.ar    1  ED51        0.0196
     21  CAL       12.4980  -73.7600    6.5800 C.ar    1  ED51        0.0013
     22  CAK       12.1330  -74.8800    5.8470 C.ar    1  ED51       -0.0002
     23  CAM       12.5820  -75.0100    4.5390 C.ar    1  ED51       -0.0029
     24  CBF       13.3790  -74.0300    3.9620 C.ar    1  ED51       -0.0032
     25  CAA       13.8310  -74.2130    2.5450 C.3     1  ED51        0.0324
     26  CAZ       17.1660  -72.2250    3.0520 C.3     1  ED51        0.1172
     27  CAY       18.2370  -71.1160    2.9750 C.3     1  ED51        0.1102
     28  NBM       18.7890  -71.0490    1.6040 N.pl3   1  ED51       -0.3009
     29  CBH       20.0570  -71.6280    1.3800 C.ar    1  ED51        0.0482
     30  CAQ       20.7670  -71.3190    0.2180 C.ar    1  ED51        0.0152
     31  CAO       21.9950  -71.9240   -0.0390 C.ar    1  ED51        0.0115
     32  CAR       20.5650  -72.5820    2.2640 C.ar    1  ED51        0.0152
     33  CAP       21.7930  -73.1800    2.0090 C.ar    1  ED51        0.0115
     34  CBG       22.5110  -72.8530    0.8660 C.ar    1  ED51        0.0685
     35  CAJ       23.6390  -73.4400    0.6460 C.1     1  ED51        0.1004
     36  NAF       24.6380  -74.0110    0.4590 N.1     1  ED51       -0.1908
     37  CBA       18.5240  -69.8630    0.8450 C.3     1  ED51        0.1368
     38  CBI       17.7780  -70.1310   -0.4260 C.ar    1  ED51        0.0778
     39  CAS       17.4070  -71.4150   -0.7860 C.ar    1  ED51        0.1150
     40  NBC       16.7770  -71.2240   -1.9710 N.ar    1  ED51       -0.2226
     41  CAT       16.7670  -69.8960   -2.2880 C.ar    1  ED51        0.1784
     42  NBO       17.3980  -69.2110   -1.3190 N.ar    1  ED51       -0.3089
     43  CAB       17.6120  -67.7410   -1.2710 C.3     1  ED51        0.1318
@<TRIPOS>BOND
     1    41    40   ar
     2    41    42   ar
     3    40    39   ar
     4    42    43    1
     5    42    38   ar
     6    39    38   ar
     7    38    37    1
     8    31    30   ar
     9    31    34   ar
    10    30    29   ar
    11    36    35    3
    12    35    34    1
    13    37    28    1
    14    34    33   ar
    15    29    28    1
    16    29    32   ar
    17    28    27    1
    18    33    32   ar
    19    25    24    1
    20    17    16    2
    21    27    26    1
    22    26    15    1
    23    24    23   ar
    24    24    19   ar
    25    16    15    1
    26    16    19    1
    27    16    18    2
    28    15    14    1
    29    23    22   ar
    30    19    20   ar
    31    12    11    1
    32    12    13    1
    33    11     8    1
    34    13    14    1
    35    13    10    1
    36    22    21   ar
    37    20    21   ar
    38     8     9    1
    39     8     2   am
    40    10     9    1
    41     7     4    1
    42     3     2    1
    43     3     4    1
    44     2     1    2
    45     4     5    1
    46     4     6    1
