@<TRIPOS>MOLECULE
3e39_FMN_A_1.pdb
 31 33 0 0 0
SMALL
GASTEIGER

@<TRIPOS>ATOM
      1  N1        20.2320   58.4770    2.9690 N.2   200  FMN200     -0.2887
      2  C2        20.0270   58.1020    4.2810 C.1   200  FMN200      0.3669
      3  O2        20.4870   57.0620    4.7230 O.2   200  FMN200     -0.1744
      4  N3        19.3240   58.9220    5.1370 N.2   200  FMN200     -0.2300
      5  C4        18.7780   60.1210    4.7400 C.1   200  FMN200      0.2513
      6  O4        18.3440   60.9060    5.6010 O.2   200  FMN200     -0.2057
      7  C4A       18.9630   60.5140    3.4100 C.2   200  FMN200      0.2703
      8  N5        18.4340   61.7120    2.9930 N.2   200  FMN200     -0.3882
      9  C5A       18.6250   62.1410    1.6760 C.2   200  FMN200      0.1277
     10  C6        18.0540   63.3510    1.2660 C.3   200  FMN200      0.0820
     11  C7        18.2400   63.8090   -0.0420 C.2   200  FMN200     -0.0408
     12  C7M       17.4790   65.0160   -0.5230 C.3   200  FMN200      0.0265
     13  C8        18.9840   63.0220   -0.9440 C.2   200  FMN200     -0.0280
     14  C8M       19.2240   63.5060   -2.3540 C.3   200  FMN200      0.0304
     15  C9        19.5230   61.8010   -0.5310 C.2   200  FMN200      0.0123
     16  C9A       19.3510   61.3430    0.7930 C.2   200  FMN200      0.0793
     17  N10       19.8950   60.1040    1.2300 N.pl3 200  FMN200     -0.2545
     18  C10       19.7010   59.6920    2.5410 C.2   200  FMN200      0.2449
     19  C1'       20.6480   59.2150    0.3150 C.3   200  FMN200      0.1336
     20  C2'       19.7320   58.4790   -0.6670 C.3   200  FMN200      0.2048
     21  O2'       19.0550   57.4210   -0.0110 O.3   200  FMN200     -0.2185
     22  C3'       20.5700   57.9340   -1.8120 C.3   200  FMN200      0.2165
     23  O3'       21.1860   59.0160   -2.4730 O.3   200  FMN200     -0.2175
     24  C4'       19.7420   57.1610   -2.8370 C.3   200  FMN200      0.2147
     25  O4'       19.1870   56.0210   -2.2210 O.3   200  FMN200     -0.2176
     26  C5'       20.5780   56.7080   -4.0100 C.3   200  FMN200      0.1892
     27  O5'       21.7710   56.0830   -3.5720 O.3   200  FMN200     -0.2674
     28  P         23.2520   56.5210   -3.9940 P.3   200  FMN200      0.5327
     29  O1P       23.5250   57.8520   -3.3110 O.3   200  FMN200     -0.1145
     30  O2P       24.2040   55.4210   -3.5560 O.3   200  FMN200     -0.1145
     31  O3P       23.2180   56.6850   -5.4900 O.2   200  FMN200     -0.2224
@<TRIPOS>BOND
     1    31    28    2
     2    26    27    1
     3    26    24    1
     4    28    27    1
     5    28    30    1
     6    28    29    1
     7    24    25    1
     8    24    22    1
     9    23    22    1
    10    14    13    1
    11    22    20    1
    12    13    15    1
    13    13    11    2
    14    20    21    1
    15    20    19    1
    16    15    16    2
    17    12    11    1
    18    11    10    1
    19    19    17    1
    20    16    17    1
    21    16     9    1
    22    17    18    1
    23    10     9    1
    24     9     8    2
    25    18     1    2
    26    18     7    1
    27     1     2    2
    28     8     7    2
    29     7     5    1
    30     2     3    2
    31     2     4    2
    32     5     4    2
    33     5     6    2
