@<TRIPOS>MOLECULE
3e3b_CCK_X_1.pdb
 28 31 0 0 0
SMALL
GASTEIGER

@<TRIPOS>ATOM
      1  N1       -24.5950   26.2430  -17.4690 N.2   351  CCK351     -0.2552
      2  C2       -24.9520   26.0670  -18.7360 C.3   351  CCK351      0.2045
      3  C3       -25.8320   25.0290  -19.0460 C.2   351  CCK351      0.2181
      4  N4       -26.3060   24.2390  -18.0770 N.2   351  CCK351     -0.3655
      5  C5       -25.9330   24.4470  -16.8370 C.2   351  CCK351      0.2195
      6  C6       -25.0450   25.4720  -16.4930 C.2   351  CCK351      0.1444
      7  N13      -26.2300   24.7880  -20.3010 N.ar  351  CCK351     -0.2038
      8  N15      -26.4090   23.6530  -15.9480 N.ar  351  CCK351     -0.2783
      9  C17      -26.8930   23.6610  -20.7010 C.ar  351  CCK351      0.0880
     10  C18      -27.3680   23.8630  -22.0180 C.ar  351  CCK351      0.0387
     11  C19      -26.8810   25.1810  -22.2890 C.ar  351  CCK351      0.1220
     12  N20      -26.1360   25.6140  -21.2340 N.ar  351  CCK351     -0.1616
     13  C26      -27.1800   22.4520  -16.0950 C.ar  351  CCK351      0.0787
     14  C27      -27.3730   21.7560  -14.8950 C.ar  351  CCK351      0.0082
     15  C28      -26.5940   22.4160  -13.9150 C.ar  351  CCK351      0.0168
     16  C29      -26.1550   23.5900  -14.5260 C.ar  351  CCK351      0.0822
     17  C35      -28.1200   22.9210  -22.7500 C.ar  351  CCK351      0.0044
     18  C36      -28.3730   21.7040  -22.0690 C.ar  351  CCK351      0.0162
     19  C37      -27.8980   21.4540  -20.7440 C.ar  351  CCK351      0.0667
     20  C38      -27.1550   22.4360  -20.0460 C.ar  351  CCK351      0.0354
     21  N44      -28.1840   20.2220  -20.1880 N.pl3 351  CCK351     -0.2393
     22  C46      -28.6280   19.9080  -18.8200 C.3   351  CCK351      0.0926
     23  C48      -29.3950   18.6080  -18.8340 C.3   351  CCK351      0.0233
     24  C51      -29.6620   20.8830  -18.3420 C.3   351  CCK351      0.0233
     25  C57      -28.2700   20.5610  -14.6890 C.3   351  CCK351      0.1419
     26  C59      -27.8430   19.5900  -13.5940 C.2   351  CCK351      0.3693
     27  O61      -28.6620   18.7210  -13.2910 O.co2 351  CCK351     -0.2453
     28  O63      -26.7330   19.6770  -13.0540 O.co2 351  CCK351     -0.2453
@<TRIPOS>BOND
     1    17    18   ar
     2    17    10   ar
     3    11    10   ar
     4    11    12   ar
     5    18    19   ar
     6    10     9   ar
     7    12     7   ar
     8    19    21    1
     9    19    20   ar
    10     9     7   ar
    11     9    20   ar
    12     7     3    1
    13    21    22    1
    14     3     2    1
    15     3     4    2
    16    23    22    1
    17    22    24    1
    18     2     1    1
    19     4     5    2
    20     1     6    2
    21     5     6    1
    22     5     8    1
    23    13     8   ar
    24    13    14   ar
    25     8    16   ar
    26    14    25    1
    27    14    15   ar
    28    25    26    1
    29    16    15   ar
    30    26    27   ar
    31    26    28   ar
