@<TRIPOS>MOLECULE
3e3c_HHG_A_1.pdb
 17 16 0 0 0
SMALL
GASTEIGER

@<TRIPOS>ATOM
      1  O2P        4.0870   23.3010   33.3650 O.3   150  HHG150     -0.1145
      2  P          3.7870   24.6710   32.8000 P.3   150  HHG150      0.5327
      3  O4P        4.1630   25.7980   33.7340 O.3   150  HHG150     -0.1145
      4  O1P        2.3510   24.8160   32.3310 O.2   150  HHG150     -0.2224
      5  O3P        4.7450   24.8130   31.5000 O.3   150  HHG150     -0.2674
      6  C1         6.1400   25.0700   31.6270 C.3   150  HHG150      0.1904
      7  C2         6.7590   25.2070   30.2380 C.3   150  HHG150      0.2254
      8  O2         5.8910   25.9950   29.3960 O.3   150  HHG150     -0.2164
      9  C3         8.1260   25.8690   30.3880 C.3   150  HHG150      0.2437
     10  O3         8.7400   26.0070   29.1040 O.3   150  HHG150     -0.4456
     11  C4        10.0610   25.4640   28.7940 C.2   150  HHG150      0.3171
     12  O1        10.7040   24.8510   29.6510 O.2   150  HHG150     -0.2501
     13  C5        10.5960   25.6880   27.3910 C.3   150  HHG150      0.1096
     14  C6        11.9780   25.0790   27.1800 C.3   150  HHG150      0.0116
     15  C7        13.0310   26.1750   27.1530 C.3   150  HHG150      0.0006
     16  C8        14.0920   25.8870   26.1020 C.3   150  HHG150      0.0000
     17  C9        15.3760   25.2960   26.6470 C.3   150  HHG150      0.0000
@<TRIPOS>BOND
     1    16    17    1
     2    16    15    1
     3    15    14    1
     4    14    13    1
     5    13    11    1
     6    11    10    1
     7    11    12    2
     8    10     9    1
     9     8     7    1
    10     7     9    1
    11     7     6    1
    12     5     6    1
    13     5     2    1
    14     4     2    2
    15     2     1    1
    16     2     3    1
