@<TRIPOS>MOLECULE
3e3d_I3C_A_1.pdb
 16 16 0 0 0
SMALL
GASTEIGER

@<TRIPOS>ATOM
      1  I3         6.7960   13.6650   -1.0240 I     130  I3C130     -0.0409
      2  I2        10.3590   18.5790   -0.7780 I     130  I3C130     -0.0409
      3  I1         9.6870   15.5460   -5.9400 I     130  I3C130     -0.0421
      4  O8         8.2970   12.6760   -3.8950 O.co2 130  I3C130     -0.2405
      5  O9         6.8170   13.9740   -4.9050 O.co2 130  I3C130     -0.2405
      6  C10       10.7670   17.8120   -3.8220 C.2   130  I3C130      0.3886
      7  N13        8.5280   16.1170    0.2270 N.pl3 130  I3C130     -0.1272
      8  C1         8.3810   14.8860   -3.2920 C.ar  130  I3C130      0.0920
      9  C6         8.1230   15.0220   -1.9260 C.ar  130  I3C130      0.0540
     10  C5         8.7030   16.0290   -1.1570 C.ar  130  I3C130      0.1002
     11  C4         9.5360   16.9550   -1.8280 C.ar  130  I3C130      0.0540
     12  C3         9.8140   16.8310   -3.1860 C.ar  130  I3C130      0.0920
     13  C2         9.2430   15.7920   -3.9130 C.ar  130  I3C130      0.0437
     14  C7         7.7600   13.7850   -4.1050 C.2   130  I3C130      0.3886
     15  O11       10.2020   18.7410   -4.4310 O.co2 130  I3C130     -0.2405
     16  O12       12.0040   17.6630   -3.7160 O.co2 130  I3C130     -0.2405
@<TRIPOS>BOND
     1     3    13    1
     2     5    14   ar
     3    15     6   ar
     4    14     4   ar
     5    14     8    1
     6    13     8   ar
     7    13    12   ar
     8     6    16   ar
     9     6    12    1
    10     8     9   ar
    11    12    11   ar
    12     9    10   ar
    13     9     1    1
    14    11    10   ar
    15    11     2    1
    16    10     7    1
