@<TRIPOS>MOLECULE
3e3h_EBP_A_1.pdb
 16 16 0 0 0
SMALL
GASTEIGER

@<TRIPOS>ATOM
      1  C1        29.3670  -46.1270   39.5120 C.ar  702  EBP702     -0.0101
      2  C2        28.0340  -46.5250   39.4750 C.ar  702  EBP702     -0.0040
      3  C3        27.1190  -46.0310   40.4040 C.ar  702  EBP702     -0.0046
      4  C4        27.5110  -45.1020   41.3610 C.ar  702  EBP702     -0.0219
      5  C5        28.8360  -44.6790   41.3750 C.ar  702  EBP702     -0.0046
      6  C6        29.7700  -45.2500   40.5120 C.ar  702  EBP702     -0.0040
      7  C7        30.3760  -46.7270   38.5720 C.3   702  EBP702      0.1423
      8  C8        26.4780  -44.3740   42.1690 C.3   702  EBP702      0.0310
      9  C9        33.0670  -46.4890   40.1470 C.3   702  EBP702      0.1514
     10  C10       34.5030  -46.9900   40.1670 C.3   702  EBP702      0.0352
     11  C11       29.6670  -49.9740   38.7580 C.3   702  EBP702      0.1514
     12  C12       29.9560  -51.4260   39.1340 C.3   702  EBP702      0.0352
     13  P         31.2730  -48.0130   39.1140 P.3   702  EBP702      0.3476
     14  O1        32.1310  -47.6320   40.2570 O.3   702  EBP702     -0.2939
     15  O2        30.3990  -49.0680   39.6720 O.3   702  EBP702     -0.2939
     16  O3        32.1440  -48.5310   37.8260 O.2   702  EBP702     -0.2574
@<TRIPOS>BOND
     1    16    13    2
     2     7    13    1
     3     7     1    1
     4    11    12    1
     5    11    15    1
     6    13    15    1
     7    13    14    1
     8     2     1   ar
     9     2     3   ar
    10     1     6   ar
    11     9    10    1
    12     9    14    1
    13     3     4   ar
    14     6     5   ar
    15     4     5   ar
    16     4     8    1
