@<TRIPOS>MOLECULE
3e3k_HCT_A_1.pdb
 13 12 0 0 0
SMALL
GASTEIGER

@<TRIPOS>ATOM
      1  C1        33.4000  -13.1300  -21.8220 C.2   507  HCT507      0.3654
      2  C2        31.9350  -13.6170  -21.9610 C.3   507  HCT507      0.1253
      3  C3        31.6570  -15.0310  -21.3840 C.3   507  HCT507      0.1152
      4  C4        32.6490  -16.0390  -21.9610 C.3   507  HCT507      0.0236
      5  C5        33.1470  -16.9930  -20.8720 C.3   507  HCT507      0.1146
      6  C6        33.5240  -18.3470  -21.4750 C.2   507  HCT507      0.3649
      7  C7        30.2050  -15.5020  -21.6820 C.2   507  HCT507      0.3649
      8  O1        33.9750  -12.7430  -22.8660 O.co2 507  HCT507     -0.2456
      9  O2        33.9090  -13.1410  -20.6800 O.co2 507  HCT507     -0.2456
     10  O3        33.2440  -18.5120  -22.6800 O.co2 507  HCT507     -0.2457
     11  O4        34.0790  -19.1860  -20.7260 O.co2 507  HCT507     -0.2457
     12  O5        29.5140  -14.8020  -22.4560 O.co2 507  HCT507     -0.2457
     13  O6        29.8100  -16.5550  -21.1250 O.co2 507  HCT507     -0.2457
@<TRIPOS>BOND
     1     8     1   ar
     2    10     6   ar
     3    12     7   ar
     4     2     1    1
     5     2     3    1
     6     4     3    1
     7     4     5    1
     8     1     9   ar
     9     7     3    1
    10     7    13   ar
    11     6     5    1
    12     6    11   ar
