@<TRIPOS>MOLECULE
3e3n_AMP_A_1.pdb
 23 25 0 0 0
SMALL
GASTEIGER

@<TRIPOS>ATOM
      1  P         -8.9090  -39.7550   78.2580 P.3   843  AMP843      0.5327
      2  O1P       -7.4770  -40.2130   78.4020 O.3   843  AMP843     -0.1145
      3  O2P       -9.1440  -38.2680   78.4250 O.3   843  AMP843     -0.1145
      4  O3P       -9.6430  -40.3490   77.0770 O.2   843  AMP843     -0.2224
      5  O5'       -9.5300  -40.4350   79.5900 O.3   843  AMP843     -0.2675
      6  C5'      -10.9170  -40.4990   79.8690 C.3   843  AMP843      0.1860
      7  C4'      -11.2370  -41.8020   80.5970 C.3   843  AMP843      0.1823
      8  O4'      -11.0770  -42.9620   79.7690 O.3   843  AMP843     -0.3135
      9  C3'      -10.4290  -42.0620   81.8620 C.3   843  AMP843      0.2184
     10  O3'      -11.1300  -41.5810   83.0090 O.3   843  AMP843     -0.2174
     11  C2'      -10.4080  -43.5660   81.9730 C.3   843  AMP843      0.2570
     12  O2'      -11.5570  -43.9790   82.7330 O.3   843  AMP843     -0.2130
     13  C1'      -10.5660  -44.0560   80.5490 C.3   843  AMP843      0.3186
     14  N9        -9.2660  -44.4790   79.9710 N.pl3 843  AMP843     -0.1439
     15  C8        -8.3430  -43.6410   79.4480 C.3   843  AMP843      0.3377
     16  N7        -7.2710  -44.3140   78.9620 N.2   843  AMP843     -0.2095
     17  C5        -7.5060  -45.6190   79.1650 C.2   843  AMP843      0.2526
     18  C6        -6.7810  -46.8710   78.8730 C.2   843  AMP843      0.4393
     19  N6        -5.5730  -46.8170   78.2680 N.pl3 843  AMP843      0.2180
     20  N1        -7.3550  -48.0440   79.2310 N.2   843  AMP843      0.0021
     21  C2        -8.5590  -48.0800   79.8300 C.3   843  AMP843      0.5254
     22  N3        -9.2850  -46.9800   80.1200 N.2   843  AMP843     -0.0055
     23  C4        -8.8190  -45.7330   79.8250 C.2   843  AMP843      0.3518
@<TRIPOS>BOND
     1     4     1    2
     2     1     2    1
     3     1     3    1
     4     1     5    1
     5    19    18    1
     6    18    17    1
     7    18    20    2
     8    16    17    2
     9    16    15    1
    10    17    23    1
    11    20    21    1
    12    15    14    1
    13     5     6    1
    14     8    13    1
    15     8     7    1
    16    23    14    1
    17    23    22    2
    18    21    22    1
    19     6     7    1
    20    14    13    1
    21    13    11    1
    22     7     9    1
    23     9    11    1
    24     9    10    1
    25    11    12    1
