@<TRIPOS>MOLECULE
3e3o_IMP_A_1.pdb
 23 25 0 0 0
SMALL
GASTEIGER

@<TRIPOS>ATOM
      1  P         64.4590  -16.5680   35.5810 P.3   920  IMP920      0.5327
      2  O1P       63.7780  -17.3630   34.4900 O.2   920  IMP920     -0.2224
      3  O2P       63.9910  -15.1390   35.4290 O.3   920  IMP920     -0.1145
      4  O3P       65.9460  -16.7080   35.4100 O.3   920  IMP920     -0.1145
      5  O5'       64.1200  -17.1640   37.0290 O.3   920  IMP920     -0.2675
      6  C5'       62.8030  -17.1780   37.5170 C.3   920  IMP920      0.1860
      7  C4'       62.4230  -18.5790   37.9870 C.3   920  IMP920      0.1823
      8  O4'       62.8120  -19.5790   37.0600 O.3   920  IMP920     -0.3135
      9  C3'       63.0590  -18.9570   39.3070 C.3   920  IMP920      0.2184
     10  O3'       62.1850  -18.6380   40.3650 O.3   920  IMP920     -0.2174
     11  C2'       63.3090  -20.4560   39.1930 C.3   920  IMP920      0.2570
     12  O2'       62.3830  -21.2080   39.9400 O.3   920  IMP920     -0.2130
     13  C1'       63.1180  -20.7930   37.7260 C.3   920  IMP920      0.3186
     14  N9        64.3290  -21.4430   37.1620 N.pl3 920  IMP920     -0.1435
     15  C8        65.3670  -20.8190   36.5090 C.3   920  IMP920      0.3382
     16  N7        66.2730  -21.7520   36.1350 N.2   920  IMP920     -0.2054
     17  C5        65.8430  -22.9700   36.5480 C.2   920  IMP920      0.2446
     18  C6        66.3860  -24.2530   36.4320 C.1   920  IMP920      0.1792
     19  O6        67.4590  -24.4240   35.8670 O.2   920  IMP920     -0.2203
     20  N1        65.7140  -25.3380   36.9610 N.2   920  IMP920     -0.1458
     21  C2        64.4990  -25.1410   37.5980 C.3   920  IMP920      0.4017
     22  N3        63.9600  -23.8670   37.7130 N.2   920  IMP920     -0.0334
     23  C4        64.6200  -22.7920   37.1950 C.2   920  IMP920      0.3528
@<TRIPOS>BOND
     1     2     1    2
     2     4     1    1
     3     3     1    1
     4     1     5    1
     5    19    18    2
     6    16    15    1
     7    16    17    2
     8    18    17    1
     9    18    20    2
    10    15    14    1
    11    17    23    1
    12    20    21    1
    13     5     6    1
    14     8    13    1
    15     8     7    1
    16    14    23    1
    17    14    13    1
    18    23    22    2
    19     6     7    1
    20    21    22    1
    21    13    11    1
    22     7     9    1
    23    11     9    1
    24    11    12    1
    25     9    10    1
