@<TRIPOS>MOLECULE
3e3s_I3C_A_1.pdb
 16 16 0 0 0
SMALL
GASTEIGER

@<TRIPOS>ATOM
      1  I3        21.0770   38.2940   37.8440 I     1001  I3C1001    -0.0409
      2  I2        25.0040   36.6910   33.5840 I     1001  I3C1001    -0.0409
      3  I1        22.2090   32.4450   36.7960 I     1001  I3C1001    -0.0421
      4  O8        21.3030   34.9920   39.2720 O.co2 1001  I3C1001    -0.2405
      5  O9        19.5990   34.9650   37.8610 O.co2 1001  I3C1001    -0.2405
      6  C10       24.3290   33.7560   34.8360 C.2   1001  I3C1001     0.3886
      7  N13       23.3760   38.5360   35.4410 N.pl3 1001  I3C1001    -0.1272
      8  C1        21.8310   35.4860   37.0790 C.ar  1001  I3C1001     0.0920
      9  C6        22.1050   36.8230   36.7600 C.ar  1001  I3C1001     0.0540
     10  C5        23.0190   37.2240   35.7890 C.ar  1001  I3C1001     0.1002
     11  C4        23.6840   36.1640   35.1200 C.ar  1001  I3C1001     0.0540
     12  C3        23.4710   34.8390   35.4470 C.ar  1001  I3C1001     0.0920
     13  C2        22.5270   34.4790   36.4100 C.ar  1001  I3C1001     0.0437
     14  C7        20.8120   35.1250   38.1250 C.2   1001  I3C1001     0.3886
     15  O11       23.7560   33.1580   33.9090 O.co2 1001  I3C1001    -0.2405
     16  O12       25.4830   33.5500   35.2820 O.co2 1001  I3C1001    -0.2405
@<TRIPOS>BOND
     1     2    11    1
     2    15     6   ar
     3     6    16   ar
     4     6    12    1
     5    11    12   ar
     6    11    10   ar
     7     7    10    1
     8    12    13   ar
     9    10     9   ar
    10    13     3    1
    11    13     8   ar
    12     9     8   ar
    13     9     1    1
    14     8    14    1
    15     5    14   ar
    16    14     4   ar
