@<TRIPOS>MOLECULE
3e3t_I3C_A_1.pdb
 15 15 0 0 0
SMALL
GASTEIGER

@<TRIPOS>ATOM
      1  I2        -0.1310   11.6720  -10.7620 I     245  I3C245     -0.0409
      2  I1         1.3560   16.9000  -13.3830 I     245  I3C245     -0.0421
      3  O8         0.9860   18.5880  -10.5740 O.co2 245  I3C245     -0.2405
      4  O9         2.6650   18.0060   -9.2750 O.co2 245  I3C245     -0.2405
      5  C10        0.4280   13.8550  -13.0960 C.2   245  I3C245      0.3886
      6  N13        0.6260   13.3840   -8.1650 N.pl3 245  I3C245     -0.1276
      7  C1         1.2990   16.3200  -10.3520 C.ar  245  I3C245      0.0867
      8  C6         1.1300   15.5060   -9.2180 C.ar  245  I3C245      0.0255
      9  C5         0.7450   14.1790   -9.3020 C.ar  245  I3C245      0.0948
     10  C4         0.5060   13.6670  -10.6010 C.ar  245  I3C245      0.0536
     11  C3         0.6770   14.4530  -11.7330 C.ar  245  I3C245      0.0920
     12  C2         1.0840   15.7920  -11.6170 C.ar  245  I3C245      0.0433
     13  C7         1.7040   17.7280  -10.0290 C.2   245  I3C245      0.3882
     14  O11        1.4870   13.6200  -13.7150 O.co2 245  I3C245     -0.2405
     15  O12       -0.7200   13.6300  -13.5300 O.co2 245  I3C245     -0.2405
@<TRIPOS>BOND
     1    14     5   ar
     2    15     5   ar
     3     2    12    1
     4     5    11    1
     5    11    12   ar
     6    11    10   ar
     7    12     7   ar
     8     1    10    1
     9    10     9   ar
    10     3    13   ar
    11     7    13    1
    12     7     8   ar
    13    13     4   ar
    14     9     8   ar
    15     9     6    1
