@<TRIPOS>MOLECULE
3e3u_NVC_A_1.pdb
 26 28 0 0 0
SMALL
GASTEIGER

@<TRIPOS>ATOM
      1  O28       20.3620   53.7950   15.9130 O.2   201  NVC201     -0.2748
      2  C27       20.1420   54.9940   15.9300 C.2   201  NVC201      0.2272
      3  C29       18.7090   55.5040   15.9260 C.3   201  NVC201      0.0970
      4  C40       17.9010   55.0910   17.1600 C.3   201  NVC201      0.0108
      5  C43       18.5500   55.5560   18.4720 C.3   201  NVC201      0.0005
      6  C46       17.6920   55.0610   19.6320 C.3   201  NVC201      0.0000
      7  C49       18.3390   55.3030   20.9790 C.3   201  NVC201      0.0000
      8  C31       18.0690   54.9230   14.6590 C.3   201  NVC201      0.1070
      9  N34       16.7630   55.5170   14.3950 N.am  201  NVC201     -0.2791
     10  O35       16.7570   56.8320   13.9170 O.3   201  NVC201     -0.4195
     11  C37       15.7420   54.8280   14.6060 C.2   201  NVC201      0.1130
     12  O39       14.7220   55.3890   14.5930 O.2   201  NVC201     -0.5358
     13  N17       21.1450   55.8800   15.8980 N.am  201  NVC201     -0.2719
     14  C15       22.5330   55.4080   15.8590 C.3   201  NVC201      0.1651
     15  C24       23.3730   56.6550   15.6210 C.3   201  NVC201      0.0323
     16  C21       22.5160   57.7680   16.2090 C.3   201  NVC201      0.0238
     17  C18       21.0800   57.3510   15.8880 C.3   201  NVC201      0.0939
     18  C3        22.8960   54.8620   17.1790 C.2   201  NVC201      0.2756
     19  O1        23.7080   53.7710   17.1520 O.2   201  NVC201     -0.4270
     20  C6        23.8920   53.4720   18.5080 C.2   201  NVC201      0.1734
     21  C5        23.2000   54.3640   19.3050 C.2   201  NVC201      0.1684
     22  N4        22.5690   55.2210   18.4460 N.2   201  NVC201     -0.3666
     23  C7        24.6560   52.4270   19.0070 C.2   201  NVC201      0.0188
     24  C9        24.6980   52.3110   20.3950 C.3   201  NVC201      0.0554
     25  C11       24.0040   53.2050   21.2100 C.2   201  NVC201     -0.0186
     26  C13       23.2340   54.2420   20.6890 C.2   201  NVC201      0.0311
@<TRIPOS>BOND
     1    10     9    1
     2     9    11   am
     3     9     8    1
     4    12    11    2
     5     8     3    1
     6    15    14    1
     7    15    16    1
     8    14    13    1
     9    14    18    1
    10    17    13    1
    11    17    16    1
    12    13     2   am
    13     1     2    2
    14     3     2    1
    15     3     4    1
    16    19    18    1
    17    19    20    1
    18     4     5    1
    19    18    22    2
    20    22    21    2
    21     5     6    1
    22    20    23    2
    23    20    21    1
    24    23    24    1
    25    21    26    1
    26     6     7    1
    27    24    25    1
    28    26    25    2
