@<TRIPOS>MOLECULE
3e47_ESY_K_1.pdb
 43 44 0 0 0
SMALL
GASTEIGER

@<TRIPOS>ATOM
      1  C1        17.7830 -147.0130    9.1260 C.ar  2000  ESY2000    -0.0000
      2  C2        17.8600 -146.0410   10.1440 C.ar  2000  ESY2000    -0.0002
      3  C3        18.5440 -144.7990    9.8620 C.ar  2000  ESY2000    -0.0007
      4  C4        19.1310 -144.5410    8.5830 C.ar  2000  ESY2000     0.0213
      5  C5        19.8400 -143.2020    8.4310 C.3   2000  ESY2000     0.2368
      6  O6        20.5800 -143.0700    7.1160 O.3   2000  ESY2000    -0.4285
      7  C7        21.2380 -141.8620    7.1860 C.2   2000  ESY2000     0.4218
      8  N8        21.0550 -141.1350    8.3660 N.am  2000  ESY2000    -0.1611
      9  C9        21.4460 -139.9040    8.9550 C.3   2000  ESY2000     0.1762
     10  C10       20.0310 -139.6390    9.3220 C.2   2000  ESY2000     0.2618
     11  N11       19.4860 -140.1640   10.5980 N.am  2000  ESY2000    -0.1943
     12  C12       17.9400 -140.2060   10.7580 C.3   2000  ESY2000     0.1935
     13  C13       17.5060 -140.9070   12.1120 C.3   2000  ESY2000     0.0332
     14  C14       16.2080 -141.7570   12.0790 C.3   2000  ESY2000     0.0042
     15  C15       14.8820 -140.9520   12.1620 C.3   2000  ESY2000     0.0235
     16  C16       13.6240 -141.8760   12.1350 C.3   2000  ESY2000     0.1152
     17  N17       12.4410 -141.0030   12.2080 N.am  2000  ESY2000    -0.2033
     18  C18       12.0220 -140.4100   13.3820 C.2   2000  ESY2000     0.2723
     19  C19       10.8150 -139.4930   13.3290 C.3   2000  ESY2000     0.2362
     20  C20       11.3770 -138.0860   12.8810 C.3   2000  ESY2000     0.1043
     21  C21       12.0350 -138.2380   11.4910 C.2   2000  ESY2000     0.2100
     22  O22       13.0680 -137.6410   11.2070 O.2   2000  ESY2000    -0.2882
     23  C23       10.3360 -136.9110   12.7600 C.3   2000  ESY2000     0.0104
     24  C24       11.1490 -135.6110   12.3430 C.3   2000  ESY2000     0.0005
     25  C25       10.3330 -134.3140   12.1590 C.3   2000  ESY2000     0.0000
     26  C26        9.5840 -136.6820   14.1130 C.3   2000  ESY2000     0.0005
     27  O27        9.8300 -139.9740   12.3760 O.3   2000  ESY2000    -0.2127
     28  C29       17.4230 -138.7570   10.7190 C.2   2000  ESY2000     0.3373
     29  O30       18.4340 -137.8630   10.7760 O.3   2000  ESY2000    -0.4423
     30  C31       18.1960 -136.4580   10.7040 C.3   2000  ESY2000     0.2351
     31  C32       19.6210 -135.8830   10.7530 C.ar  2000  ESY2000     0.0213
     32  C33       20.4170 -135.8380    9.5670 C.ar  2000  ESY2000    -0.0007
     33  C34       21.7470 -135.3300    9.6040 C.ar  2000  ESY2000    -0.0002
     34  C35       22.2840 -134.8580   10.8330 C.ar  2000  ESY2000    -0.0000
     35  C36       21.4920 -134.8950   12.0140 C.ar  2000  ESY2000    -0.0002
     36  C37       20.1710 -135.4030   11.9770 C.ar  2000  ESY2000    -0.0007
     37  O28       12.5860 -140.5440   14.4740 O.2   2000  ESY2000    -0.2706
     38  O38       16.2230 -138.5180   10.6010 O.2   2000  ESY2000    -0.2482
     39  O39       19.2930 -139.0310    8.5110 O.2   2000  ESY2000    -0.2715
     40  C40       22.0360 -138.8690    7.9100 C.3   2000  ESY2000     0.0335
     41  O41       21.9180 -141.4800    6.2850 O.2   2000  ESY2000    -0.2245
     42  C42       19.0450 -145.5280    7.5540 C.ar  2000  ESY2000    -0.0007
     43  C43       18.3760 -146.7660    7.8230 C.ar  2000  ESY2000    -0.0002
@<TRIPOS>BOND
     1    41     7    2
     2     6     7    1
     3     6     5    1
     4     7     8   am
     5    42    43   ar
     6    42     4   ar
     7    43     1   ar
     8    40     9    1
     9     8     9    1
    10     5     4    1
    11    39    10    2
    12     4     3   ar
    13     9    10    1
    14     1     2   ar
    15    10    11   am
    16    32    33   ar
    17    32    31   ar
    18    33    34   ar
    19     3     2   ar
    20    11    12    1
    21    38    28    2
    22    30    31    1
    23    30    29    1
    24    28    12    1
    25    28    29    1
    26    31    36   ar
    27    12    13    1
    28    34    35   ar
    29    22    21    2
    30    21    20    1
    31    36    35   ar
    32    14    13    1
    33    14    15    1
    34    16    15    1
    35    16    17    1
    36    25    24    1
    37    17    18   am
    38    24    23    1
    39    27    19    1
    40    23    20    1
    41    23    26    1
    42    20    19    1
    43    19    18    1
    44    18    37    2
