@<TRIPOS>MOLECULE
3e4a_QIX_A_1.pdb
 39 40 0 0 0
SMALL
GASTEIGER

@<TRIPOS>ATOM
      1  C10      -81.0710   71.0300    4.6220 C.2   2001  QIX2001     0.2420
      2  C13      -82.4480   72.3830    2.9330 C.3   2001  QIX2001     0.0607
      3  C20      -80.4880   73.6470    6.6630 C.ar  2001  QIX2001    -0.0043
      4  C21      -79.8130   73.6030    7.9260 C.ar  2001  QIX2001    -0.0003
      5  C22      -78.3740   73.6520    7.8800 C.ar  2001  QIX2001    -0.0000
      6  C24      -76.3020   73.6570    9.2580 C.ar  2001  QIX2001    -0.0000
      7  C26      -76.2450   73.7380    6.6110 C.ar  2001  QIX2001    -0.0000
      8  C28      -78.3910   73.7670    5.2080 C.ar  2001  QIX2001    -0.0043
      9  O54      -85.5020   61.9620    3.2000 O.2   2001  QIX2001    -0.2697
     10  C52      -84.8390   62.9240    3.5300 C.2   2001  QIX2001     0.2828
     11  N53      -84.8120   64.0670    2.5640 N.am  2001  QIX2001    -0.0862
     12  C46      -84.3350   63.0460    5.0360 C.3   2001  QIX2001     0.2031
     13  N45      -83.4730   64.2520    5.2850 N.am  2001  QIX2001    -0.1939
     14  C43      -83.9720   65.5110    5.9790 C.2   2001  QIX2001     0.2639
     15  O44      -84.8020   65.6660    6.8990 O.2   2001  QIX2001    -0.2714
     16  C32      -83.6630   66.7630    5.1330 C.3   2001  QIX2001     0.2014
     17  N31      -82.5280   67.4680    5.7410 N.am  2001  QIX2001    -0.1940
     18  C29      -82.9640   68.7720    6.2190 C.2   2001  QIX2001     0.2617
     19  O30      -84.1130   69.0180    6.0330 O.2   2001  QIX2001    -0.2715
     20  C08      -81.9670   69.8220    6.7410 C.3   2001  QIX2001     0.1728
     21  C07      -82.4390   70.4340    8.1010 C.3   2001  QIX2001     0.0348
     22  C06      -81.9420   69.5530    9.2820 C.3   2001  QIX2001     0.0492
     23  C05      -81.6760   70.4060   10.5690 C.3   2001  QIX2001     0.2205
     24  N04      -80.3300   70.0580   11.1120 N.pl3 2001  QIX2001    -0.0865
     25  C02      -80.2480   69.9920   12.5970 C.cat 2001  QIX2001     0.5346
     26  N03      -80.8230   68.7790   13.2730 N.pl3 2001  QIX2001     0.1354
     27  N01      -79.5760   70.9000   13.2330 N.pl3 2001  QIX2001     0.1354
     28  N09      -82.0160   70.9050    5.7430 N.am  2001  QIX2001    -0.1978
     29  O11      -80.2710   70.1740    4.3700 O.2   2001  QIX2001    -0.2733
     30  C12      -81.0920   72.2900    3.7020 C.3   2001  QIX2001     0.0888
     31  C14      -82.3340   71.9210    1.4630 C.2   2001  QIX2001     0.0873
     32  N16      -82.3760   72.9930    0.5080 N.am  2001  QIX2001    -0.2030
     33  O17      -81.6720   72.8910   -0.6890 O.3   2001  QIX2001    -0.4026
     34  O15      -81.7330   70.9380    1.1830 O.2   2001  QIX2001    -0.5395
     35  C18      -81.0740   73.6690    4.3770 C.3   2001  QIX2001     0.0359
     36  C19      -79.8690   73.7240    5.3510 C.ar  2001  QIX2001    -0.0217
     37  C27      -77.6810   73.7220    6.5350 C.ar  2001  QIX2001    -0.0003
     38  C25      -75.6250   73.6870    7.9520 C.ar  2001  QIX2001    -0.0000
     39  C23      -77.7340   73.6430    9.2230 C.ar  2001  QIX2001    -0.0000
@<TRIPOS>BOND
     1    33    32    1
     2    32    31   am
     3    34    31    2
     4    31     2    1
     5    11    10   am
     6     2    30    1
     7     9    10    2
     8    10    12    1
     9    30    35    1
    10    30     1    1
    11    29     1    2
    12    35    36    1
    13     1    28   am
    14    12    13    1
    15    16    17    1
    16    16    14    1
    17     8    36   ar
    18     8    37   ar
    19    13    14   am
    20    36     3   ar
    21    17    18   am
    22    28    20    1
    23    14    15    2
    24    19    18    2
    25    18    20    1
    26    37     7   ar
    27    37     5   ar
    28     7    38   ar
    29     3     4   ar
    30    20    21    1
    31     5     4   ar
    32     5    39   ar
    33    38     6   ar
    34    21    22    1
    35    39     6   ar
    36    22    23    1
    37    23    24    1
    38    24    25    2
    39    25    27    1
    40    25    26    1
