@<TRIPOS>MOLECULE
3e4a_III_F_1.pdb
 15 14 0 0 0
SMALL
GASTEIGER

@<TRIPOS>ATOM
      1  N       -103.5360   71.6020   -8.3430 N.3     1  ALA1       -0.1231
      2  CA      -103.5310   71.0670   -9.7320 C.3     1  ALA1        0.1694
      3  C       -104.7590   70.1710  -10.0890 C.2     1  ALA1        0.2592
      4  O       -104.9460   69.8660  -11.2620 O.2     1  ALA1       -0.2718
      5  CB      -102.0910   70.3950  -10.2010 C.3     1  ALA1        0.0304
      6  N       -105.5730   69.7660   -9.0980 N.am    2  ALA2       -0.1966
      7  CA      -106.9910   69.3150   -9.2770 C.3     2  ALA2        0.1728
      8  C       -107.2370   67.8410   -9.8150 C.2     2  ALA2        0.2616
      9  O       -107.2070   67.4830  -11.0230 O.2     2  ALA2       -0.2715
     10  CB      -107.9390   70.4490   -9.8920 C.3     2  ALA2        0.0334
     11  N       -107.3940   66.9510   -8.8410 N.am    3  ALA3       -0.1977
     12  CA      -107.0780   65.5610   -9.1020 C.3     3  ALA3        0.1597
     13  C       -108.3260   64.8130   -9.5130 C.2     3  ALA3        0.2287
     14  O       -108.5140   64.5570  -10.7060 O.2     3  ALA3       -0.2864
     15  CB      -106.3100   64.8920   -7.8920 C.3     3  ALA3        0.0319
@<TRIPOS>BOND
     1     4     3    2
     2     9     8    2
     3    14    13    2
     4     5     2    1
     5     3     2    1
     6     3     6   am
     7    10     7    1
     8     8     7    1
     9     8    11   am
    10     2     1    1
    11    13    12    1
    12     7     6    1
    13    12    11    1
    14    12    15    1
