@<TRIPOS>MOLECULE
3e4e_HEM_A_1.pdb
 43 50 0 0 0
SMALL
GASTEIGER

@<TRIPOS>ATOM
      1 FE         38.3290   29.9770    6.5940 Fe    500  HEM500      0.0000
      2  CHA       41.5420   29.4670    5.5850 C.2   500  HEM500      0.0000
      3  CHB       38.7580   33.3090    6.3710 C.2   500  HEM500      0.0000
      4  CHC       35.0280   30.4120    7.4610 C.2   500  HEM500      0.0000
      5  CHD       37.8550   26.5610    6.7780 C.2   500  HEM500      0.0000
      6  NA        39.7160   31.0570    6.0620 N.ar  500  HEM500      0.0000
      7  C1A       41.0450   30.7170    5.7390 C.ar  500  HEM500      0.0000
      8  C2A       41.8980   31.8670    5.5330 C.ar  500  HEM500      0.0000
      9  C3A       41.1250   32.9310    5.7410 C.ar  500  HEM500      0.0000
     10  C4A       39.7900   32.4590    6.0700 C.ar  500  HEM500      0.0000
     11  CMA       41.5520   34.4090    5.6520 C.3   500  HEM500      0.0000
     12  CAA       43.4110   31.8060    5.1510 C.3   500  HEM500      0.0000
     13  CBA       43.6190   32.2450    3.6980 C.3   500  HEM500      0.0000
     14  CGA       44.9880   31.9740    3.0810 C.2   500  HEM500      0.0000
     15  O1A       45.2220   32.4010    1.9310 O.co2 500  HEM500      0.0000
     16  O2A       45.8820   31.3370    3.7200 O.co2 500  HEM500      0.0000
     17  NB        37.2230   31.4820    6.8420 N.2   500  HEM500      0.0000
     18  C1B       37.5360   32.8270    6.7540 C.2   500  HEM500      0.0000
     19  C2B       36.4130   33.6680    7.1330 C.2   500  HEM500      0.0000
     20  C3B       35.3890   32.8550    7.4300 C.2   500  HEM500      0.0000
     21  C4B       35.8580   31.5070    7.2670 C.2   500  HEM500      0.0000
     22  CMB       36.4690   35.2150    7.1560 C.3   500  HEM500      0.0000
     23  CAB       33.9520   33.1670    7.9060 C.2   500  HEM500      0.0000
     24  CBB       33.4700   34.3920    7.8510 C.2   500  HEM500      0.0000
     25  NC        36.8390   28.7800    7.0260 N.ar  500  HEM500      0.0000
     26  C1C       35.5090   29.1320    7.2890 C.ar  500  HEM500      0.0000
     27  C2C       34.6890   27.9870    7.3610 C.ar  500  HEM500      0.0000
     28  C3C       35.4600   26.9320    7.1860 C.ar  500  HEM500      0.0000
     29  C4C       36.7960   27.3920    6.9670 C.ar  500  HEM500      0.0000
     30  CMC       33.1650   28.0350    7.6330 C.3   500  HEM500      0.0000
     31  CAC       35.0420   25.4420    7.2160 C.2   500  HEM500      0.0000
     32  CBC       34.0300   25.0030    6.4550 C.2   500  HEM500      0.0000
     33  ND        39.4120   28.3700    6.2210 N.2   500  HEM500      0.0000
     34  C1D       39.0980   27.0280    6.4560 C.2   500  HEM500      0.0000
     35  C2D       40.2450   26.1410    6.2850 C.2   500  HEM500      0.0000
     36  C3D       41.3580   27.0560    5.9110 C.2   500  HEM500      0.0000
     37  C4D       40.7780   28.3780    5.8810 C.2   500  HEM500      0.0000
     38  CMD       40.3270   24.6060    6.4900 C.3   500  HEM500      0.0000
     39  CAD       42.8180   26.6860    5.6220 C.3   500  HEM500      0.0000
     40  CBD       43.1570   27.1050    4.1940 C.3   500  HEM500      0.0000
     41  CGD       44.3110   26.2270    3.7770 C.2   500  HEM500      0.0000
     42  O1D       44.1120   25.3680    2.8800 O.co2 500  HEM500      0.0000
     43  O2D       45.4050   26.3840    4.3570 O.co2 500  HEM500      0.0000
@<TRIPOS>BOND
     1    15    14   ar
     2    42    41   ar
     3    14    13    1
     4    14    16   ar
     5    13    12    1
     6    41    40    1
     7    41    43   ar
     8    40    39    1
     9    12     8    1
    10     8     7   ar
    11     8     9   ar
    12     2     7    2
    13     2    37    1
    14    39    36    1
    15    11     9    1
    16     7     6   ar
    17     9    10   ar
    18    37    36    1
    19    37    33    2
    20    36    35    2
    21     6    10   ar
    22     6     1    1
    23    10     3    2
    24    33    34    1
    25    33     1    1
    26    35    34    1
    27    35    38    1
    28     3    18    1
    29    32    31    2
    30    34     5    2
    31     1    17    1
    32     1    25    1
    33    18    17    2
    34    18    19    1
    35     5    29    1
    36    17    21    1
    37    29    25   ar
    38    29    28   ar
    39    25    26   ar
    40    19    22    1
    41    19    20    2
    42    28    31    1
    43    28    27   ar
    44    21    20    1
    45    21     4    2
    46    26    27   ar
    47    26     4    1
    48    27    30    1
    49    20    23    1
    50    24    23    2
