@<TRIPOS>MOLECULE
3e4n_HEM_A_1.pdb
 43 50 0 0 0
SMALL
GASTEIGER

@<TRIPOS>ATOM
      1 FE        -16.6020   -6.7260   15.3350 Fe    156  HEM156      0.0000
      2  CHA      -16.6910   -9.7660   16.8080 C.2   156  HEM156      0.0000
      3  CHB      -13.1930   -6.6820   15.5810 C.2   156  HEM156      0.0000
      4  CHC      -16.5010   -3.6030   14.0330 C.2   156  HEM156      0.0000
      5  CHD      -19.9830   -6.6440   15.2550 C.2   156  HEM156      0.0000
      6  NA       -15.2120   -7.9930   16.0530 N.2   156  HEM156      0.0000
      7  C1A      -15.4440   -9.2530   16.5840 C.2   156  HEM156      0.0000
      8  C2A      -14.1520   -9.8730   16.9050 C.2   156  HEM156      0.0000
      9  C3A      -13.1770   -8.9910   16.5420 C.2   156  HEM156      0.0000
     10  C4A      -13.8280   -7.7950   16.0250 C.2   156  HEM156      0.0000
     11  CMA      -11.6620   -9.1340   16.6710 C.3   156  HEM156      0.0000
     12  CAA      -13.9730  -11.3020   17.3920 C.3   156  HEM156      0.0000
     13  CBA      -13.4740  -12.2060   16.2220 C.3   156  HEM156      0.0000
     14  CGA      -14.4010  -12.2510   15.0160 C.2   156  HEM156      0.0000
     15  O1A      -14.0040  -11.8290   13.8870 O.co2 156  HEM156      0.0000
     16  O2A      -15.5920  -12.6370   15.1650 O.co2 156  HEM156      0.0000
     17  NB       -15.1430   -5.3690   14.8530 N.ar  156  HEM156      0.0000
     18  C1B      -13.7650   -5.5440   15.0090 C.ar  156  HEM156      0.0000
     19  C2B      -13.0690   -4.4250   14.4900 C.ar  156  HEM156      0.0000
     20  C3B      -13.9760   -3.5580   14.0690 C.ar  156  HEM156      0.0000
     21  C4B      -15.2770   -4.1430   14.3090 C.ar  156  HEM156      0.0000
     22  CMB      -11.5510   -4.3100   14.4810 C.3   156  HEM156      0.0000
     23  CAB      -13.8170   -2.1650   13.5060 C.2   156  HEM156      0.0000
     24  CBB      -12.8450   -1.3250   13.8690 C.2   156  HEM156      0.0000
     25  NC       -18.0120   -5.3870   14.6990 N.2   156  HEM156      0.0000
     26  C1C      -17.7850   -4.0920   14.2420 C.2   156  HEM156      0.0000
     27  C2C      -19.0170   -3.4010   14.0630 C.2   156  HEM156      0.0000
     28  C3C      -19.9880   -4.2570   14.4680 C.2   156  HEM156      0.0000
     29  C4C      -19.3810   -5.5140   14.8510 C.2   156  HEM156      0.0000
     30  CMC      -19.1800   -1.9780   13.5860 C.3   156  HEM156      0.0000
     31  CAC      -21.5090   -4.0920   14.5700 C.2   156  HEM156      0.0000
     32  CBC      -22.1680   -2.9870   14.2910 C.2   156  HEM156      0.0000
     33  ND       -18.0580   -7.9990   15.8940 N.ar  156  HEM156      0.0000
     34  C1D      -19.4190   -7.7810   15.7520 C.ar  156  HEM156      0.0000
     35  C2D      -20.1780   -8.9080   16.2800 C.ar  156  HEM156      0.0000
     36  C3D      -19.1860   -9.8220   16.7920 C.ar  156  HEM156      0.0000
     37  C4D      -17.8950   -9.2450   16.4710 C.ar  156  HEM156      0.0000
     38  CMD      -21.6610   -9.0540   16.3490 C.3   156  HEM156      0.0000
     39  CAD      -19.4600  -11.0790   17.5530 C.3   156  HEM156      0.0000
     40  CBD      -19.6400  -10.7220   19.0760 C.3   156  HEM156      0.0000
     41  CGD      -19.9580  -11.9600   19.9020 C.2   156  HEM156      0.0000
     42  O1D      -21.1830  -12.3120   19.9620 O.co2 156  HEM156      0.0000
     43  O2D      -19.0060  -12.5370   20.4660 O.co2 156  HEM156      0.0000
@<TRIPOS>BOND
     1    23    24    2
     2    23    20    1
     3    30    27    1
     4    15    14   ar
     5     4    26    2
     6     4    21    1
     7    27    26    1
     8    27    28    2
     9    20    21   ar
    10    20    19   ar
    11    26    25    1
    12    32    31    2
    13    21    17   ar
    14    28    31    1
    15    28    29    1
    16    22    19    1
    17    19    18   ar
    18    25    29    2
    19    25     1    1
    20    29     5    1
    21    17    18   ar
    22    17     1    1
    23    18     3    1
    24    14    16   ar
    25    14    13    1
    26     5    34    2
    27     1    33    1
    28     1     6    1
    29     3    10    2
    30    34    33   ar
    31    34    35   ar
    32    33    37   ar
    33    10     6    1
    34    10     9    1
    35     6     7    2
    36    13    12    1
    37    35    38    1
    38    35    36   ar
    39    37    36   ar
    40    37     2    2
    41     9    11    1
    42     9     8    2
    43     7     2    1
    44     7     8    1
    45    36    39    1
    46     8    12    1
    47    39    40    1
    48    40    41    1
    49    41    42   ar
    50    41    43   ar
