@<TRIPOS>MOLECULE
3e4r_EPE_A_1.pdb
 15 15 0 0 0
SMALL
GASTEIGER

@<TRIPOS>ATOM
      1  N1        17.5630   15.6780   27.9180 N.3   325  EPE325     -0.2689
      2  C2        16.3590   15.1370   28.5600 C.3   325  EPE325      0.0897
      3  C3        15.9470   16.0260   29.7450 C.3   325  EPE325      0.0897
      4  N4        16.0720   17.4710   29.4920 N.3   325  EPE325     -0.2681
      5  C5        17.1180   17.9320   28.5920 C.3   325  EPE325      0.0897
      6  C6        17.2770   17.0200   27.3820 C.3   325  EPE325      0.0897
      7  C7        15.9240   18.3050   30.6820 C.3   325  EPE325      0.1081
      8  C8        15.8280   19.8000   30.3990 C.3   325  EPE325      0.1993
      9  O8        14.8540   20.0100   29.3930 O.3   325  EPE325     -0.2189
     10  C9        18.0140   14.8100   26.8130 C.3   325  EPE325      0.0939
     11  C10       19.1050   15.4920   25.9740 C.3   325  EPE325      0.1225
     12  S         20.0990   14.1720   25.2540 S.3   325  EPE325     -0.1946
     13  O1S       20.6750   13.4240   26.3870 O.3   325  EPE325     -0.3074
     14  O2S       19.1310   13.3690   24.4810 O.3   325  EPE325     -0.3074
     15  O3S       21.2020   14.6970   24.4510 O.3   325  EPE325     -0.3074
@<TRIPOS>BOND
     1    15    12    1
     2    14    12    1
     3    12    11    1
     4    12    13    1
     5    11    10    1
     6    10     1    1
     7     6     1    1
     8     6     5    1
     9     1     2    1
    10     2     3    1
    11     5     4    1
    12     9     8    1
    13     4     3    1
    14     4     7    1
    15     8     7    1
