@<TRIPOS>MOLECULE
3e4v_FMN_A_1.pdb
 31 33 0 0 0
SMALL
GASTEIGER

@<TRIPOS>ATOM
      1  N1        30.9000   61.3790    9.7880 N.2   300  FMN300     -0.2887
      2  C2        30.3110   60.2740    9.2420 C.1   300  FMN300      0.3669
      3  O2        30.2060   59.2060    9.8850 O.2   300  FMN300     -0.1744
      4  N3        29.7870   60.3160    7.9600 N.2   300  FMN300     -0.2300
      5  C4        29.8440   61.4320    7.1680 C.1   300  FMN300      0.2513
      6  O4        29.3080   61.4130    6.0170 O.2   300  FMN300     -0.2057
      7  C4A       30.4490   62.5860    7.7120 C.2   300  FMN300      0.2703
      8  N5        30.5130   63.7770    6.9900 N.2   300  FMN300     -0.3882
      9  C5A       31.0000   64.9200    7.6290 C.2   300  FMN300      0.1277
     10  C6        30.9870   66.1430    6.9620 C.3   300  FMN300      0.0820
     11  C7        31.5230   67.3020    7.5430 C.2   300  FMN300     -0.0408
     12  C7M       31.3740   68.6390    6.8320 C.3   300  FMN300      0.0265
     13  C8        31.9950   67.2280    8.8770 C.2   300  FMN300     -0.0280
     14  C8M       32.3960   68.4930    9.5910 C.3   300  FMN300      0.0304
     15  C9        31.9680   66.0190    9.5620 C.2   300  FMN300      0.0123
     16  C9A       31.4790   64.8690    8.9500 C.2   300  FMN300      0.0793
     17  N10       31.4920   63.6430    9.6360 N.pl3 300  FMN300     -0.2545
     18  C10       30.9060   62.5490    9.0630 C.2   300  FMN300      0.2449
     19  C1'       32.1270   63.4280   10.9670 C.3   300  FMN300      0.1336
     20  C2'       31.1020   63.5190   12.1100 C.3   300  FMN300      0.2048
     21  O2'       30.2170   64.5900   11.9280 O.3   300  FMN300     -0.2185
     22  C3'       31.9310   63.7400   13.3890 C.3   300  FMN300      0.2165
     23  O3'       32.7330   62.5990   13.6600 O.3   300  FMN300     -0.2175
     24  C4'       31.1230   64.1320   14.6120 C.3   300  FMN300      0.2147
     25  O4'       32.0270   64.6570   15.5930 O.3   300  FMN300     -0.2176
     26  C5'       30.3760   62.9510   15.2330 C.3   300  FMN300      0.1892
     27  O5'       29.5810   63.4340   16.3100 O.3   300  FMN300     -0.2674
     28  P         29.1160   62.3740   17.4600 P.3   300  FMN300      0.5327
     29  O1P       28.4280   63.2360   18.4700 O.3   300  FMN300     -0.1145
     30  O2P       28.2020   61.3620   16.8310 O.2   300  FMN300     -0.2224
     31  O3P       30.3630   61.7050   18.0200 O.3   300  FMN300     -0.1145
@<TRIPOS>BOND
     1     6     5    2
     2    12    11    1
     3    10    11    1
     4    10     9    1
     5     8     9    2
     6     8     7    2
     7     5     7    1
     8     5     4    2
     9    11    13    2
    10     9    16    1
    11     7    18    1
    12     4     2    2
    13    13    15    1
    14    13    14    1
    15    16    15    2
    16    16    17    1
    17    18    17    1
    18    18     1    2
    19     2     1    2
    20     2     3    2
    21    17    19    1
    22    19    20    1
    23    21    20    1
    24    20    22    1
    25    22    23    1
    26    22    24    1
    27    24    26    1
    28    24    25    1
    29    26    27    1
    30    27    28    1
    31    30    28    2
    32    28    31    1
    33    28    29    1
