@<TRIPOS>MOLECULE
3e4w_HEM_A_1.pdb
 43 50 0 0 0
SMALL
GASTEIGER

@<TRIPOS>ATOM
      1  CHA       -4.2140   35.7680   14.7090 C.2   501  HEM501      0.0000
      2  CHB       -1.1820   32.4830   16.4520 C.2   501  HEM501      0.0000
      3  CHC        2.2550   35.7810   16.6420 C.2   501  HEM501      0.0000
      4  CHD       -0.7600   39.0620   14.9740 C.2   501  HEM501      0.0000
      5  C1A       -3.6790   34.5720   15.1370 C.2   501  HEM501      0.0000
      6  C2A       -4.3770   33.3000   15.1970 C.2   501  HEM501      0.0000
      7  C3A       -3.5220   32.3900   15.7040 C.2   501  HEM501      0.0000
      8  C4A       -2.2950   33.0650   15.9410 C.2   501  HEM501      0.0000
      9  CMA       -3.8130   30.9060   15.9660 C.3   501  HEM501      0.0000
     10  CAA       -5.8200   33.0050   14.7670 C.3   501  HEM501      0.0000
     11  CBA       -5.5830   32.6190   13.2330 C.3   501  HEM501      0.0000
     12  CGA       -6.7650   32.2330   12.3500 C.2   501  HEM501      0.0000
     13  O1A       -7.4210   31.2690   12.5510 O.co2 501  HEM501      0.0000
     14  O2A       -7.0630   32.9790   11.2990 O.co2 501  HEM501      0.0000
     15  C1B        0.0230   33.1100   16.6710 C.ar  501  HEM501      0.0000
     16  C2B        1.1550   32.4120   17.2250 C.ar  501  HEM501      0.0000
     17  C3B        2.1660   33.3020   17.2960 C.ar  501  HEM501      0.0000
     18  C4B        1.5760   34.5990   16.7540 C.ar  501  HEM501      0.0000
     19  CMB        1.1980   30.9370   17.6500 C.3   501  HEM501      0.0000
     20  CAB        3.5610   33.0190   17.8130 C.2   501  HEM501      0.0000
     21  CBB        4.4780   32.2660   17.2250 C.2   501  HEM501      0.0000
     22  C1C        1.7490   36.9510   16.1860 C.2   501  HEM501      0.0000
     23  C2C        2.4920   38.1750   16.0930 C.2   501  HEM501      0.0000
     24  C3C        1.6460   39.1300   15.6200 C.2   501  HEM501      0.0000
     25  C4C        0.3650   38.4620   15.4210 C.2   501  HEM501      0.0000
     26  CMC        3.9620   38.3930   16.4600 C.3   501  HEM501      0.0000
     27  CAC        2.0140   40.5810   15.3750 C.2   501  HEM501      0.0000
     28  CBC        1.9400   41.1870   14.2030 C.2   501  HEM501      0.0000
     29  C1D       -1.9700   38.4360   14.7790 C.ar  501  HEM501      0.0000
     30  C2D       -3.1680   39.1730   14.3050 C.ar  501  HEM501      0.0000
     31  C3D       -4.1390   38.2980   14.2180 C.ar  501  HEM501      0.0000
     32  C4D       -3.5340   36.9710   14.6540 C.ar  501  HEM501      0.0000
     33  CMD       -3.2540   40.6690   13.9840 C.3   501  HEM501      0.0000
     34  CAD       -5.5650   38.6390   13.7810 C.3   501  HEM501      0.0000
     35  CBD       -6.0930   37.8490   12.5950 C.3   501  HEM501      0.0000
     36  CGD       -7.5100   38.2690   12.2370 C.2   501  HEM501      0.0000
     37  O1D       -8.1140   39.1540   12.8230 O.co2 501  HEM501      0.0000
     38  O2D       -8.1090   37.6420   11.2560 O.co2 501  HEM501      0.0000
     39  NA        -2.3710   34.4130   15.5710 N.2   501  HEM501      0.0000
     40  NB         0.2850   34.4110   16.4010 N.ar  501  HEM501      0.0000
     41  NC         0.4540   37.1270   15.7540 N.2   501  HEM501      0.0000
     42  ND        -2.2350   37.1380   14.9840 N.ar  501  HEM501      0.0000
     43 FE         -0.9640   35.7630   15.6390 Fe    501  HEM501      0.0000
@<TRIPOS>BOND
     1    38    36   ar
     2    14    12   ar
     3    36    35    1
     4    36    37   ar
     5    12    13   ar
     6    12    11    1
     7    35    34    1
     8    11    10    1
     9    34    31    1
    10    33    30    1
    11    28    27    2
    12    31    30   ar
    13    31    32   ar
    14    30    29   ar
    15    32     1    2
    16    32    42   ar
    17     1     5    1
    18    10     6    1
    19    29     4    2
    20    29    42   ar
    21     4    25    1
    22    42    43    1
    23     5     6    1
    24     5    39    2
    25     6     7    2
    26    27    24    1
    27    25    24    1
    28    25    41    2
    29    39    43    1
    30    39     8    1
    31    24    23    2
    32    43    41    1
    33    43    40    1
    34     7     8    1
    35     7     9    1
    36    41    22    1
    37     8     2    2
    38    23    22    1
    39    23    26    1
    40    22     3    2
    41    40    15   ar
    42    40    18   ar
    43     2    15    1
    44     3    18    1
    45    15    16   ar
    46    18    17   ar
    47    21    20    2
    48    16    17   ar
    49    16    19    1
    50    17    20    1
