@<TRIPOS>MOLECULE
3e4y_HEM_A_1.pdb
 43 50 0 0 0
SMALL
GASTEIGER

@<TRIPOS>ATOM
      1  CHA       29.3910   -0.6110   17.0270 C.2   501  HEM501      0.0000
      2  CHB       32.3630   -3.8120   19.0210 C.2   501  HEM501      0.0000
      3  CHC       35.8680   -0.5700   19.0060 C.2   501  HEM501      0.0000
      4  CHD       32.9030    2.6580   17.0560 C.2   501  HEM501      0.0000
      5  C1A       29.9150   -1.7790   17.5460 C.2   501  HEM501      0.0000
      6  C2A       29.2100   -3.0380   17.6900 C.2   501  HEM501      0.0000
      7  C3A       30.0490   -3.9160   18.2590 C.2   501  HEM501      0.0000
      8  C4A       31.2730   -3.2420   18.4630 C.2   501  HEM501      0.0000
      9  CMA       29.7380   -5.3800   18.6140 C.3   501  HEM501      0.0000
     10  CAA       27.7770   -3.3690   17.2830 C.3   501  HEM501      0.0000
     11  CBA       27.9870   -3.8760   15.7880 C.3   501  HEM501      0.0000
     12  CGA       26.7740   -4.3290   15.0000 C.2   501  HEM501      0.0000
     13  O1A       26.0190   -5.1430   15.4120 O.co2 501  HEM501      0.0000
     14  O2A       26.5520   -3.8200   13.8070 O.co2 501  HEM501      0.0000
     15  C1B       33.5640   -3.1970   19.2110 C.ar  501  HEM501      0.0000
     16  C2B       34.6710   -3.8840   19.8100 C.ar  501  HEM501      0.0000
     17  C3B       35.6970   -3.0250   19.8350 C.ar  501  HEM501      0.0000
     18  C4B       35.1530   -1.7400   19.2060 C.ar  501  HEM501      0.0000
     19  CMB       34.6820   -5.3290   20.3170 C.3   501  HEM501      0.0000
     20  CAB       37.0610   -3.3390   20.3760 C.2   501  HEM501      0.0000
     21  CBB       38.0630   -3.8400   19.6720 C.2   501  HEM501      0.0000
     22  C1C       35.3890    0.5950   18.4500 C.2   501  HEM501      0.0000
     23  C2C       36.1610    1.7980   18.2520 C.2   501  HEM501      0.0000
     24  C3C       35.3300    2.7350   17.6980 C.2   501  HEM501      0.0000
     25  C4C       34.0300    2.0780   17.5570 C.2   501  HEM501      0.0000
     26  CMC       37.6330    2.0110   18.5960 C.3   501  HEM501      0.0000
     27  CAC       35.7220    4.1530   17.3290 C.2   501  HEM501      0.0000
     28  CBC       35.6540    4.6560   16.1010 C.2   501  HEM501      0.0000
     29  C1D       31.6690    2.0330   16.9080 C.ar  501  HEM501      0.0000
     30  C2D       30.4810    2.7410   16.3620 C.ar  501  HEM501      0.0000
     31  C3D       29.4960    1.8740   16.3380 C.ar  501  HEM501      0.0000
     32  C4D       30.0800    0.5800   16.8860 C.ar  501  HEM501      0.0000
     33  CMD       30.4180    4.1980   15.9160 C.3   501  HEM501      0.0000
     34  CAD       28.0750    2.1960   15.8520 C.3   501  HEM501      0.0000
     35  CBD       27.5500    1.3450   14.7000 C.3   501  HEM501      0.0000
     36  CGD       26.1320    1.7460   14.3250 C.2   501  HEM501      0.0000
     37  O1D       25.5280    2.6440   14.8830 O.co2 501  HEM501      0.0000
     38  O2D       25.5260    1.0850   13.3610 O.co2 501  HEM501      0.0000
     39  NA        31.2200   -1.9130   18.0080 N.2   501  HEM501      0.0000
     40  NB        33.8540   -1.9150   18.8630 N.ar  501  HEM501      0.0000
     41  NC        34.0970    0.7730   18.0070 N.2   501  HEM501      0.0000
     42  ND        31.3810    0.7600   17.2220 N.ar  501  HEM501      0.0000
     43 FE         32.6470   -0.5480   18.0150 Fe    501  HEM501      0.0000
@<TRIPOS>BOND
     1    38    36   ar
     2    14    12   ar
     3    36    35    1
     4    36    37   ar
     5    35    34    1
     6    12    13   ar
     7    12    11    1
     8    11    10    1
     9    34    31    1
    10    33    30    1
    11    28    27    2
    12    31    30   ar
    13    31    32   ar
    14    30    29   ar
    15    32     1    2
    16    32    42   ar
    17    29     4    2
    18    29    42   ar
    19     1     5    1
    20     4    25    1
    21    42    43    1
    22    10     6    1
    23    27    24    1
    24     5     6    1
    25     5    39    2
    26    25    24    1
    27    25    41    2
    28     6     7    2
    29    24    23    2
    30    41    43    1
    31    41    22    1
    32    39    43    1
    33    39     8    1
    34    43    40    1
    35    23    22    1
    36    23    26    1
    37     7     8    1
    38     7     9    1
    39    22     3    2
    40     8     2    2
    41    40    18   ar
    42    40    15   ar
    43     3    18    1
    44     2    15    1
    45    18    17   ar
    46    15    16   ar
    47    21    20    2
    48    16    17   ar
    49    16    19    1
    50    17    20    1
