@<TRIPOS>MOLECULE
3e4z_III_C_1.pdb
 15 14 0 0 0
SMALL
GASTEIGER

@<TRIPOS>ATOM
      1  N        110.9800  -62.2120   -3.2590 N.3     1  ALA1       -0.1231
      2  CA       111.6540  -61.4500   -4.3370 C.3     1  ALA1        0.1694
      3  C        112.5970  -60.3880   -3.7550 C.2     1  ALA1        0.2592
      4  O        112.3190  -59.8260   -2.6970 O.2     1  ALA1       -0.2718
      5  CB       110.6180  -60.8060   -5.2760 C.3     1  ALA1        0.0304
      6  N        113.7110  -60.1450   -4.4530 N.am    2  TYR2       -0.1966
      7  CA       114.6630  -59.0870   -4.0980 C.3     2  TYR2        0.1728
      8  C        114.2070  -57.7080   -4.5840 C.2     2  TYR2        0.2616
      9  O        113.6680  -57.5690   -5.6940 O.2     2  TYR2       -0.2715
     10  CB       116.0750  -59.4050   -4.6540 C.3     2  TYR2        0.0334
     11  N        114.4240  -56.7130   -3.7190 N.am    3  ARG3       -0.1977
     12  CA       114.3410  -55.2550   -4.0060 C.3     3  ARG3        0.1597
     13  C        113.0950  -54.5850   -3.4490 C.2     3  ARG3        0.2287
     14  O        113.1790  -53.8650   -2.4450 O.2     3  ARG3       -0.2864
     15  CB       114.5570  -54.9050   -5.5140 C.3     3  ARG3        0.0319
@<TRIPOS>BOND
     1     9     8    2
     2    15    12    1
     3     5     2    1
     4    10     7    1
     5     8     7    1
     6     8    11   am
     7     6     7    1
     8     6     3   am
     9     2     3    1
    10     2     1    1
    11    12    11    1
    12    12    13    1
    13     3     4    2
    14    13    14    2
