@<TRIPOS>MOLECULE
3e50_III_C_1.pdb
 35 35 0 0 0
SMALL
GASTEIGER

@<TRIPOS>ATOM
      1  N          1.8140 -126.5130   33.5640 N.3     1  VAL1       -0.1231
      2  CA         2.8390 -126.7730   32.5280 C.3     1  VAL1        0.1692
      3  C          4.2520 -127.0020   33.1740 C.2     1  VAL1        0.2592
      4  O          4.5540 -126.4650   34.2610 O.2     1  VAL1       -0.2718
      5  CB         2.8300 -125.6330   31.3870 C.3     1  VAL1        0.0266
      6  CG1        3.3570 -124.2870   31.8530 C.3     1  VAL1        0.0020
      7  CG2        3.5900 -126.0600   30.0800 C.3     1  VAL1        0.0020
      8  N          5.0840 -127.8240   32.5160 N.am    2  VAL2       -0.1966
      9  CA         6.5250 -127.9910   32.8720 C.3     2  VAL2        0.1727
     10  C          7.3120 -126.7470   32.4770 C.2     2  VAL2        0.2617
     11  O          7.1400 -126.2050   31.3740 O.2     2  VAL2       -0.2715
     12  CB         7.1850 -129.2920   32.2490 C.3     2  VAL2        0.0290
     13  CG1        8.5670 -129.6620   32.8980 C.3     2  VAL2        0.0023
     14  CG2        6.2810 -130.4730   32.4200 C.3     2  VAL2        0.0023
     15  N          8.1450 -126.2900   33.4060 N.am    3  SER3       -0.1936
     16  CA         9.0420 -125.1690   33.2000 C.3     3  SER3        0.2055
     17  C          9.9420 -125.4500   32.0050 C.2     3  SER3        0.2643
     18  O         10.5400 -126.5170   31.9180 O.2     3  SER3       -0.2714
     19  CB         9.9000 -124.9350   34.4460 C.3     3  SER3        0.2130
     20  OG        10.6410 -123.7390   34.2800 O.3     3  SER3       -0.2179
     21  N         10.0060 -124.4990   31.0830 N.am    4  HIS4       -0.1959
     22  CA        10.7530 -124.6390   29.8330 C.3     4  HIS4        0.1784
     23  C         11.0970 -123.1720   29.4920 C.2     4  HIS4        0.2620
     24  O         11.5140 -122.4530   30.4110 O.2     4  HIS4       -0.2715
     25  CB         9.8960 -125.3440   28.7330 C.3     4  HIS4        0.0745
     26  CG        10.0350 -126.8490   28.6790 C.2     4  HIS4        0.0653
     27  ND1        8.9620 -127.6870   28.4070 N.2     4  HIS4       -0.2310
     28  CD2       11.1120 -127.6620   28.8430 C.3     4  HIS4        0.1683
     29  CE1        9.3700 -128.9480   28.4160 C.2     4  HIS4        0.1939
     30  NE2       10.6690 -128.9600   28.6810 N.2     4  HIS4       -0.2440
     31  N         10.9980 -122.6960   28.2300 N.am    5  PHE5       -0.1977
     32  CA        11.0160 -123.4710   26.9600 C.3     5  PHE5        0.1597
     33  C         12.2690 -123.0450   26.1820 C.2     5  PHE5        0.2287
     34  O         12.6430 -121.8620   26.1840 O.2     5  PHE5       -0.2864
     35  CB         9.7490 -123.2040   26.1090 C.3     5  PHE5        0.0319
@<TRIPOS>BOND
     1    35    32    1
     2    33    34    2
     3    33    32    1
     4    32    31    1
     5    31    23   am
     6    27    29    1
     7    27    26    2
     8    29    30    2
     9    26    25    1
    10    26    28    1
    11    30    28    1
    12    25    22    1
    13    23    22    1
    14    23    24    2
    15    22    21    1
    16     7     5    1
    17    21    17   am
    18    11    10    2
    19     5     6    1
    20     5     2    1
    21    18    17    2
    22    17    16    1
    23    12    14    1
    24    12     9    1
    25    12    13    1
    26    10     9    1
    27    10    15   am
    28     8     9    1
    29     8     3   am
    30     2     3    1
    31     2     1    1
    32     3     4    2
    33    16    15    1
    34    16    19    1
    35    20    19    1
