@<TRIPOS>MOLECULE
3e51_N35_A_1.pdb
 35 38 0 0 0
SMALL
GASTEIGER

@<TRIPOS>ATOM
      1  C4        95.2570    8.9480   59.1710 C.2   579  N35579      0.1481
      2  C5        95.8990    9.3180   61.8860 C.2   579  N35579      0.0886
      3  C6        96.0900    8.0420   59.8340 C.3   579  N35579      0.2293
      4  C7        95.5570    8.4810   55.5320 C.3   579  N35579      0.2201
      5  C8        96.1620    7.7070   54.6020 C.3   579  N35579      0.2818
      6  C10       96.3120    8.2730   53.2150 C.2   579  N35579      0.3546
      7  C13       98.4750    7.4930   50.3430 C.3   579  N35579      0.0551
      8  C15       97.3690    8.3310   50.9740 C.3   579  N35579      0.2023
      9  C17       91.2350   10.3850   54.3870 C.3   579  N35579      0.0001
     10  C20       94.2360   11.2490   53.3580 C.3   579  N35579      0.1445
     11  C21       92.0010    9.8820   53.1600 C.3   579  N35579      0.0018
     12  O32       95.9500    7.0280   63.7500 O.2   579  N35579     -0.1528
     13  S35       96.4050    8.2580   64.3420 S.O2  579  N35579      0.0750
     14  O31       95.9290    8.6290   65.6640 O.2   579  N35579     -0.1528
     15  C18       98.1770    8.1780   64.5060 C.3   579  N35579      0.2016
     16  N27       96.1870    9.5690   63.2670 N.pl3 579  N35579     -0.1009
     17  C2        95.0640   10.2210   61.2350 C.2   579  N35579      0.0201
     18  C3        96.4340    8.2130   61.1910 C.2   579  N35579      0.0244
     19  S34       96.7070    6.6620   58.9340 S.O2  579  N35579      0.0978
     20  O29       98.1090    6.5800   59.2500 O.2   579  N35579     -0.1496
     21  O30       95.8100    5.5480   59.1710 O.2   579  N35579     -0.1496
     22  N24       96.5600    7.1620   57.3200 N.2   579  N35579     -0.0691
     23  C9        95.6430    8.1950   56.9740 C.1   579  N35579      0.0934
     24  N22       94.8950    8.8380   57.8270 N.2   579  N35579     -0.3551
     25  C1        94.7510   10.0470   59.8920 C.2   579  N35579      0.0320
     26  C11       94.7450    9.6410   55.0980 C.2   579  N35579      0.2802
     27  O28       94.0400   10.2280   55.9200 O.2   579  N35579     -0.2702
     28  N26       94.9000   10.0320   53.7830 N.am  579  N35579     -0.0844
     29  C19       92.9580   10.9350   52.5770 C.3   579  N35579      0.0259
     30  C16       91.0180    9.3900   52.0920 C.3   579  N35579      0.0001
     31  N23       95.6830    9.3740   52.8810 N.2   579  N35579      0.0488
     32  O33       96.5430    6.4040   54.8350 O.3   579  N35579     -0.2082
     33  N25       97.0630    7.6740   52.2420 N.pl3 579  N35579     -0.1904
     34  C14       98.0460    6.6220   52.4840 C.3   579  N35579      0.2023
     35  C12       99.2080    6.9910   51.5720 C.3   579  N35579      0.0551
@<TRIPOS>BOND
     1     7     8    1
     2     7    35    1
     3     8    33    1
     4    35    34    1
     5    30    11    1
     6    33    34    1
     7    33     6    1
     8    29    11    1
     9    29    10    1
    10    31     6    2
    11    31    28    1
    12    11     9    1
    13     6     5    1
    14    10    28    1
    15    28    26   am
    16     5    32    1
    17     5     4    1
    18    26     4    1
    19    26    27    2
    20     4    23    1
    21    23    22    2
    22    23    24    2
    23    22    19    1
    24    24     1    2
    25    19    21    2
    26    19    20    2
    27    19     3    1
    28     1     3    1
    29     1    25    1
    30     3    18    1
    31    25    17    2
    32    18     2    2
    33    17     2    1
    34     2    16    1
    35    16    13    1
    36    12    13    2
    37    13    15    1
    38    13    14    2
