@<TRIPOS>MOLECULE
3e55_HEM_A_1.pdb
 43 50 0 0 0
SMALL
GASTEIGER

@<TRIPOS>ATOM
      1 FE         -0.5690    6.8340   15.3690 Fe    156  HEM156      0.0000
      2  CHA       -0.4970    9.9650   16.7330 C.2   156  HEM156      0.0000
      3  CHB       -4.0020    6.8200   15.5460 C.2   156  HEM156      0.0000
      4  CHC       -0.6800    3.6800   14.0760 C.2   156  HEM156      0.0000
      5  CHD        2.7860    6.7820   15.2770 C.2   156  HEM156      0.0000
      6  NA        -1.9910    8.1290   15.9910 N.2   156  HEM156      0.0000
      7  C1A       -1.7480    9.3850   16.5150 C.2   156  HEM156      0.0000
      8  C2A       -3.0350   10.0230   16.7860 C.2   156  HEM156      0.0000
      9  C3A       -4.0160    9.1520   16.4630 C.2   156  HEM156      0.0000
     10  C4A       -3.3590    7.9650   15.9780 C.2   156  HEM156      0.0000
     11  CMA       -5.5300    9.3000   16.5460 C.3   156  HEM156      0.0000
     12  CAA       -3.1730   11.4440   17.2850 C.3   156  HEM156      0.0000
     13  CBA       -3.7290   12.3280   16.1510 C.3   156  HEM156      0.0000
     14  CGA       -2.8250   12.3830   14.9290 C.2   156  HEM156      0.0000
     15  O1A       -3.2430   12.0000   13.8060 O.co2 156  HEM156      0.0000
     16  O2A       -1.6390   12.7550   15.0920 O.co2 156  HEM156      0.0000
     17  NB        -2.0500    5.4960   14.8680 N.ar  156  HEM156      0.0000
     18  C1B       -3.4210    5.6860   15.0240 C.ar  156  HEM156      0.0000
     19  C2B       -4.0960    4.5210   14.5310 C.ar  156  HEM156      0.0000
     20  C3B       -3.1870    3.6400   14.1410 C.ar  156  HEM156      0.0000
     21  C4B       -1.8900    4.2510   14.3320 C.ar  156  HEM156      0.0000
     22  CMB       -5.6490    4.4250   14.5150 C.3   156  HEM156      0.0000
     23  CAB       -3.3320    2.2610   13.6120 C.2   156  HEM156      0.0000
     24  CBB       -4.2580    1.3920   13.9810 C.2   156  HEM156      0.0000
     25  NC         0.8000    5.4980   14.7270 N.2   156  HEM156      0.0000
     26  C1C        0.6110    4.1930   14.2810 C.2   156  HEM156      0.0000
     27  C2C        1.8440    3.5110   14.1330 C.2   156  HEM156      0.0000
     28  C3C        2.8010    4.3850   14.5120 C.2   156  HEM156      0.0000
     29  C4C        2.1840    5.6330   14.8650 C.2   156  HEM156      0.0000
     30  CMC        2.0310    2.0890   13.6760 C.3   156  HEM156      0.0000
     31  CAC        4.3360    4.2420   14.6520 C.2   156  HEM156      0.0000
     32  CBC        4.9940    3.1230   14.3990 C.2   156  HEM156      0.0000
     33  ND         0.8890    8.1440   15.8510 N.ar  156  HEM156      0.0000
     34  C1D        2.2420    7.9160   15.7540 C.ar  156  HEM156      0.0000
     35  C2D        2.9770    9.0420   16.2780 C.ar  156  HEM156      0.0000
     36  C3D        1.9900    9.9930   16.7480 C.ar  156  HEM156      0.0000
     37  C4D        0.7180    9.3980   16.4440 C.ar  156  HEM156      0.0000
     38  CMD        4.4680    9.1980   16.3270 C.3   156  HEM156      0.0000
     39  CAD        2.2530   11.2910   17.4830 C.3   156  HEM156      0.0000
     40  CBD        2.3960   10.8510   18.9820 C.3   156  HEM156      0.0000
     41  CGD        2.8200   11.9940   19.8240 C.2   156  HEM156      0.0000
     42  O1D        4.0890   12.2880   19.8480 O.co2 156  HEM156      0.0000
     43  O2D        1.8700   12.5410   20.4600 O.co2 156  HEM156      0.0000
@<TRIPOS>BOND
     1    23    24    2
     2    23    20    1
     3    30    27    1
     4    15    14   ar
     5     4    26    2
     6     4    21    1
     7    27    26    1
     8    27    28    2
     9    20    21   ar
    10    20    19   ar
    11    26    25    1
    12    21    17   ar
    13    32    31    2
    14    28    31    1
    15    28    29    1
    16    22    19    1
    17    19    18   ar
    18    25    29    2
    19    25     1    1
    20    29     5    1
    21    17    18   ar
    22    17     1    1
    23    14    16   ar
    24    14    13    1
    25    18     3    1
    26     5    34    2
    27     1    33    1
    28     1     6    1
    29     3    10    2
    30    34    33   ar
    31    34    35   ar
    32    33    37   ar
    33    10     6    1
    34    10     9    1
    35     6     7    2
    36    13    12    1
    37    35    38    1
    38    35    36   ar
    39    37     2    2
    40    37    36   ar
    41     9    11    1
    42     9     8    2
    43     7     2    1
    44     7     8    1
    45    36    39    1
    46     8    12    1
    47    39    40    1
    48    40    41    1
    49    41    42   ar
    50    41    43   ar
