@<TRIPOS>MOLECULE
3e5a_VX6_A_1.pdb
 33 37 0 0 0
SMALL
GASTEIGER

@<TRIPOS>ATOM
      1  N1        19.6200   30.1200   22.3550 N.3   500  VX6500     -0.2686
      2  C2        19.7830   30.5820   20.9840 C.3   500  VX6500      0.0939
      3  C3        20.9270   29.9790   20.1990 C.3   500  VX6500      0.1102
      4  N4        22.0990   29.7310   21.0000 N.pl3 500  VX6500     -0.2830
      5  C5        22.0710   29.5120   22.4450 C.3   500  VX6500      0.1102
      6  C6        20.6470   29.2200   22.9030 C.3   500  VX6500      0.0939
      7  C7        18.3720   29.3940   22.3790 C.3   500  VX6500      0.0897
      8  C8        23.1650   29.1720   20.3010 C.2   500  VX6500      0.1843
      9  C9        23.1590   29.2090   18.9250 C.3   500  VX6500      0.1825
     10  C10       24.2540   28.6580   18.2810 C.2   500  VX6500      0.3106
     11  N11       25.2720   28.1060   18.9740 N.2   500  VX6500     -0.2951
     12  C12       25.1980   28.1080   20.3020 C.1   500  VX6500      0.1763
     13  N13       24.1920   28.6370   20.9770 N.2   500  VX6500     -0.3233
     14  N14       24.2240   28.7180   16.8590 N.pl3 500  VX6500      0.0224
     15  C15       25.1960   28.4090   15.9440 C.2   500  VX6500      0.3768
     16  C17       26.4660   27.8600   16.2610 C.3   500  VX6500      0.1690
     17  C18       27.1140   27.6860   15.0580 C.2   500  VX6500      0.0959
     18  N19       26.2480   28.1310   14.0960 N.2   500  VX6500     -0.0426
     19  N20       25.0830   28.5620   14.6120 N.2   500  VX6500      0.0793
     20  C21       28.4420   27.1460   14.7240 C.3   500  VX6500      0.0520
     21  S23       26.5280   27.4320   21.2800 S.3   500  VX6500      0.0090
     22  C24       27.2630   26.3420   20.1030 C.ar  500  VX6500      0.0409
     23  C25       28.3750   26.7520   19.4030 C.ar  500  VX6500      0.0085
     24  C26       28.9350   25.9230   18.4640 C.ar  500  VX6500      0.0171
     25  C27       28.3870   24.6830   18.2430 C.ar  500  VX6500      0.0734
     26  C28       27.2870   24.2590   18.9590 C.ar  500  VX6500      0.0171
     27  C29       26.7250   25.0940   19.8910 C.ar  500  VX6500      0.0085
     28  N30       28.9160   23.7940   17.2970 N.am  500  VX6500     -0.1792
     29  C31       30.1000   23.9530   16.6000 C.2   500  VX6500      0.2451
     30  O32       30.9990   24.8020   16.7420 O.2   500  VX6500     -0.2730
     31  C33       30.2040   22.9020   15.5680 C.3   500  VX6500      0.0786
     32  C34       31.0310   23.2190   14.3610 C.3   500  VX6500      0.0096
     33  C35       31.5330   22.2310   15.3760 C.3   500  VX6500      0.0096
@<TRIPOS>BOND
     1    18    19    1
     2    18    17    2
     3    32    33    1
     4    32    31    1
     5    19    15    2
     6    20    17    1
     7    17    16    1
     8    33    31    1
     9    31    29    1
    10    15    16    1
    11    15    14    1
    12    29    30    2
    13    29    28   am
    14    14    10    1
    15    28    25    1
    16    25    24   ar
    17    25    26   ar
    18    10     9    1
    19    10    11    2
    20    24    23   ar
    21     9     8    1
    22    26    27   ar
    23    11    12    2
    24    23    22   ar
    25    27    22   ar
    26    22    21    1
    27     3     2    1
    28     3     4    1
    29     8    13    2
    30     8     4    1
    31    12    13    2
    32    12    21    1
    33     2     1    1
    34     4     5    1
    35     1     7    1
    36     1     6    1
    37     5     6    1
