@<TRIPOS>MOLECULE
3e5h_GNP_A_1.pdb
 32 34 0 0 0
SMALL
GASTEIGER

@<TRIPOS>ATOM
      1  PG         5.4010   -2.9260    3.0030 P.3   201  GNP201      0.4884
      2  O1G        4.3790   -1.8140    2.9260 O.2   201  GNP201     -0.2331
      3  O2G        4.8240   -4.1620    3.6370 O.3   201  GNP201     -0.1240
      4  O3G        6.6230   -2.4240    3.7210 O.3   201  GNP201     -0.1240
      5  N3B        5.8470   -3.2950    1.4790 N.3   201  GNP201     -0.0163
      6  PB         6.8310   -4.4590    0.9190 P.3   201  GNP201      0.4669
      7  O1B        8.2290   -3.9770    0.7780 O.2   201  GNP201     -0.2351
      8  O2B        6.6370   -5.6540    1.7700 O.3   201  GNP201     -0.1253
      9  O3A        6.4090   -4.8110   -0.5340 O.3   201  GNP201     -0.2360
     10  PA         5.5440   -5.9740   -1.1180 P.3   201  GNP201      0.2220
     11  O1A        6.3130   -7.2450   -1.0740 O.2   201  GNP201     -0.5170
     12  O2A        4.1930   -5.9500   -0.5120 O.3   201  GNP201     -0.4370
     13  O5'        5.4330   -5.6230   -2.6460 O.3   201  GNP201     -0.3111
     14  C5'        5.0280   -4.3070   -3.0180 C.3   201  GNP201      0.1813
     15  C4'        4.5560   -4.3180   -4.4540 C.3   201  GNP201      0.1799
     16  O4'        5.6730   -4.5960   -5.3400 O.3   201  GNP201     -0.3326
     17  C3'        3.4920   -5.3670   -4.7650 C.3   201  GNP201      0.2158
     18  O3'        2.5500   -4.8650   -5.7070 O.3   201  GNP201     -0.2175
     19  C2'        4.3240   -6.5090   -5.3510 C.3   201  GNP201      0.2310
     20  O2'        3.6090   -7.3460   -6.2370 O.3   201  GNP201     -0.2158
     21  C1'        5.3950   -5.7500   -6.1130 C.3   201  GNP201      0.2293
     22  N9         6.6460   -6.4800   -6.2580 N.pl3 201  GNP201     -0.2354
     23  C8         7.4000   -7.0400   -5.2460 C.3   201  GNP201      0.2246
     24  N7         8.4900   -7.6230   -5.6810 N.2   201  GNP201     -0.2322
     25  C5         8.4430   -7.4440   -7.0650 C.2   201  GNP201      0.2182
     26  C6         9.3470   -7.8690   -8.0720 C.1   201  GNP201      0.2372
     27  O6        10.4120   -8.4920   -7.9370 O.2   201  GNP201     -0.2069
     28  N1         8.9400   -7.4700   -9.3460 N.2   201  GNP201     -0.2485
     29  C2         7.7780   -6.7720   -9.6200 C.1   201  GNP201      0.2531
     30  N2         7.5350   -6.4870  -10.9150 N.pl3 201  GNP201     -0.0226
     31  N3         6.9180   -6.3800   -8.6850 N.2   201  GNP201     -0.3074
     32  C4         7.3150   -6.7440   -7.4330 C.2   201  GNP201      0.2300
@<TRIPOS>BOND
     1    30    29    1
     2    29    28    2
     3    29    31    2
     4    28    26    2
     5    31    32    2
     6    26    27    2
     7    26    25    1
     8    32    25    1
     9    32    22    1
    10    25    24    2
    11    22    21    1
    12    22    23    1
    13    20    19    1
    14    21    19    1
    15    21    16    1
    16    18    17    1
    17    24    23    1
    18    19    17    1
    19    16    15    1
    20    17    15    1
    21    15    14    1
    22    14    13    1
    23    13    10    1
    24    10    11    2
    25    10     9    1
    26    10    12    1
    27     9     6    1
    28     7     6    2
    29     6     5    1
    30     6     8    1
    31     5     1    1
    32     2     1    2
    33     1     3    1
    34     1     4    1
