@<TRIPOS>MOLECULE
3e5i_HEM_A_1.pdb
 43 50 0 0 0
SMALL
GASTEIGER

@<TRIPOS>ATOM
      1 FE         -0.5530    6.7030   15.4180 Fe    154  HEM154      0.0000
      2  CHA       -0.4830    9.8360   16.8580 C.2   154  HEM154      0.0000
      3  CHB       -3.9960    6.6970   15.6260 C.2   154  HEM154      0.0000
      4  CHC       -0.6570    3.6140   14.0570 C.2   154  HEM154      0.0000
      5  CHD        2.8430    6.7050   15.2470 C.2   154  HEM154      0.0000
      6  NA        -2.0110    8.0050   16.1260 N.2   154  HEM154      0.0000
      7  C1A       -1.7520    9.3190   16.6150 C.2   154  HEM154      0.0000
      8  C2A       -3.0360    9.9190   16.9520 C.2   154  HEM154      0.0000
      9  C3A       -4.0250    9.0780   16.5700 C.2   154  HEM154      0.0000
     10  C4A       -3.4260    7.8710   16.0980 C.2   154  HEM154      0.0000
     11  CMA       -5.5580    9.1660   16.6900 C.3   154  HEM154      0.0000
     12  CAA       -3.1420   11.3930   17.4480 C.3   154  HEM154      0.0000
     13  CBA       -3.7010   12.3220   16.2730 C.3   154  HEM154      0.0000
     14  CGA       -2.7730   12.3260   15.0480 C.2   154  HEM154      0.0000
     15  O1A       -3.1960   11.8950   13.9310 O.co2 154  HEM154      0.0000
     16  O2A       -1.5740   12.6840   15.2320 O.co2 154  HEM154      0.0000
     17  NB        -2.0450    5.4590   14.8730 N.ar  154  HEM154      0.0000
     18  C1B       -3.4170    5.5840   15.0420 C.ar  154  HEM154      0.0000
     19  C2B       -4.1170    4.4230   14.5360 C.ar  154  HEM154      0.0000
     20  C3B       -3.2200    3.5390   14.1150 C.ar  154  HEM154      0.0000
     21  C4B       -1.8910    4.1930   14.3530 C.ar  154  HEM154      0.0000
     22  CMB       -5.6380    4.3390   14.5600 C.3   154  HEM154      0.0000
     23  CAB       -3.3770    2.1820   13.5320 C.2   154  HEM154      0.0000
     24  CBB       -4.3360    1.3090   13.9270 C.2   154  HEM154      0.0000
     25  NC         0.8470    5.4110   14.7160 N.2   154  HEM154      0.0000
     26  C1C        0.6320    4.1070   14.2890 C.2   154  HEM154      0.0000
     27  C2C        1.8380    3.3600   14.0860 C.2   154  HEM154      0.0000
     28  C3C        2.8200    4.2220   14.4760 C.2   154  HEM154      0.0000
     29  C4C        2.2640    5.4940   14.8570 C.2   154  HEM154      0.0000
     30  CMC        1.9650    1.9140   13.6060 C.3   154  HEM154      0.0000
     31  CAC        4.3730    4.0570   14.5930 C.2   154  HEM154      0.0000
     32  CBC        4.9830    2.8990   14.3370 C.2   154  HEM154      0.0000
     33  ND         0.9010    8.0240   15.9500 N.ar  154  HEM154      0.0000
     34  C1D        2.2510    7.8430   15.7570 C.ar  154  HEM154      0.0000
     35  C2D        3.0090    8.9630   16.3150 C.ar  154  HEM154      0.0000
     36  C3D        2.0560    9.8750   16.8630 C.ar  154  HEM154      0.0000
     37  C4D        0.7500    9.2820   16.5240 C.ar  154  HEM154      0.0000
     38  CMD        4.4940    9.0700   16.3540 C.3   154  HEM154      0.0000
     39  CAD        2.2920   11.1580   17.6110 C.3   154  HEM154      0.0000
     40  CBD        2.4300   10.7680   19.1420 C.3   154  HEM154      0.0000
     41  CGD        2.7440   11.9840   19.9490 C.2   154  HEM154      0.0000
     42  O1D        3.9770   12.3440   20.0280 O.co2 154  HEM154      0.0000
     43  O2D        1.8090   12.5700   20.5060 O.co2 154  HEM154      0.0000
@<TRIPOS>BOND
     1    23    24    2
     2    23    20    1
     3    30    27    1
     4    15    14   ar
     5     4    26    2
     6     4    21    1
     7    27    26    1
     8    27    28    2
     9    20    21   ar
    10    20    19   ar
    11    26    25    1
    12    32    31    2
    13    21    17   ar
    14    28    31    1
    15    28    29    1
    16    19    22    1
    17    19    18   ar
    18    25    29    2
    19    25     1    1
    20    29     5    1
    21    17    18   ar
    22    17     1    1
    23    18     3    1
    24    14    16   ar
    25    14    13    1
    26     5    34    2
    27     1    33    1
    28     1     6    1
    29     3    10    2
    30    34    33   ar
    31    34    35   ar
    32    33    37   ar
    33    10     6    1
    34    10     9    1
    35     6     7    2
    36    13    12    1
    37    35    38    1
    38    35    36   ar
    39    37     2    2
    40    37    36   ar
    41     9    11    1
    42     9     8    2
    43     7     2    1
    44     7     8    1
    45    36    39    1
    46     8    12    1
    47    39    40    1
    48    40    41    1
    49    41    42   ar
    50    41    43   ar
