@<TRIPOS>MOLECULE
3e5j_HEM_A_1.pdb
 43 50 0 0 0
SMALL
GASTEIGER

@<TRIPOS>ATOM
      1  CHA       -2.4300   17.4810   16.5030 C.2   1408  HEM1408     0.0000
      2  CHB       -2.5980   15.6010   20.9640 C.2   1408  HEM1408     0.0000
      3  CHC       -6.4310   12.9030   19.8180 C.2   1408  HEM1408     0.0000
      4  CHD       -5.8940   14.3570   15.2430 C.2   1408  HEM1408     0.0000
      5  C1A       -2.1940   17.2320   17.8350 C.2   1408  HEM1408     0.0000
      6  C2A       -1.2260   17.8880   18.6230 C.2   1408  HEM1408     0.0000
      7  C3A       -1.2560   17.3660   19.8400 C.2   1408  HEM1408     0.0000
      8  C4A       -2.2710   16.3590   19.8710 C.2   1408  HEM1408     0.0000
      9  CMA       -0.3290   17.8020   21.0010 C.3   1408  HEM1408     0.0000
     10  CAA       -0.2860   19.0350   18.1850 C.3   1408  HEM1408     0.0000
     11  CBA        1.0310   18.4540   17.6650 C.3   1408  HEM1408     0.0000
     12  CGA        2.0090   19.5700   17.3740 C.2   1408  HEM1408     0.0000
     13  O1A        1.6810   20.8160   17.4360 O.co2 1408  HEM1408     0.0000
     14  O2A        3.1880   19.1710   17.0690 O.co2 1408  HEM1408     0.0000
     15  C1B       -3.6400   14.7240   21.0350 C.ar  1408  HEM1408     0.0000
     16  C2B       -4.0540   13.9930   22.2140 C.ar  1408  HEM1408     0.0000
     17  C3B       -5.0990   13.2340   21.9050 C.ar  1408  HEM1408     0.0000
     18  C4B       -5.3940   13.4610   20.5010 C.ar  1408  HEM1408     0.0000
     19  CMB       -3.4470   14.0370   23.6330 C.3   1408  HEM1408     0.0000
     20  CAB       -5.8410   12.3530   22.9510 C.2   1408  HEM1408     0.0000
     21  CBB       -6.7130   11.4140   22.6310 C.2   1408  HEM1408     0.0000
     22  C1C       -6.6370   13.1640   18.4990 C.2   1408  HEM1408     0.0000
     23  C2C       -7.7910   12.7220   17.7870 C.2   1408  HEM1408     0.0000
     24  C3C       -7.6030   13.1050   16.5250 C.2   1408  HEM1408     0.0000
     25  C4C       -6.3590   13.8110   16.4210 C.2   1408  HEM1408     0.0000
     26  CMC       -8.9920   11.9140   18.3810 C.3   1408  HEM1408     0.0000
     27  CAC       -8.5420   12.8780   15.3230 C.2   1408  HEM1408     0.0000
     28  CBC       -9.8380   12.5400   15.4760 C.2   1408  HEM1408     0.0000
     29  C1D       -4.8900   15.2830   15.1490 C.ar  1408  HEM1408     0.0000
     30  C2D       -4.4210   15.8220   13.9050 C.ar  1408  HEM1408     0.0000
     31  C3D       -3.3270   16.7720   14.2870 C.ar  1408  HEM1408     0.0000
     32  C4D       -3.2610   16.7340   15.7210 C.ar  1408  HEM1408     0.0000
     33  CMD       -4.8960   15.4430   12.4800 C.3   1408  HEM1408     0.0000
     34  CAD       -2.5020   17.6530   13.3540 C.3   1408  HEM1408     0.0000
     35  CBD       -3.3580   18.9130   13.1080 C.3   1408  HEM1408     0.0000
     36  CGD       -2.6440   19.7670   12.0880 C.2   1408  HEM1408     0.0000
     37  O1D       -3.1790   20.8230   11.6730 O.co2 1408  HEM1408     0.0000
     38  O2D       -1.4850   19.4170   11.7350 O.co2 1408  HEM1408     0.0000
     39  NA        -2.8710   16.2960   18.6180 N.2   1408  HEM1408     0.0000
     40  NB        -4.4850   14.3490   19.9850 N.ar  1408  HEM1408     0.0000
     41  NC        -5.7630   13.8950   17.6740 N.2   1408  HEM1408     0.0000
     42  ND        -4.1930   15.8450   16.1770 N.ar  1408  HEM1408     0.0000
     43 FE         -4.3480   15.0760   18.1330 Fe    1408  HEM1408     0.0000
@<TRIPOS>BOND
     1    37    36   ar
     2    38    36   ar
     3    36    35    1
     4    33    30    1
     5    35    34    1
     6    34    31    1
     7    30    31   ar
     8    30    29   ar
     9    31    32   ar
    10    29     4    2
    11    29    42   ar
    12     4    25    1
    13    27    28    2
    14    27    24    1
    15    32    42   ar
    16    32     1    2
    17    42    43    1
    18    25    24    1
    19    25    41    2
    20     1     5    1
    21    24    23    2
    22    14    12   ar
    23    12    13   ar
    24    12    11    1
    25    11    10    1
    26    41    43    1
    27    41    22    1
    28    23    26    1
    29    23    22    1
    30     5    39    2
    31     5     6    1
    32    43    39    1
    33    43    40    1
    34    10     6    1
    35    22     3    2
    36    39     8    1
    37     6     7    2
    38     3    18    1
    39     7     8    1
    40     7     9    1
    41     8     2    2
    42    40    18   ar
    43    40    15   ar
    44    18    17   ar
    45     2    15    1
    46    15    16   ar
    47    17    16   ar
    48    17    20    1
    49    16    19    1
    50    21    20    2
