@<TRIPOS>MOLECULE
3e5k_HEM_A_1.pdb
 43 50 0 0 0
SMALL
GASTEIGER

@<TRIPOS>ATOM
      1  CHA      -55.3230   54.0860  -28.9950 C.2   1408  HEM1408     0.0000
      2  CHB      -58.3390   53.2410  -25.4290 C.2   1408  HEM1408     0.0000
      3  CHC      -55.6430   49.6810  -23.8330 C.2   1408  HEM1408     0.0000
      4  CHD      -52.5670   50.4910  -27.5230 C.2   1408  HEM1408     0.0000
      5  C1A      -56.3480   54.0880  -28.1000 C.2   1408  HEM1408     0.0000
      6  C2A      -57.4400   55.0200  -28.2750 C.2   1408  HEM1408     0.0000
      7  C3A      -58.2350   54.8150  -27.2190 C.2   1408  HEM1408     0.0000
      8  C4A      -57.6460   53.7050  -26.5150 C.2   1408  HEM1408     0.0000
      9  CMA      -59.6000   55.4270  -26.8040 C.3   1408  HEM1408     0.0000
     10  CAA      -57.5430   56.0490  -29.4170 C.3   1408  HEM1408     0.0000
     11  CBA      -57.1980   57.4660  -28.8980 C.3   1408  HEM1408     0.0000
     12  CGA      -57.6980   58.4440  -29.9560 C.2   1408  HEM1408     0.0000
     13  O1A      -58.3800   58.1050  -30.9680 O.co2 1408  HEM1408     0.0000
     14  O2A      -57.5470   59.6900  -29.9500 O.co2 1408  HEM1408     0.0000
     15  C1B      -57.9190   52.2100  -24.6550 C.ar  1408  HEM1408     0.0000
     16  C2B      -58.5400   51.8520  -23.4130 C.ar  1408  HEM1408     0.0000
     17  C3B      -57.7320   50.8670  -23.0200 C.ar  1408  HEM1408     0.0000
     18  C4B      -56.6440   50.6290  -23.9100 C.ar  1408  HEM1408     0.0000
     19  CMB      -59.8240   52.3870  -22.7020 C.3   1408  HEM1408     0.0000
     20  CAB      -58.1320   50.0850  -21.7740 C.3   1408  HEM1408     0.0000
     21  CBB      -57.1380   49.2450  -21.6800 C.3   1408  HEM1408     0.0000
     22  C1C      -54.6460   49.5710  -24.7760 C.2   1408  HEM1408     0.0000
     23  C2C      -53.6710   48.4870  -24.8020 C.2   1408  HEM1408     0.0000
     24  C3C      -52.8740   48.7480  -25.8450 C.2   1408  HEM1408     0.0000
     25  C4C      -53.2930   49.9810  -26.4840 C.2   1408  HEM1408     0.0000
     26  CMC      -53.5060   47.2490  -23.9000 C.3   1408  HEM1408     0.0000
     27  CAC      -51.6260   47.9870  -26.2900 C.2   1408  HEM1408     0.0000
     28  CBC      -50.9630   47.1720  -25.4410 C.2   1408  HEM1408     0.0000
     29  C1D      -52.9500   51.6300  -28.1990 C.ar  1408  HEM1408     0.0000
     30  C2D      -52.1820   52.2870  -29.2420 C.ar  1408  HEM1408     0.0000
     31  C3D      -53.0690   53.4170  -29.7520 C.ar  1408  HEM1408     0.0000
     32  C4D      -54.2450   53.2570  -28.9160 C.ar  1408  HEM1408     0.0000
     33  CMD      -50.8130   51.8570  -29.7820 C.3   1408  HEM1408     0.0000
     34  CAD      -52.8480   54.4420  -30.8910 C.3   1408  HEM1408     0.0000
     35  CBD      -53.2290   53.6260  -32.1460 C.3   1408  HEM1408     0.0000
     36  CGD      -53.2650   54.5650  -33.3420 C.2   1408  HEM1408     0.0000
     37  O1D      -53.4350   54.0320  -34.4740 O.co2 1408  HEM1408     0.0000
     38  O2D      -53.1650   55.8220  -33.1400 O.co2 1408  HEM1408     0.0000
     39  NA       -56.4400   53.2740  -27.0030 N.2   1408  HEM1408     0.0000
     40  NB       -56.7910   51.5330  -24.9420 N.ar  1408  HEM1408     0.0000
     41  NC       -54.4330   50.4410  -25.8490 N.2   1408  HEM1408     0.0000
     42  ND       -54.1520   52.2710  -27.9840 N.ar  1408  HEM1408     0.0000
     43 FE        -55.3990   51.8700  -26.4630 Fe    1408  HEM1408     0.0000
@<TRIPOS>BOND
     1    37    36   ar
     2    36    38   ar
     3    36    35    1
     4    35    34    1
     5    13    12   ar
     6    34    31    1
     7    12    14   ar
     8    12    11    1
     9    33    30    1
    10    31    30   ar
    11    31    32   ar
    12    10    11    1
    13    10     6    1
    14    30    29   ar
    15     1    32    2
    16     1     5    1
    17    32    42   ar
    18     6     5    1
    19     6     7    2
    20    29    42   ar
    21    29     4    2
    22     5    39    2
    23    42    43    1
    24     4    25    1
    25     7     9    1
    26     7     8    1
    27    39     8    1
    28    39    43    1
    29     8     2    2
    30    25    41    2
    31    25    24    1
    32    43    41    1
    33    43    40    1
    34    27    24    1
    35    27    28    2
    36    41    22    1
    37    24    23    2
    38     2    15    1
    39    40    15   ar
    40    40    18   ar
    41    23    22    1
    42    23    26    1
    43    22     3    2
    44    15    16   ar
    45    18     3    1
    46    18    17   ar
    47    16    17   ar
    48    16    19    1
    49    17    20    1
    50    20    21    1
