@<TRIPOS>MOLECULE
3e5k_PIM_A_1.pdb
 11 12 0 0 0
SMALL
GASTEIGER

@<TRIPOS>ATOM
      1  N1       -53.9200   54.2470  -23.5830 N.2   501  PIM501     -0.2427
      2  C2       -54.7260   53.3170  -24.1070 C.3   501  PIM501      0.2508
      3  N3       -54.4300   53.1230  -25.3900 N.2   501  PIM501     -0.2412
      4  C4       -53.3860   53.9120  -25.6320 C.2   501  PIM501      0.1141
      5  C5       -53.0690   54.6200  -24.5400 C.2   501  PIM501      0.0970
      6  C6       -52.0390   55.5560  -24.4120 C.ar  501  PIM501      0.0188
      7  C7       -52.1340   56.6420  -23.5440 C.ar  501  PIM501      0.0015
      8  C8       -51.1000   57.5700  -23.3940 C.ar  501  PIM501      0.0000
      9  C9       -49.9590   57.4930  -24.1910 C.ar  501  PIM501      0.0000
     10  C10      -49.8230   56.3900  -25.0360 C.ar  501  PIM501      0.0000
     11  C11      -50.8470   55.4430  -25.1280 C.ar  501  PIM501      0.0015
@<TRIPOS>BOND
     1     4     3    2
     2     4     5    1
     3     3     2    1
     4    11    10   ar
     5    11     6   ar
     6    10     9   ar
     7     5     6    1
     8     5     1    2
     9     6     7   ar
    10     9     8   ar
    11     2     1    1
    12     7     8   ar
