@<TRIPOS>MOLECULE
3e5l_HEM_A_1.pdb
 43 50 0 0 0
SMALL
GASTEIGER

@<TRIPOS>ATOM
      1  CHA      -17.3700    2.9180  -15.3700 C.2   1408  HEM1408     0.0000
      2  CHB      -15.4970    2.4950  -19.8920 C.2   1408  HEM1408     0.0000
      3  CHC      -12.9530    6.7510  -19.5470 C.2   1408  HEM1408     0.0000
      4  CHD      -14.3850    6.8330  -14.8310 C.2   1408  HEM1408     0.0000
      5  C1A      -17.1280    2.5030  -16.7000 C.ar  1408  HEM1408     0.0000
      6  C2A      -17.7370    1.4430  -17.4630 C.ar  1408  HEM1408     0.0000
      7  C3A      -17.1280    1.4020  -18.6600 C.ar  1408  HEM1408     0.0000
      8  C4A      -16.2210    2.3770  -18.7110 C.ar  1408  HEM1408     0.0000
      9  CMA      -17.1820    0.4740  -19.9510 C.3   1408  HEM1408     0.0000
     10  CAA      -18.8140    0.3890  -17.0450 C.3   1408  HEM1408     0.0000
     11  CBA      -18.0080   -0.7940  -16.5130 C.3   1408  HEM1408     0.0000
     12  CGA      -19.0400   -1.9300  -16.3990 C.2   1408  HEM1408     0.0000
     13  O1A      -20.2550   -1.7180  -16.6440 O.co2 1408  HEM1408     0.0000
     14  O2A      -18.6430   -3.0800  -16.0660 O.co2 1408  HEM1408     0.0000
     15  C1B      -14.6550    3.6490  -20.1570 C.2   1408  HEM1408     0.0000
     16  C2B      -14.0250    3.9940  -21.4160 C.2   1408  HEM1408     0.0000
     17  C3B      -13.3040    5.1410  -21.2950 C.2   1408  HEM1408     0.0000
     18  C4B      -13.4960    5.5480  -19.9830 C.2   1408  HEM1408     0.0000
     19  CMB      -14.0180    3.3220  -22.8490 C.3   1408  HEM1408     0.0000
     20  CAB      -12.5790    5.8220  -22.5270 C.2   1408  HEM1408     0.0000
     21  CBB      -11.7050    6.7700  -22.5520 C.2   1408  HEM1408     0.0000
     22  C1C      -13.2050    7.2470  -18.2090 C.ar  1408  HEM1408     0.0000
     23  C2C      -12.8410    8.5240  -17.5130 C.ar  1408  HEM1408     0.0000
     24  C3C      -13.2860    8.3530  -16.2240 C.ar  1408  HEM1408     0.0000
     25  C4C      -13.9250    7.1270  -16.1060 C.ar  1408  HEM1408     0.0000
     26  CMC      -12.0780    9.7890  -18.0990 C.3   1408  HEM1408     0.0000
     27  CAC      -13.4120    9.0840  -14.7960 C.3   1408  HEM1408     0.0000
     28  CBC      -12.8820   10.4110  -14.4820 C.3   1408  HEM1408     0.0000
     29  C1D      -15.2250    5.7000  -14.4420 C.2   1408  HEM1408     0.0000
     30  C2D      -15.7610    5.2730  -13.1310 C.2   1408  HEM1408     0.0000
     31  C3D      -16.6600    4.0860  -13.4270 C.2   1408  HEM1408     0.0000
     32  C4D      -16.5790    3.9100  -14.8130 C.2   1408  HEM1408     0.0000
     33  CMD      -15.5660    5.6980  -11.6070 C.3   1408  HEM1408     0.0000
     34  CAD      -17.5650    3.0510  -12.6030 C.3   1408  HEM1408     0.0000
     35  CBD      -19.0190    3.6490  -12.4700 C.3   1408  HEM1408     0.0000
     36  CGD      -19.9240    2.7760  -11.6480 C.2   1408  HEM1408     0.0000
     37  O1D      -21.0570    3.1830  -11.2140 O.co2 1408  HEM1408     0.0000
     38  O2D      -19.5420    1.6130  -11.4610 O.co2 1408  HEM1408     0.0000
     39  NA       -16.1790    3.1060  -17.5840 N.ar  1408  HEM1408     0.0000
     40  NB       -14.2710    4.7120  -19.2170 N.2   1408  HEM1408     0.0000
     41  NC       -13.9170    6.4080  -17.2390 N.ar  1408  HEM1408     0.0000
     42  ND       -15.7770    4.7970  -15.4440 N.2   1408  HEM1408     0.0000
     43 FE        -15.1340    4.8260  -17.3910 Fe    1408  HEM1408     0.0000
@<TRIPOS>BOND
     1    19    16    1
     2    21    20    2
     3    20    17    1
     4    16    17    2
     5    16    15    1
     6    17    18    1
     7    15     2    1
     8    15    40    2
     9    18     3    2
    10    18    40    1
    11     9     7    1
    12     2     8    2
    13     3    22    1
    14    40    43    1
    15     8     7   ar
    16     8    39   ar
    17     7     6   ar
    18    22    23   ar
    19    22    41   ar
    20    26    23    1
    21    39    43    1
    22    39     5   ar
    23    23    24   ar
    24     6    10    1
    25     6     5   ar
    26    43    41    1
    27    43    42    1
    28    41    25   ar
    29    10    11    1
    30     5     1    2
    31    13    12   ar
    32    11    12    1
    33    12    14   ar
    34    24    25   ar
    35    24    27    1
    36    25     4    1
    37    42    32    2
    38    42    29    1
    39     1    32    1
    40     4    29    2
    41    32    31    1
    42    27    28    1
    43    29    30    1
    44    31    30    2
    45    31    34    1
    46    30    33    1
    47    34    35    1
    48    35    36    1
    49    36    38   ar
    50    36    37   ar
