@<TRIPOS>MOLECULE
3e5o_HEM_A_1.pdb
 43 50 0 0 0
SMALL
GASTEIGER

@<TRIPOS>ATOM
      1 FE          0.5660   -6.8260   15.3770 Fe    156  HEM156      0.0000
      2  CHA        0.4650   -9.9780   16.7510 C.2   156  HEM156      0.0000
      3  CHB        3.9930   -6.7900   15.5610 C.2   156  HEM156      0.0000
      4  CHC        0.6340   -3.6690   14.0450 C.2   156  HEM156      0.0000
      5  CHD       -2.8440   -6.8240   15.2830 C.2   156  HEM156      0.0000
      6  NA         1.9490   -8.1090   16.0150 N.2   156  HEM156      0.0000
      7  C1A        1.7480   -9.4210   16.5060 C.2   156  HEM156      0.0000
      8  C2A        3.0290  -10.0570   16.7890 C.2   156  HEM156      0.0000
      9  C3A        3.9850   -9.1530   16.4820 C.2   156  HEM156      0.0000
     10  C4A        3.3480   -7.9540   15.9800 C.2   156  HEM156      0.0000
     11  CMA        5.5050   -9.2810   16.5810 C.3   156  HEM156      0.0000
     12  CAA        3.1750  -11.4330   17.3090 C.3   156  HEM156      0.0000
     13  CBA        3.7180  -12.3680   16.1910 C.3   156  HEM156      0.0000
     14  CGA        2.8010  -12.3800   14.9520 C.2   156  HEM156      0.0000
     15  O1A        3.1990  -12.0090   13.8240 O.co2 156  HEM156      0.0000
     16  O2A        1.6010  -12.7740   15.0970 O.co2 156  HEM156      0.0000
     17  NB         2.0170   -5.5030   14.8780 N.ar  156  HEM156      0.0000
     18  C1B        3.3980   -5.6880   15.0360 C.ar  156  HEM156      0.0000
     19  C2B        4.0940   -4.5310   14.5260 C.ar  156  HEM156      0.0000
     20  C3B        3.2060   -3.6430   14.1510 C.ar  156  HEM156      0.0000
     21  C4B        1.8510   -4.2490   14.3540 C.ar  156  HEM156      0.0000
     22  CMB        5.6290   -4.3780   14.5200 C.3   156  HEM156      0.0000
     23  CAB        3.2760   -2.2580   13.5870 C.2   156  HEM156      0.0000
     24  CBB        4.2400   -1.4410   14.0130 C.2   156  HEM156      0.0000
     25  NC        -0.8410   -5.5320   14.7270 N.2   156  HEM156      0.0000
     26  C1C       -0.6420   -4.2440   14.2960 C.2   156  HEM156      0.0000
     27  C2C       -1.8710   -3.4980   14.1190 C.2   156  HEM156      0.0000
     28  C3C       -2.8460   -4.4260   14.5110 C.2   156  HEM156      0.0000
     29  C4C       -2.2630   -5.6680   14.8720 C.2   156  HEM156      0.0000
     30  CMC       -1.9740   -2.0330   13.6600 C.3   156  HEM156      0.0000
     31  CAC       -4.3780   -4.2740   14.6830 C.2   156  HEM156      0.0000
     32  CBC       -4.9910   -3.1750   14.4100 C.2   156  HEM156      0.0000
     33  ND        -0.9700   -8.1470   15.8610 N.ar  156  HEM156      0.0000
     34  C1D       -2.3210   -7.9440   15.7700 C.ar  156  HEM156      0.0000
     35  C2D       -3.0390   -9.0500   16.2710 C.ar  156  HEM156      0.0000
     36  C3D       -2.0280   -9.9580   16.7300 C.ar  156  HEM156      0.0000
     37  C4D       -0.7560   -9.3720   16.4630 C.ar  156  HEM156      0.0000
     38  CMD       -4.5080   -9.1510   16.2970 C.3   156  HEM156      0.0000
     39  CAD       -2.2390  -11.2500   17.4860 C.3   156  HEM156      0.0000
     40  CBD       -2.4090  -10.8080   18.9990 C.3   156  HEM156      0.0000
     41  CGD       -2.8020  -11.9560   19.8420 C.2   156  HEM156      0.0000
     42  O1D       -4.0710  -12.2990   19.8220 O.co2 156  HEM156      0.0000
     43  O2D       -1.8460  -12.5380   20.5060 O.co2 156  HEM156      0.0000
@<TRIPOS>BOND
     1    23    24    2
     2    23    20    1
     3    30    27    1
     4    15    14   ar
     5     4    26    2
     6     4    21    1
     7    27    26    1
     8    27    28    2
     9    20    21   ar
    10    20    19   ar
    11    26    25    1
    12    21    17   ar
    13    32    31    2
    14    28    31    1
    15    28    29    1
    16    22    19    1
    17    19    18   ar
    18    25    29    2
    19    25     1    1
    20    29     5    1
    21    17    18   ar
    22    17     1    1
    23    14    16   ar
    24    14    13    1
    25    18     3    1
    26     5    34    2
    27     1    33    1
    28     1     6    1
    29     3    10    2
    30    34    33   ar
    31    34    35   ar
    32    33    37   ar
    33    10     6    1
    34    10     9    1
    35     6     7    2
    36    13    12    1
    37    35    38    1
    38    35    36   ar
    39    37    36   ar
    40    37     2    2
    41     9    11    1
    42     9     8    2
    43     7     2    1
    44     7     8    1
    45    36    39    1
    46     8    12    1
    47    39    40    1
    48    40    41    1
    49    42    41   ar
    50    41    43   ar
