@<TRIPOS>MOLECULE
3e5p_PLP_A_1.pdb
 16 16 0 0 0
SMALL
GASTEIGER

@<TRIPOS>ATOM
      1  N1        20.4290  -22.6430  -26.2710 N.2   390  PLP390     -0.2764
      2  C2        21.6140  -21.9880  -26.1330 C.2   390  PLP390      0.0623
      3  C2A       22.2550  -21.2460  -27.2260 C.3   390  PLP390      0.0495
      4  C3        22.3030  -21.9960  -24.9530 C.3   390  PLP390      0.1945
      5  O3        23.0770  -20.9490  -24.6910 O.3   390  PLP390     -0.2166
      6  C4        21.8710  -22.6810  -23.8570 C.3   390  PLP390      0.1050
      7  C4A       22.7850  -22.6230  -22.6260 C.2   390  PLP390      0.2101
      8  O4A       23.8200  -23.2690  -22.3220 O.2   390  PLP390     -0.2882
      9  C5        20.6030  -23.2820  -23.9750 C.3   390  PLP390      0.0648
     10  C6        19.9530  -23.3180  -25.1850 C.3   390  PLP390      0.1278
     11  C5A       19.5760  -22.6280  -23.1430 C.3   390  PLP390      0.1562
     12  O4P       18.4100  -23.3490  -23.1300 O.3   390  PLP390     -0.2702
     13  P         17.4270  -22.9210  -22.0080 P.3   390  PLP390      0.5326
     14  O1P       16.2180  -23.7100  -22.1270 O.2   390  PLP390     -0.2224
     15  O2P       17.2060  -21.5190  -22.0650 O.3   390  PLP390     -0.1145
     16  O3P       18.1050  -23.1490  -20.7630 O.3   390  PLP390     -0.1145
@<TRIPOS>BOND
     1     3     2    1
     2     1     2    2
     3     1    10    1
     4     2     4    1
     5    10     9    1
     6     4     5    1
     7     4     6    1
     8     9     6    1
     9     9    11    1
    10     6     7    1
    11    11    12    1
    12    12    13    1
    13     7     8    2
    14    14    13    2
    15    15    13    1
    16    13    16    1
