@<TRIPOS>MOLECULE
3e5r_NAD_A_1.pdb
 44 48 0 0 0
SMALL
GASTEIGER

@<TRIPOS>ATOM
      1  PA        42.9680    9.0950  -18.8290 P.3   5466  NAD5466     0.2189
      2  O1A       41.8810    8.4330  -18.1040 O.3   5466  NAD5466    -0.4371
      3  O2A       42.7680   10.1990  -19.9680 O.2   5466  NAD5466    -0.5170
      4  O5B       44.4530    8.4470  -18.8080 O.3   5466  NAD5466    -0.3112
      5  C5B       45.0150    9.2600  -17.8010 C.3   5466  NAD5466     0.1813
      6  C4B       46.4460    8.9550  -17.3980 C.3   5466  NAD5466     0.1821
      7  O4B       47.5280    9.1720  -18.3930 O.3   5466  NAD5466    -0.3135
      8  C3B       46.7370    9.8470  -16.2200 C.3   5466  NAD5466     0.2184
      9  O3B       46.8050    9.0540  -15.0310 O.3   5466  NAD5466    -0.2174
     10  C2B       48.0460   10.5370  -16.5740 C.3   5466  NAD5466     0.2570
     11  O2B       48.7930   10.8140  -15.3880 O.3   5466  NAD5466    -0.2130
     12  C1B       48.6770    9.4880  -17.5180 C.3   5466  NAD5466     0.3186
     13  N9A       49.8890   10.0600  -18.1990 N.pl3 5466  NAD5466    -0.1439
     14  C8A       50.0140   11.2860  -18.8300 C.3   5466  NAD5466     0.3377
     15  N7A       51.2330   11.4430  -19.2920 N.2   5466  NAD5466    -0.2095
     16  C5A       51.9740   10.3410  -19.0050 C.2   5466  NAD5466     0.2526
     17  C6A       53.3370    9.9460  -19.2300 C.2   5466  NAD5466     0.4393
     18  N6A       54.2090   10.7870  -19.9140 N.pl3 5466  NAD5466     0.2180
     19  N1A       53.7520    8.7260  -18.7810 N.2   5466  NAD5466     0.0021
     20  C2A       52.9210    7.9000  -18.1130 C.3   5466  NAD5466     0.5254
     21  N3A       51.6390    8.2370  -17.8740 N.2   5466  NAD5466    -0.0055
     22  C4A       51.1300    9.4380  -18.2840 C.2   5466  NAD5466     0.3518
     23  O3        42.5560    7.8860  -19.9490 O.3   5466  NAD5466    -0.2703
     24  PN        41.9420    8.5490  -21.2650 P.3   5466  NAD5466     0.2189
     25  O1N       40.6350    8.3090  -20.4630 O.3   5466  NAD5466    -0.4371
     26  O2N       40.8620    7.9720  -22.2380 O.2   5466  NAD5466    -0.5170
     27  O5D       43.0010    7.5870  -22.0660 O.3   5466  NAD5466    -0.3112
     28  C5D       42.9010    8.0390  -23.4060 C.3   5466  NAD5466     0.1813
     29  C4D       43.7360    7.3010  -24.4360 C.3   5466  NAD5466     0.1799
     30  O4D       43.1380    5.9640  -24.5650 O.3   5466  NAD5466    -0.3327
     31  C3D       43.5050    8.0610  -25.7350 C.3   5466  NAD5466     0.2158
     32  O3D       44.7320    8.4020  -26.3890 O.3   5466  NAD5466    -0.2175
     33  C2D       42.6140    7.1980  -26.6180 C.3   5466  NAD5466     0.2309
     34  O2D       43.1740    6.9660  -27.9030 O.3   5466  NAD5466    -0.2158
     35  C1D       42.4220    5.8960  -25.8420 C.3   5466  NAD5466     0.2263
     36  N1N       40.9770    5.5710  -25.7180 N.pl3 5466  NAD5466    -0.2787
     37  C2N       40.1800    6.0810  -24.7200 C.3   5466  NAD5466     0.1244
     38  C3N       38.7950    5.7160  -24.6660 C.2   5466  NAD5466     0.0544
     39  C7N       37.8490    6.2250  -23.6070 C.2   5466  NAD5466     0.2818
     40  O7N       38.2290    6.9830  -22.7260 O.2   5466  NAD5466    -0.2670
     41  N7N       36.5500    5.8390  -23.6240 N.am  5466  NAD5466    -0.0839
     42  C4N       38.3100    4.8310  -25.6670 C.2   5466  NAD5466     0.0033
     43  C5N       39.1740    4.3430  -26.6650 C.2   5466  NAD5466     0.0157
     44  C6N       40.5020    4.7330  -26.6600 C.2   5466  NAD5466     0.0633
@<TRIPOS>BOND
     1    34    33    1
     2    43    44    2
     3    43    42    1
     4    44    36    1
     5    33    35    1
     6    33    31    1
     7    32    31    1
     8    35    36    1
     9    35    30    1
    10    31    29    1
    11    36    37    1
    12    42    38    2
    13    37    38    1
    14    38    39    1
    15    30    29    1
    16    29    28    1
    17    41    39   am
    18    39    40    2
    19    28    27    1
    20    26    24    2
    21    27    24    1
    22    24    25    1
    23    24    23    1
    24     3     1    2
    25    23     1    1
    26    18    17    1
    27    15    16    2
    28    15    14    1
    29    17    16    1
    30    17    19    2
    31    16    22    1
    32    14    13    1
    33     1     4    1
    34     1     2    1
    35     4     5    1
    36    19    20    1
    37     7    12    1
    38     7     6    1
    39    22    13    1
    40    22    21    2
    41    13    12    1
    42    20    21    1
    43     5     6    1
    44    12    10    1
    45     6     8    1
    46    10     8    1
    47    10    11    1
    48     8     9    1
