@<TRIPOS>MOLECULE
3e5s_THP_A_1.pdb
 25 26 0 0 0
SMALL
GASTEIGER

@<TRIPOS>ATOM
      1  P2         4.0950    7.1390   20.0850 P.3   150  THP150      0.5327
      2  O4P        4.1480    7.5850   18.6720 O.2   150  THP150     -0.2224
      3  O5P        2.7430    7.7500   20.7100 O.3   150  THP150     -0.1145
      4  O6P        5.3720    7.6370   20.9050 O.3   150  THP150     -0.1145
      5  P1         0.7750    3.3140   23.6230 P.3   150  THP150      0.5326
      6  O1P        1.4330    4.2550   24.5500 O.3   150  THP150     -0.1145
      7  O2P       -0.0350    4.1260   22.4880 O.2   150  THP150     -0.2224
      8  O3P       -0.2790    2.3450   24.3480 O.3   150  THP150     -0.1145
      9  O5'        4.0510    5.5270   20.1210 O.3   150  THP150     -0.2675
     10  C5'        3.7190    5.1090   21.4560 C.3   150  THP150      0.1857
     11  C4'        2.9930    3.7690   21.3430 C.3   150  THP150      0.1748
     12  O4'        3.4530    3.0260   20.1920 O.3   150  THP150     -0.3340
     13  C3'        3.0880    2.8740   22.6040 C.3   150  THP150      0.1600
     14  O3'        1.8200    2.2990   22.9280 O.3   150  THP150     -0.2700
     15  C2'        4.0090    1.7300   22.1120 C.3   150  THP150      0.0847
     16  C1'        3.8520    1.7090   20.5740 C.3   150  THP150      0.2089
     17  N1         5.1450    1.3760   19.9760 N.am  150  THP150     -0.1794
     18  C2         5.4330    0.0730   19.7790 C.1   150  THP150      0.2844
     19  O2         4.6090   -0.7770   20.0580 O.2   150  THP150     -0.1918
     20  N3         6.6110   -0.3020   19.2490 N.2   150  THP150     -0.2455
     21  C4         7.5500    0.6160   18.9280 C.1   150  THP150      0.2134
     22  O4         8.6180    0.2410   18.4660 O.2   150  THP150     -0.2088
     23  C5         7.2700    1.9960   19.1400 C.2   150  THP150      0.0891
     24  C5M        8.2860    3.0500   18.7690 C.3   150  THP150      0.0462
     25  C6         6.0660    2.3540   19.6530 C.2   150  THP150      0.0877
@<TRIPOS>BOND
     1    22    21    2
     2     2     1    2
     3    24    23    1
     4    21    23    1
     5    21    20    2
     6    23    25    2
     7    20    18    2
     8    25    17    1
     9    18    17   am
    10    18    19    2
    11    17    16    1
    12     1     9    1
    13     1     3    1
    14     1     4    1
    15     9    10    1
    16    12    16    1
    17    12    11    1
    18    16    15    1
    19    11    10    1
    20    11    13    1
    21    15    13    1
    22     7     5    2
    23    13    14    1
    24    14     5    1
    25     5     8    1
    26     5     6    1
