@<TRIPOS>MOLECULE
3e5u_3C4_A_1.pdb
 12 12 0 0 0
SMALL
GASTEIGER

@<TRIPOS>ATOM
      1  O2         6.5540  -11.7090  -16.6920 O.co2 501  3C4501     -0.2453
      2  C          6.5480  -10.4590  -16.8570 C.2   501  3C4501      0.3692
      3  O1         7.1750   -9.6050  -16.2030 O.co2 501  3C4501     -0.2453
      4  CG         5.7320   -9.8980  -18.0060 C.3   501  3C4501      0.1404
      5  CA         5.4550   -8.4190  -18.0390 C.ar  501  3C4501     -0.0099
      6  CD2        6.4120   -7.5900  -18.5600 C.ar  501  3C4501     -0.0004
      7  CE2        6.2620   -6.3330  -18.7320 C.ar  501  3C4501      0.0426
      8  CZ         5.0130   -5.6920  -18.3300 C.ar  501  3C4501      0.2061
      9  OH         4.7230   -4.3450  -18.4120 O.3   501  3C4501     -0.2857
     10 CL          2.4360   -5.9520  -17.3690 Cl    501  3C4501     -0.0789
     11  CE1        3.9820   -6.6290  -17.8050 C.ar  501  3C4501      0.0962
     12  CD1        4.2480   -7.9640  -17.6970 C.ar  501  3C4501      0.0109
@<TRIPOS>BOND
     1     7     6   ar
     2     7     8   ar
     3     6     5   ar
     4     9     8    1
     5     8    11   ar
     6     5     4    1
     7     5    12   ar
     8     4     2    1
     9    11    12   ar
    10    11    10    1
    11     2     1   ar
    12     2     3   ar
