@<TRIPOS>MOLECULE
3e5x_3C4_A_1.pdb
 12 12 0 0 0
SMALL
GASTEIGER

@<TRIPOS>ATOM
      1  O2        14.0060   20.4700   19.7660 O.co2 501  3C4501     -0.2453
      2  C         14.3650   20.8860   20.8720 C.2   501  3C4501      0.3692
      3  O1        15.4960   20.6300   21.2700 O.co2 501  3C4501     -0.2453
      4  CG        13.3630   21.6530   21.6930 C.3   501  3C4501      0.1404
      5  CA        13.7250   21.7530   23.1670 C.ar  501  3C4501     -0.0099
      6  CD2       14.5320   22.7740   23.5420 C.ar  501  3C4501     -0.0004
      7  CE2       14.9170   22.9440   24.7380 C.ar  501  3C4501      0.0426
      8  CZ        14.4740   22.1080   25.8460 C.ar  501  3C4501      0.2061
      9  OH        14.8190   22.2490   27.2430 O.3   501  3C4501     -0.2857
     10 CL         12.9670   19.8890   26.6280 Cl    501  3C4501     -0.0789
     11  CE1       13.5780   20.9840   25.3800 C.ar  501  3C4501      0.0962
     12  CD1       13.2210   20.8610   24.0710 C.ar  501  3C4501      0.0109
@<TRIPOS>BOND
     1     1     2   ar
     2     2     3   ar
     3     2     4    1
     4     4     5    1
     5     5     6   ar
     6     5    12   ar
     7     6     7   ar
     8    12    11   ar
     9     7     8   ar
    10    11     8   ar
    11    11    10    1
    12     8     9    1
