@<TRIPOS>MOLECULE
3e62_5B1_A_1.pdb
 11 12 0 0 0
SMALL
GASTEIGER

@<TRIPOS>ATOM
      1  C7        33.7560   40.6770   36.4760 C.3     1  5B11        0.1828
      2  C6        33.1580   39.5960   37.1320 C.2     1  5B11       -0.0012
      3  C1        33.4490   42.0510   36.3260 C.2     1  5B11        0.4267
      4  N1        32.3800   42.6610   36.8630 N.pl3   1  5B11        0.2142
      5  C5        33.7830   38.3500   37.0230 C.2     1  5B11        0.0313
      6  C4        34.9720   38.1490   36.3020 C.2     1  5B11        0.0078
      7 BR1        32.9450   36.9070   37.9130 Br      1  5B11       -0.0493
      8  C3        35.5840   39.2270   35.6420 C.2     1  5B11        0.0200
      9  C2        34.9400   40.4720   35.7550 C.2     1  5B11        0.1211
     10  N3        35.2370   41.7040   35.2440 N.2     1  5B11       -0.0378
     11  N2        34.3560   42.6620   35.5880 N.2     1  5B11        0.0844
@<TRIPOS>BOND
     1    10    11    1
     2    10     9    2
     3    11     3    2
     4     8     9    1
     5     8     6    2
     6     9     1    1
     7     6     5    1
     8     3     1    1
     9     3     4    1
    10     1     2    1
    11     5     2    2
    12     5     7    1
