@<TRIPOS>MOLECULE
3e63_5B2_A_1.pdb
 16 18 0 0 0
SMALL
GASTEIGER

@<TRIPOS>ATOM
      1  C7        33.5740   40.8000   36.3640 C.2     1  5B21        0.1106
      2  C6        32.8970   39.7530   37.0260 C.2     1  5B21       -0.0083
      3  C1        33.3570   42.1870   36.1560 C.2     1  5B21        0.4416
      4  N1        32.2990   42.8740   36.6180 N.pl3   1  5B21        0.2188
      5  C5        33.4360   38.4480   37.0140 C.3     1  5B21        0.0664
      6  C4        34.6580   38.2220   36.3380 C.2     1  5B21       -0.0160
      7  C3        35.3570   39.2480   35.6690 C.2     1  5B21        0.0193
      8  C2        34.7760   40.5240   35.7110 C.2     1  5B21        0.1346
      9  N3        35.1690   41.7250   35.1750 N.2     1  5B21       -0.0338
     10  N2        34.3220   42.7400   35.4310 N.2     1  5B21        0.0889
     11  C8        32.7160   37.3650   37.7110 C.ar    1  5B21       -0.0143
     12  C13       32.0970   37.6000   38.9650 C.ar    1  5B21       -0.0036
     13  C12       31.4100   36.5870   39.6450 C.ar    1  5B21       -0.0003
     14  C11       31.3140   35.3180   39.0690 C.ar    1  5B21       -0.0000
     15  C10       31.9080   35.0600   37.8330 C.ar    1  5B21       -0.0003
     16  C9        32.6070   36.0740   37.1500 C.ar    1  5B21       -0.0036
@<TRIPOS>BOND
     1     9    10    1
     2     9     8    2
     3    10     3    2
     4     7     8    1
     5     7     6    2
     6     8     1    1
     7     3     1    1
     8     3     4    1
     9     6     5    1
    10     1     2    2
    11     5     2    1
    12     5    11    1
    13    16    11   ar
    14    16    15   ar
    15    11    12   ar
    16    15    14   ar
    17    12    13   ar
    18    14    13   ar
