@<TRIPOS>MOLECULE
3e64_5B3_A_1.pdb
 24 26 0 0 0
SMALL
GASTEIGER

@<TRIPOS>ATOM
      1  O1        30.0080   33.3830   38.5690 O.2     1  5B31       -0.1516
      2  C7        32.6360   36.3980   37.0060 C.ar    1  5B31       -0.0023
      3  O2        29.1580   35.0050   40.2630 O.2     1  5B31       -0.1516
      4  C6        31.8480   35.4090   37.6030 C.ar    1  5B31        0.0197
      5  C1        33.7460   33.6920   41.3140 C.3     1  5B31        0.0194
      6  N1        31.3820   33.9130   40.7950 N.3     1  5B31       -0.0807
      7  C5        31.2700   35.6550   38.8510 C.ar    1  5B31        0.1235
      8  C4        32.9110   32.5760   39.2990 C.3     1  5B31        0.0194
      9  C3        32.2480   31.6990   41.5400 C.3     1  5B31        0.0194
     10  C2        32.5370   32.9690   40.7350 C.3     1  5B31        0.0827
     11  S1        30.2760   34.3750   39.5910 S.O2    1  5B31        0.0767
     12  C10       31.4670   36.8690   39.5250 C.ar    1  5B31        0.0197
     13  C9        32.2440   37.8610   38.9180 C.ar    1  5B31       -0.0023
     14  C8        32.8600   37.6250   37.6630 C.ar    1  5B31       -0.0143
     15  C11       33.6390   38.6620   36.9790 C.3     1  5B31        0.0664
     16  C17       33.0980   39.9660   37.0080 C.2     1  5B31       -0.0083
     17  C16       33.7580   41.0150   36.3330 C.2     1  5B31        0.1106
     18  C15       33.5390   42.4050   36.1310 C.2     1  5B31        0.4416
     19  N4        32.4560   43.0880   36.5580 N.pl3   1  5B31        0.2188
     20  N3        34.5070   42.9430   35.3840 N.2     1  5B31        0.0889
     21  N2        35.3360   41.9210   35.1090 N.2     1  5B31       -0.0338
     22  C14       34.9420   40.7200   35.6530 C.2     1  5B31        0.1346
     23  C13       35.5060   39.4370   35.5790 C.2     1  5B31        0.0193
     24  C12       34.8290   38.4080   36.2580 C.2     1  5B31       -0.0160
@<TRIPOS>BOND
     1    21    20    1
     2    21    22    2
     3    20    18    2
     4    23    22    1
     5    23    24    2
     6    22    17    1
     7    18    17    1
     8    18    19    1
     9    24    15    1
    10    17    16    2
    11    15    16    1
    12    15    14    1
    13     2     4   ar
    14     2    14   ar
    15     4     7   ar
    16    14    13   ar
    17     1    11    2
    18     7    12   ar
    19     7    11    1
    20    13    12   ar
    21     8    10    1
    22    11     3    2
    23    11     6    1
    24    10     6    1
    25    10     5    1
    26    10     9    1
