@<TRIPOS>MOLECULE
3e65_H4B_A_1.pdb
 17 18 0 0 0
SMALL
GASTEIGER

@<TRIPOS>ATOM
      1  N1       113.8510  112.3990   32.7730 N.2   902  H4B902     -0.2672
      2  C2       115.1200  112.7420   32.9900 C.1   902  H4B902      0.2609
      3  N2       115.8770  113.1270   31.9660 N.pl3 902  H4B902     -0.0220
      4  N3       115.6460  112.7420   34.2140 N.2   902  H4B902     -0.2466
      5  C4       114.9090  112.3970   35.2710 C.1   902  H4B902      0.2569
      6  O4       115.3660  112.4110   36.4180 O.2   902  H4B902     -0.2052
      7  C4A      113.5660  112.0030   35.0940 C.2   902  H4B902      0.2989
      8  C8A      113.0480  112.0660   33.7840 C.1   902  H4B902      0.1401
      9  N5       112.8140  111.5900   36.1140 N.2   902  H4B902     -0.3830
     10  N8       111.7590  111.7910   33.5690 N.2   902  H4B902     -0.1992
     11  C6       111.6290  111.0290   35.8680 C.2   902  H4B902      0.1466
     12  C7       111.0300  111.1610   34.5720 C.3   902  H4B902      0.1940
     13  C9       110.8210  110.5900   37.0910 C.3   902  H4B902      0.2313
     14  O9       110.2280  111.7240   37.7300 O.3   902  H4B902     -0.2130
     15  C10      109.7020  109.6190   36.6510 C.3   902  H4B902      0.1888
     16  C11      108.8250  109.1950   37.8370 C.3   902  H4B902      0.0387
     17  O10      110.2800  108.4680   36.0290 O.3   902  H4B902     -0.2200
@<TRIPOS>BOND
     1     3     2    1
     2     1     2    2
     3     1     8    2
     4     2     4    2
     5    10     8    2
     6    10    12    1
     7     8     7    1
     8     4     5    2
     9    12    11    1
    10     7     5    1
    11     7     9    2
    12     5     6    2
    13    11     9    2
    14    11    13    1
    15    17    15    1
    16    15    13    1
    17    15    16    1
    18    13    14    1
