@<TRIPOS>MOLECULE
3e65_HEM_A_1.pdb
 43 50 0 0 0
SMALL
GASTEIGER

@<TRIPOS>ATOM
      1 FE        124.6330  111.5590   28.6900 Fe    901  HEM901      0.0000
      2  CHA      122.0330  110.8670   30.9180 C.2   901  HEM901      0.0000
      3  CHB      123.4400  114.8040   28.4340 C.2   901  HEM901      0.0000
      4  CHC      127.6880  112.6760   27.5710 C.2   901  HEM901      0.0000
      5  CHD      126.1080  108.6200   29.6420 C.2   901  HEM901      0.0000
      6  NA       123.0960  112.6290   29.5710 N.ar  901  HEM901      0.0000
      7  C1A      122.0990  112.1640   30.4120 C.ar  901  HEM901      0.0000
      8  C2A      121.1210  113.1960   30.6580 C.ar  901  HEM901      0.0000
      9  C3A      121.5060  114.2760   29.9220 C.ar  901  HEM901      0.0000
     10  C4A      122.7280  113.9270   29.2490 C.ar  901  HEM901      0.0000
     11  CMA      120.7640  115.6130   29.8390 C.3   901  HEM901      0.0000
     12  CAA      119.9510  113.1320   31.6520 C.3   901  HEM901      0.0000
     13  CBA      120.4290  113.4820   33.0700 C.3   901  HEM901      0.0000
     14  CGA      119.3590  113.3220   34.1450 C.2   901  HEM901      0.0000
     15  O1A      119.6900  112.8320   35.2510 O.co2 901  HEM901      0.0000
     16  O2A      118.1930  113.6940   33.9070 O.co2 901  HEM901      0.0000
     17  NB       125.3810  113.3320   28.0570 N.2   901  HEM901      0.0000
     18  C1B      124.6660  114.5220   27.8670 C.2   901  HEM901      0.0000
     19  C2B      125.4320  115.4720   27.1330 C.2   901  HEM901      0.0000
     20  C3B      126.6320  114.9130   26.8950 C.2   901  HEM901      0.0000
     21  C4B      126.6240  113.5810   27.4820 C.2   901  HEM901      0.0000
     22  CMB      125.0100  116.8840   26.7250 C.3   901  HEM901      0.0000
     23  CAB      127.6760  115.6170   26.3310 C.2   901  HEM901      0.0000
     24  CBB      128.4190  115.1930   25.2650 C.2   901  HEM901      0.0000
     25  NC       126.5020  110.7770   28.5960 N.ar  901  HEM901      0.0000
     26  C1C      127.6620  111.3940   28.1220 C.ar  901  HEM901      0.0000
     27  C2C      128.8020  110.5430   28.2390 C.ar  901  HEM901      0.0000
     28  C3C      128.3300  109.3610   28.7620 C.ar  901  HEM901      0.0000
     29  C4C      126.9150  109.5260   28.9780 C.ar  901  HEM901      0.0000
     30  CMC      130.2360  110.9220   27.8370 C.3   901  HEM901      0.0000
     31  CAC      129.0450  108.2010   29.0770 C.3   901  HEM901      0.0000
     32  CBC      130.2490  107.7210   28.5430 C.3   901  HEM901      0.0000
     33  ND       124.1470  110.0260   29.9680 N.2   901  HEM901      0.0000
     34  C1D      124.8230  108.8390   30.0950 C.2   901  HEM901      0.0000
     35  C2D      124.0620  107.9300   30.8770 C.2   901  HEM901      0.0000
     36  C3D      122.9520  108.5580   31.2580 C.2   901  HEM901      0.0000
     37  C4D      122.9900  109.8640   30.6930 C.2   901  HEM901      0.0000
     38  CMD      124.4030  106.4880   31.2410 C.3   901  HEM901      0.0000
     39  CAD      121.9380  108.0330   32.2500 C.3   901  HEM901      0.0000
     40  CBD      122.3270  108.5070   33.6550 C.3   901  HEM901      0.0000
     41  CGD      121.2890  108.1600   34.7050 C.2   901  HEM901      0.0000
     42  O1D      121.2060  108.8720   35.7270 O.co2 901  HEM901      0.0000
     43  O2D      120.5430  107.1800   34.5030 O.co2 901  HEM901      0.0000
@<TRIPOS>BOND
     1    24    23    2
     2    23    20    1
     3    22    19    1
     4    20    19    2
     5    20    21    1
     6    19    18    1
     7    21     4    2
     8    21    17    1
     9     4    26    1
    10    30    27    1
    11    18    17    2
    12    18     3    1
    13    17     1    1
    14    26    27   ar
    15    26    25   ar
    16    27    28   ar
    17     3    10    2
    18    32    31    1
    19    25     1    1
    20    25    29   ar
    21     1     6    1
    22     1    33    1
    23    28    29   ar
    24    28    31    1
    25    29     5    1
    26    10     6   ar
    27    10     9   ar
    28     6     7   ar
    29     5    34    2
    30    11     9    1
    31     9     8   ar
    32    33    34    1
    33    33    37    2
    34    34    35    1
    35     7     8   ar
    36     7     2    2
    37     8    12    1
    38    37     2    1
    39    37    36    1
    40    35    38    1
    41    35    36    2
    42    36    39    1
    43    12    13    1
    44    39    40    1
    45    13    14    1
    46    40    41    1
    47    16    14   ar
    48    14    15   ar
    49    43    41   ar
    50    41    42   ar
