@<TRIPOS>MOLECULE
3e65_XXZ_A_1.pdb
 27 30 0 0 0
SMALL
GASTEIGER

@<TRIPOS>ATOM
      1  F1       126.6340  115.2570   30.7660 F     906  XXZ906     -0.2079
      2  C2       126.1970  114.1600   31.3770 C.2   906  XXZ906      0.1349
      3  C3       126.6950  112.9070   30.9980 C.2   906  XXZ906      0.0262
      4  C4       126.2520  111.7520   31.6320 C.2   906  XXZ906      0.0032
      5  C1       125.3070  111.8590   32.6580 C.2   906  XXZ906      0.0155
      6  C6       124.8190  113.1220   33.0390 C.2   906  XXZ906      0.0758
      7  C7       125.2510  114.3060   32.3970 C.3   906  XXZ906      0.2032
      8  CG       124.3490  115.5160   32.6100 C.2   906  XXZ906      0.4000
      9  N20      123.6540  115.6050   33.7810 N.2   906  XXZ906     -0.0463
     10  N21      124.2680  116.5180   31.7490 N.pl3 906  XXZ906      0.2115
     11  N1       123.7870  113.3060   34.1920 N.2   906  XXZ906     -0.2327
     12  C5       123.7400  114.5750   34.8090 C.3   906  XXZ906      0.2606
     13  C10      122.5480  114.4450   35.7160 C.3   906  XXZ906      0.0947
     14  C11      122.3550  115.7290   36.5400 C.3   906  XXZ906      0.1002
     15  N12      123.6030  116.0510   37.2970 N.am  906  XXZ906     -0.2756
     16  C13      124.7730  116.2060   36.4460 C.3   906  XXZ906      0.1002
     17  C14      124.9760  114.8550   35.7220 C.3   906  XXZ906      0.0947
     18  C15      123.7340  116.2030   38.6680 C.2   906  XXZ906      0.2490
     19  O16      124.8240  116.4910   39.1680 O.2   906  XXZ906     -0.2699
     20  C18      122.1230  117.0280   40.3720 C.ar  906  XXZ906      0.0042
     21  NH       118.2950  114.2250   41.4820 N.3   906  XXZ906     -0.1262
     22  CB       119.1470  115.2970   42.0110 C.3   906  XXZ906      0.1356
     23  C8       120.3450  115.5460   41.1330 C.ar  906  XXZ906     -0.0032
     24  CD1      120.7850  114.5130   40.2760 C.ar  906  XXZ906     -0.0027
     25  CE1      121.9010  114.7400   39.4620 C.ar  906  XXZ906      0.0042
     26  CD2      120.9990  116.7970   41.1920 C.ar  906  XXZ906     -0.0027
     27  CZ       122.5580  116.0020   39.5190 C.ar  906  XXZ906      0.0536
@<TRIPOS>BOND
     1     1     2    1
     2     3     2    2
     3     3     4    1
     4     2     7    1
     5     4     5    2
     6    10     8    1
     7     7     8    1
     8     7     6    1
     9     8     9    2
    10     5     6    1
    11     6    11    2
    12     9    12    1
    13    11    12    1
    14    12    13    1
    15    12    17    1
    16    13    14    1
    17    17    16    1
    18    16    15    1
    19    14    15    1
    20    15    18   am
    21    18    19    2
    22    18    27    1
    23    25    27   ar
    24    25    24   ar
    25    27    20   ar
    26    24    23   ar
    27    20    26   ar
    28    23    26   ar
    29    23    22    1
    30    21    22    1
