@<TRIPOS>MOLECULE
3e67_HEM_A_1.pdb
 43 50 0 0 0
SMALL
GASTEIGER

@<TRIPOS>ATOM
      1  CHA      121.9090  110.9570   30.9400 C.2   901  HEM901      0.0000
      2  CHB      122.8440  114.8730   28.2940 C.2   901  HEM901      0.0000
      3  CHC      127.1730  113.0070   27.3970 C.2   901  HEM901      0.0000
      4  CHD      125.9250  108.8680   29.3970 C.2   901  HEM901      0.0000
      5  C1A      121.8180  112.2280   30.3840 C.ar  901  HEM901      0.0000
      6  C2A      120.7350  113.1710   30.6480 C.ar  901  HEM901      0.0000
      7  C3A      120.9810  114.2460   29.8280 C.ar  901  HEM901      0.0000
      8  C4A      122.2090  113.9820   29.1220 C.ar  901  HEM901      0.0000
      9  CMA      120.0820  115.4380   29.6110 C.3   901  HEM901      0.0000
     10  CAA      119.6330  113.0070   31.6900 C.3   901  HEM901      0.0000
     11  CBA      120.1560  113.4260   33.0720 C.3   901  HEM901      0.0000
     12  CGA      119.0790  113.3650   34.1470 C.2   901  HEM901      0.0000
     13  O1A      119.3810  112.9050   35.2650 O.co2 901  HEM901      0.0000
     14  O2A      117.9280  113.7800   33.8780 O.co2 901  HEM901      0.0000
     15  C1B      124.0860  114.6690   27.7330 C.2   901  HEM901      0.0000
     16  C2B      124.7780  115.6730   26.9880 C.2   901  HEM901      0.0000
     17  C3B      126.0400  115.1780   26.7210 C.2   901  HEM901      0.0000
     18  C4B      126.0780  113.8540   27.3250 C.2   901  HEM901      0.0000
     19  CMB      124.2140  117.0450   26.5800 C.3   901  HEM901      0.0000
     20  CAB      127.0590  115.9030   26.1020 C.3   901  HEM901      0.0000
     21  CBB      128.2750  115.4970   25.5400 C.3   901  HEM901      0.0000
     22  C1C      127.2480  111.7540   27.9580 C.ar  901  HEM901      0.0000
     23  C2C      128.4120  110.8960   27.9250 C.ar  901  HEM901      0.0000
     24  C3C      128.0450  109.6630   28.4110 C.ar  901  HEM901      0.0000
     25  C4C      126.6530  109.8310   28.7420 C.ar  901  HEM901      0.0000
     26  CMC      129.7840  111.3340   27.4380 C.3   901  HEM901      0.0000
     27  CAC      128.8070  108.5120   28.6730 C.3   901  HEM901      0.0000
     28  CBC      130.1310  108.2350   28.3090 C.3   901  HEM901      0.0000
     29  C1D      124.6600  109.0320   29.9740 C.2   901  HEM901      0.0000
     30  C2D      123.9430  108.0540   30.7710 C.2   901  HEM901      0.0000
     31  C3D      122.8810  108.6950   31.2310 C.2   901  HEM901      0.0000
     32  C4D      122.8820  110.0230   30.7300 C.2   901  HEM901      0.0000
     33  CMD      124.3000  106.6020   31.0210 C.3   901  HEM901      0.0000
     34  CAD      121.9250  108.1870   32.1980 C.3   901  HEM901      0.0000
     35  CBD      122.2510  108.5680   33.6350 C.3   901  HEM901      0.0000
     36  CGD      121.1930  108.0440   34.5680 C.2   901  HEM901      0.0000
     37  O1D      120.9380  108.6300   35.6420 O.co2 901  HEM901      0.0000
     38  O2D      120.5660  107.0300   34.1820 O.co2 901  HEM901      0.0000
     39  NA       122.7130  112.7400   29.4670 N.ar  901  HEM901      0.0000
     40  NB       124.8730  113.5530   27.9150 N.2   901  HEM901      0.0000
     41  NC       126.1860  111.1040   28.4850 N.ar  901  HEM901      0.0000
     42  ND       123.9750  110.2350   29.9520 N.2   901  HEM901      0.0000
     43 FE        124.2740  111.7150   28.5960 Fe    901  HEM901      0.0000
@<TRIPOS>BOND
     1    21    20    1
     2    20    17    1
     3    19    16    1
     4    17    16    2
     5    17    18    1
     6    16    15    1
     7    18     3    2
     8    18    40    1
     9     3    22    1
    10    26    23    1
    11    15    40    2
    12    15     2    1
    13    40    43    1
    14    23    22   ar
    15    23    24   ar
    16    22    41   ar
    17     2     8    2
    18    28    27    1
    19    24    27    1
    20    24    25   ar
    21    41    43    1
    22    41    25   ar
    23    43    39    1
    24    43    42    1
    25    25     4    1
    26     8    39   ar
    27     8     7   ar
    28     4    29    2
    29    39     5   ar
    30     9     7    1
    31     7     6   ar
    32    42    29    1
    33    42    32    2
    34    29    30    1
    35     5     6   ar
    36     5     1    2
    37     6    10    1
    38    32     1    1
    39    32    31    1
    40    30    33    1
    41    30    31    2
    42    31    34    1
    43    10    11    1
    44    34    35    1
    45    11    12    1
    46    35    36    1
    47    14    12   ar
    48    12    13   ar
    49    38    36   ar
    50    36    37   ar
