@<TRIPOS>MOLECULE
3e67_H4B_A_1.pdb
 17 18 0 0 0
SMALL
GASTEIGER

@<TRIPOS>ATOM
      1  N1       113.7600  112.2490   32.7550 N.2   902  H4B902     -0.2672
      2  C2       115.0460  112.5460   33.0110 C.1   902  H4B902      0.2609
      3  N2       115.8280  112.9990   32.0460 N.pl3 902  H4B902     -0.0220
      4  N3       115.5510  112.4720   34.2430 N.2   902  H4B902     -0.2466
      5  C4       114.7740  112.1170   35.2620 C.1   902  H4B902      0.2569
      6  O4       115.1280  112.2460   36.4330 O.2   902  H4B902     -0.2052
      7  C4A      113.4890  111.6030   35.0120 C.2   902  H4B902      0.2989
      8  C8A      113.0320  111.6310   33.6850 C.1   902  H4B902      0.1401
      9  N5       112.7360  111.1100   35.9890 N.2   902  H4B902     -0.3830
     10  N8       111.8790  111.0330   33.3690 N.2   902  H4B902     -0.1992
     11  C6       111.4910  110.7310   35.7270 C.2   902  H4B902      0.1466
     12  C7       111.0000  110.6860   34.3990 C.3   902  H4B902      0.1940
     13  C9       110.7410  110.1900   36.9200 C.3   902  H4B902      0.2313
     14  O9       110.1820  111.1750   37.7970 O.3   902  H4B902     -0.2130
     15  C10      109.6600  109.2430   36.4550 C.3   902  H4B902      0.1888
     16  C11      108.8590  108.7610   37.6480 C.3   902  H4B902      0.0387
     17  O10      110.2700  108.1330   35.7880 O.3   902  H4B902     -0.2200
@<TRIPOS>BOND
     1     3     2    1
     2     1     2    2
     3     1     8    2
     4     2     4    2
     5    10     8    2
     6    10    12    1
     7     8     7    1
     8     4     5    2
     9    12    11    1
    10     7     5    1
    11     7     9    2
    12     5     6    2
    13    11     9    2
    14    11    13    1
    15    17    15    1
    16    15    13    1
    17    15    16    1
    18    13    14    1
