@<TRIPOS>MOLECULE
3e68_H4B_A_1.pdb
 17 18 0 0 0
SMALL
GASTEIGER

@<TRIPOS>ATOM
      1  N1       113.8160  112.0090   32.4750 N.2   902  H4B902     -0.2672
      2  C2       115.0380  112.4730   32.7450 C.1   902  H4B902      0.2609
      3  N2       115.7950  112.9090   31.7460 N.pl3 902  H4B902     -0.0220
      4  N3       115.5120  112.5290   33.9930 N.2   902  H4B902     -0.2466
      5  C4       114.7670  112.1250   35.0150 C.1   902  H4B902      0.2569
      6  O4       115.1560  112.1750   36.1790 O.2   902  H4B902     -0.2052
      7  C4A      113.4820  111.6260   34.7890 C.2   902  H4B902      0.2989
      8  C8A      113.0160  111.5960   33.4560 C.1   902  H4B902      0.1401
      9  N5       112.7300  111.2020   35.7880 N.2   902  H4B902     -0.3830
     10  N8       111.7820  111.1580   33.1780 N.2   902  H4B902     -0.1992
     11  C6       111.3250  110.9540   35.5760 C.2   902  H4B902      0.1466
     12  C7       110.9060  110.7890   34.1870 C.3   902  H4B902      0.1940
     13  C9       110.7080  110.2040   36.7570 C.3   902  H4B902      0.2313
     14  O9       110.3420  111.1440   37.7730 O.3   902  H4B902     -0.2130
     15  C10      109.5080  109.3160   36.4040 C.3   902  H4B902      0.1888
     16  C11      108.8400  108.7750   37.6730 C.3   902  H4B902      0.0387
     17  O10      109.9630  108.2120   35.6140 O.3   902  H4B902     -0.2200
@<TRIPOS>BOND
     1     3     2    1
     2     1     2    2
     3     1     8    2
     4     2     4    2
     5    10     8    2
     6    10    12    1
     7     8     7    1
     8     4     5    2
     9    12    11    1
    10     7     5    1
    11     7     9    2
    12     5     6    2
    13    11     9    2
    14    11    13    1
    15    17    15    1
    16    15    13    1
    17    15    16    1
    18    13    14    1
