@<TRIPOS>MOLECULE
3e68_AT6_A_1.pdb
 21 22 0 0 0
SMALL
GASTEIGER

@<TRIPOS>ATOM
      1  C2       125.8690  113.3990   31.7060 C.2   905  AT6905     -0.0332
      2  C1       125.6120  114.5460   30.9080 C.3   905  AT6905      0.1001
      3  C6       124.5760  115.4560   31.2640 C.2   905  AT6905      0.2001
      4  N5       123.8370  115.2050   32.3840 N.2   905  AT6905     -0.3923
      5  C4       124.0630  114.0980   33.1740 C.2   905  AT6905      0.1115
      6  C3       125.0840  113.1790   32.8430 C.2   905  AT6905      0.0196
      7  C10      123.2040  113.8540   34.4080 C.3   905  AT6905      0.0824
      8  C11      123.9260  113.2390   35.6430 C.3   905  AT6905      0.1229
      9  N12      122.9730  113.2460   36.7500 N.am  905  AT6905     -0.2012
     10  C24      122.7690  114.3520   37.4980 C.2   905  AT6905      0.2648
     11  O25      123.3830  115.3960   37.2830 O.2   905  AT6905     -0.2684
     12  C26      121.7440  114.3590   38.6140 C.ar  905  AT6905      0.0551
     13  C27      121.7320  115.4070   39.5490 C.ar  905  AT6905      0.0053
     14  C28      120.7700  115.4590   40.5720 C.ar  905  AT6905      0.0104
     15  C29      119.8000  114.4530   40.6650 C.ar  905  AT6905      0.0685
     16  C30      119.7880  113.3770   39.7350 C.ar  905  AT6905      0.0104
     17  C31      120.7670  113.3300   38.7060 C.ar  905  AT6905      0.0053
     18  C32      118.8370  114.5430   41.7010 C.1   905  AT6905      0.1004
     19  N33      118.0530  114.6530   42.5340 N.1   905  AT6905     -0.1908
     20  N7       124.3300  116.5480   30.5000 N.pl3 905  AT6905     -0.0977
     21  C9       126.9740  112.4120   31.3460 C.3   905  AT6905      0.0269
@<TRIPOS>BOND
     1    20     3    1
     2     2     3    1
     3     2     1    1
     4     3     4    2
     5    21     1    1
     6     1     6    2
     7     4     5    2
     8     6     5    1
     9     5     7    1
    10     7     8    1
    11     8     9    1
    12     9    10   am
    13    11    10    2
    14    10    12    1
    15    12    17   ar
    16    12    13   ar
    17    17    16   ar
    18    13    14   ar
    19    16    15   ar
    20    14    15   ar
    21    15    18    1
    22    18    19    3
