@<TRIPOS>MOLECULE
3e68_HEM_A_1.pdb
 43 50 0 0 0
SMALL
GASTEIGER

@<TRIPOS>ATOM
      1 FE        124.1110  111.6430   28.4830 Fe    901  HEM901      0.0000
      2  CHA      121.6500  110.8670   30.8350 C.2   901  HEM901      0.0000
      3  CHB      122.7970  114.7480   28.1620 C.2   901  HEM901      0.0000
      4  CHC      127.1470  112.9050   27.2870 C.2   901  HEM901      0.0000
      5  CHD      125.7960  108.7430   29.3850 C.2   901  HEM901      0.0000
      6  NA       122.5580  112.6280   29.3870 N.ar  901  HEM901      0.0000
      7  C1A      121.6170  112.1570   30.2870 C.ar  901  HEM901      0.0000
      8  C2A      120.5850  113.1750   30.5350 C.ar  901  HEM901      0.0000
      9  C3A      120.8730  114.2230   29.7300 C.ar  901  HEM901      0.0000
     10  C4A      122.1090  113.8850   29.0300 C.ar  901  HEM901      0.0000
     11  CMA      120.0050  115.4630   29.5150 C.3   901  HEM901      0.0000
     12  CAA      119.4740  113.1940   31.5680 C.3   901  HEM901      0.0000
     13  CBA      120.0510  113.1130   32.9640 C.3   901  HEM901      0.0000
     14  CGA      118.9990  113.1600   34.0400 C.2   901  HEM901      0.0000
     15  O1A      119.3140  112.7790   35.1800 O.co2 901  HEM901      0.0000
     16  O2A      117.8610  113.5820   33.7600 O.co2 901  HEM901      0.0000
     17  NB       124.8110  113.4440   27.7790 N.2   901  HEM901      0.0000
     18  C1B      124.0340  114.5560   27.5710 C.2   901  HEM901      0.0000
     19  C2B      124.7380  115.5690   26.8300 C.2   901  HEM901      0.0000
     20  C3B      126.0050  115.0940   26.5930 C.2   901  HEM901      0.0000
     21  C4B      126.0440  113.7540   27.2190 C.2   901  HEM901      0.0000
     22  CMB      124.1460  116.9130   26.4370 C.3   901  HEM901      0.0000
     23  CAB      126.9940  115.8120   25.9100 C.3   901  HEM901      0.0000
     24  CBB      128.1650  115.3770   25.3060 C.3   901  HEM901      0.0000
     25  NC       126.0940  110.9630   28.3550 N.ar  901  HEM901      0.0000
     26  C1C      127.2030  111.6320   27.8240 C.ar  901  HEM901      0.0000
     27  C2C      128.4050  110.7890   27.8580 C.ar  901  HEM901      0.0000
     28  C3C      128.0130  109.5380   28.4100 C.ar  901  HEM901      0.0000
     29  C4C      126.5650  109.6890   28.7050 C.ar  901  HEM901      0.0000
     30  CMC      129.7890  111.2230   27.3330 C.3   901  HEM901      0.0000
     31  CAC      128.7810  108.3610   28.6910 C.3   901  HEM901      0.0000
     32  CBC      130.1100  108.1030   28.3500 C.3   901  HEM901      0.0000
     33  ND       123.7830  110.1210   29.8350 N.2   901  HEM901      0.0000
     34  C1D      124.5000  108.9210   29.9040 C.2   901  HEM901      0.0000
     35  C2D      123.7760  107.9250   30.7020 C.2   901  HEM901      0.0000
     36  C3D      122.6540  108.5440   31.1570 C.2   901  HEM901      0.0000
     37  C4D      122.6410  109.9050   30.6150 C.2   901  HEM901      0.0000
     38  CMD      124.1690  106.4720   30.9190 C.3   901  HEM901      0.0000
     39  CAD      121.6740  107.9480   32.1260 C.3   901  HEM901      0.0000
     40  CBD      121.8060  108.5660   33.4960 C.3   901  HEM901      0.0000
     41  CGD      120.8560  107.9420   34.4760 C.2   901  HEM901      0.0000
     42  O1D      120.7590  108.4300   35.6170 O.co2 901  HEM901      0.0000
     43  O2D      120.1980  106.9500   34.1000 O.co2 901  HEM901      0.0000
@<TRIPOS>BOND
     1    24    23    1
     2    23    20    1
     3    22    19    1
     4    20    19    2
     5    20    21    1
     6    19    18    1
     7    21     4    2
     8    21    17    1
     9     4    26    1
    10    30    27    1
    11    18    17    2
    12    18     3    1
    13    17     1    1
    14    26    27   ar
    15    26    25   ar
    16    27    28   ar
    17     3    10    2
    18    32    31    1
    19    25     1    1
    20    25    29   ar
    21    28    31    1
    22    28    29   ar
    23     1     6    1
    24     1    33    1
    25    29     5    1
    26    10     6   ar
    27    10     9   ar
    28     5    34    2
    29     6     7   ar
    30    11     9    1
    31     9     8   ar
    32    33    34    1
    33    33    37    2
    34    34    35    1
    35     7     8   ar
    36     7     2    2
    37     8    12    1
    38    37     2    1
    39    37    36    1
    40    35    38    1
    41    35    36    2
    42    36    39    1
    43    12    13    1
    44    39    40    1
    45    13    14    1
    46    40    41    1
    47    16    14   ar
    48    14    15   ar
    49    43    41   ar
    50    41    42   ar
