@<TRIPOS>MOLECULE
3e6b_3C4_A_1.pdb
 12 12 0 0 0
SMALL
GASTEIGER

@<TRIPOS>ATOM
      1  O2        -1.5410   -3.0990  -13.0430 O.co2 301  3C4301     -0.2453
      2  C         -2.7630   -3.0250  -13.0690 C.2   301  3C4301      0.3692
      3  O1        -3.4250   -3.8200  -13.7630 O.co2 301  3C4301     -0.2453
      4  CG        -3.3590   -1.8920  -12.2740 C.3   301  3C4301      0.1404
      5  CA        -4.8120   -1.5220  -12.5190 C.ar  301  3C4301     -0.0099
      6  CD2       -5.8050   -2.2580  -11.9120 C.ar  301  3C4301     -0.0004
      7  CE2       -7.0470   -1.9970  -12.0670 C.ar  301  3C4301      0.0426
      8  CZ        -7.5200   -0.8450  -12.8720 C.ar  301  3C4301      0.2061
      9  OH        -8.8690   -0.4570  -13.0800 O.3   301  3C4301     -0.2857
     10 CL         -6.8100    1.2440  -14.4920 Cl    301  3C4301     -0.0789
     11  CE1       -6.3820   -0.1030  -13.5000 C.ar  301  3C4301      0.0962
     12  CD1       -5.0970   -0.4470  -13.2950 C.ar  301  3C4301      0.0109
@<TRIPOS>BOND
     1    10    11    1
     2     3     2   ar
     3    11    12   ar
     4    11     8   ar
     5    12     5   ar
     6     9     8    1
     7     2     1   ar
     8     2     4    1
     9     8     7   ar
    10     5     4    1
    11     5     6   ar
    12     7     6   ar
