@<TRIPOS>MOLECULE
3e6c_3C4_C_1.pdb
 12 12 0 0 0
SMALL
GASTEIGER

@<TRIPOS>ATOM
      1  O2         6.0580   45.1520   -7.3620 O.co2 604  3C4604     -0.2453
      2  C          5.0660   45.7800   -7.7560 C.2   604  3C4604      0.3692
      3  O1         5.1820   46.6880   -8.6310 O.co2 604  3C4604     -0.2453
      4  CG         3.7410   45.5260   -7.0150 C.3   604  3C4604      0.1404
      5  CA         2.6090   46.4030   -7.3220 C.ar  604  3C4604     -0.0099
      6  CD2        1.8840   46.1840   -8.4980 C.ar  604  3C4604     -0.0004
      7  CE2        0.9080   46.8900   -8.8150 C.ar  604  3C4604      0.0426
      8  CZ         0.4080   48.0210   -7.9880 C.ar  604  3C4604      0.2061
      9  OH        -0.6930   48.8070   -8.2720 O.3   604  3C4604     -0.2857
     10 CL          0.6770   49.3820   -5.6870 Cl    604  3C4604     -0.0789
     11  CE1        1.1750   48.1330   -6.7310 C.ar  604  3C4604      0.0962
     12  CD1        2.1900   47.3760   -6.4740 C.ar  604  3C4604      0.0109
@<TRIPOS>BOND
     1     7     6   ar
     2     7     8   ar
     3     3     2   ar
     4     6     5   ar
     5     9     8    1
     6     8    11   ar
     7     2     1   ar
     8     2     4    1
     9     5     4    1
    10     5    12   ar
    11    11    12   ar
    12    11    10    1
