@<TRIPOS>MOLECULE
3e6e_DCS_A_1.pdb
 22 23 0 0 0
SMALL
GASTEIGER

@<TRIPOS>ATOM
      1  N1        21.1810  -22.6010  -26.9520 N.ar  372  DCS372     -0.2452
      2  C2        22.2920  -21.7580  -26.6200 C.ar  372  DCS372      0.0978
      3  C2A       23.1460  -21.1250  -27.7020 C.3   372  DCS372      0.0555
      4  C3        22.5520  -21.5380  -25.2630 C.ar  372  DCS372      0.2065
      5  O3        23.5820  -20.7590  -24.8640 O.3   372  DCS372     -0.2856
      6  C4        21.6950  -22.1710  -24.2730 C.ar  372  DCS372      0.0394
      7  C4A       21.9610  -21.9350  -22.7990 C.3   372  DCS372      0.1425
      8  C5        20.5840  -23.0130  -24.7220 C.ar  372  DCS372      0.0278
      9  C6        20.3620  -23.2050  -26.0400 C.ar  372  DCS372      0.0965
     10  C5A       19.6370  -23.7050  -23.7730 C.3   372  DCS372      0.1816
     11  O4P       18.8670  -22.7110  -23.0920 O.3   372  DCS372     -0.2653
     12  P         17.7450  -23.0020  -22.0000 P.3   372  DCS372      0.5329
     13  O1P       16.7150  -23.7790  -22.6620 O.2   372  DCS372     -0.2224
     14  O2P       18.3490  -23.7230  -20.8840 O.3   372  DCS372     -0.1145
     15  O3P       17.2130  -21.7150  -21.5650 O.3   372  DCS372     -0.1145
     16  N         21.9060  -20.4510  -22.4850 N.pl3 372  DCS372     -0.2188
     17  CA        22.1210  -19.9820  -21.1810 C.2   372  DCS372      0.1923
     18  C         23.3110  -19.3490  -20.7140 C.1   372  DCS372      0.2075
     19  O         24.4410  -19.1300  -21.4470 O.2   372  DCS372     -0.2176
     20  ND        23.1380  -19.0090  -19.4600 N.2   372  DCS372      0.0013
     21  OG        21.8730  -19.3980  -19.0700 O.2   372  DCS372     -0.3387
     22  CB        21.2620  -19.9900  -20.1180 C.2   372  DCS372      0.2410
@<TRIPOS>BOND
     1     3     2    1
     2     1     2   ar
     3     1     9   ar
     4     2     4   ar
     5     9     8   ar
     6     4     5    1
     7     4     6   ar
     8     8     6   ar
     9     8    10    1
    10     6     7    1
    11    10    11    1
    12    11    12    1
    13     7    16    1
    14    13    12    2
    15    16    17    1
    16    12    15    1
    17    12    14    1
    18    19    18    2
    19    17    18    1
    20    17    22    2
    21    18    20    2
    22    22    21    1
    23    20    21    1
