@<TRIPOS>MOLECULE
3e6i_HEM_A_1.pdb
 43 50 0 0 0
SMALL
GASTEIGER

@<TRIPOS>ATOM
      1 FE          5.7050   -2.6470   -6.7290 Fe    500  HEM500      0.0000
      2  CHA        6.1130   -5.8750   -5.8920 C.2   500  HEM500      0.0000
      3  CHB        2.2920   -3.0220   -6.7360 C.2   500  HEM500      0.0000
      4  CHC        5.3400    0.6710   -7.6930 C.2   500  HEM500      0.0000
      5  CHD        9.1920   -2.2260   -7.0800 C.2   500  HEM500      0.0000
      6  NA         4.4060   -4.2010   -6.3660 N.2   500  HEM500      0.0000
      7  C1A        4.7980   -5.4680   -6.0220 C.2   500  HEM500      0.0000
      8  C2A        3.5960   -6.2560   -5.7910 C.2   500  HEM500      0.0000
      9  C3A        2.5390   -5.4470   -6.0100 C.2   500  HEM500      0.0000
     10  C4A        3.0360   -4.1380   -6.3890 C.2   500  HEM500      0.0000
     11  CMA        1.0400   -5.8030   -5.8930 C.3   500  HEM500      0.0000
     12  CAA        3.5710   -7.7470   -5.3570 C.3   500  HEM500      0.0000
     13  CBA        3.7270   -7.9110   -3.8460 C.3   500  HEM500      0.0000
     14  CGA        3.6050   -9.3530   -3.3930 C.2   500  HEM500      0.0000
     15  O1A        2.9590   -9.6290   -2.3500 O.co2 500  HEM500      0.0000
     16  O2A        4.1570  -10.2560   -4.0620 O.co2 500  HEM500      0.0000
     17  NB         4.0950   -1.3940   -7.1640 N.ar  500  HEM500      0.0000
     18  C1B        2.7680   -1.7760   -7.1020 C.ar  500  HEM500      0.0000
     19  C2B        1.9660   -0.6310   -7.5060 C.ar  500  HEM500      0.0000
     20  C3B        2.8180    0.4100   -7.7890 C.ar  500  HEM500      0.0000
     21  C4B        4.1770   -0.0690   -7.5570 C.ar  500  HEM500      0.0000
     22  CMB        0.4360   -0.7310   -7.5740 C.3   500  HEM500      0.0000
     23  CAB        2.5590    1.8680   -8.2580 C.2   500  HEM500      0.0000
     24  CBB        1.3840    2.5130   -8.2550 C.2   500  HEM500      0.0000
     25  NC         7.0570   -1.0570   -7.3470 N.2   500  HEM500      0.0000
     26  C1C        6.6520    0.2440   -7.5650 C.2   500  HEM500      0.0000
     27  C2C        7.8580    1.0640   -7.6550 C.2   500  HEM500      0.0000
     28  C3C        8.9300    0.2580   -7.4980 C.2   500  HEM500      0.0000
     29  C4C        8.4310   -1.0960   -7.2900 C.2   500  HEM500      0.0000
     30  CMC        7.8660    2.5830   -7.8970 C.3   500  HEM500      0.0000
     31  CAC       10.4350    0.6520   -7.5270 C.2   500  HEM500      0.0000
     32  CBC       11.0780    1.1200   -6.4460 C.2   500  HEM500      0.0000
     33  ND         7.4260   -3.8430   -6.4950 N.ar  500  HEM500      0.0000
     34  C1D        8.7500   -3.4820   -6.7410 C.ar  500  HEM500      0.0000
     35  C2D        9.5790   -4.6630   -6.5890 C.ar  500  HEM500      0.0000
     36  C3D        8.5910   -5.7740   -6.2230 C.ar  500  HEM500      0.0000
     37  C4D        7.2800   -5.1820   -6.1900 C.ar  500  HEM500      0.0000
     38  CMD       11.1000   -4.8150   -6.7740 C.3   500  HEM500      0.0000
     39  CAD        8.9030   -7.2460   -5.9420 C.3   500  HEM500      0.0000
     40  CBD        8.9100   -7.4840   -4.4330 C.3   500  HEM500      0.0000
     41  CGD        9.4070   -8.8840   -4.1880 C.2   500  HEM500      0.0000
     42  O1D       10.1130   -9.1180   -3.1700 O.co2 500  HEM500      0.0000
     43  O2D        9.0930   -9.7610   -5.0200 O.co2 500  HEM500      0.0000
@<TRIPOS>BOND
     1    23    24    2
     2    23    20    1
     3    30    27    1
     4    20    21   ar
     5    20    19   ar
     6     4    26    2
     7     4    21    1
     8    27    26    1
     9    27    28    2
    10    22    19    1
    11    26    25    1
    12    21    17   ar
    13    31    28    1
    14    31    32    2
    15    19    18   ar
    16    28    29    1
    17    25    29    2
    18    25     1    1
    19    29     5    1
    20    17    18   ar
    21    17     1    1
    22    18     3    1
    23     5    34    2
    24    38    35    1
    25    34    35   ar
    26    34    33   ar
    27     3    10    2
    28     1    33    1
    29     1     6    1
    30    35    36   ar
    31    33    37   ar
    32    10     6    1
    33    10     9    1
    34     6     7    2
    35    36    37   ar
    36    36    39    1
    37    37     2    2
    38     7     2    1
    39     7     8    1
    40     9    11    1
    41     9     8    2
    42    39    40    1
    43     8    12    1
    44    12    13    1
    45    43    41   ar
    46    40    41    1
    47    41    42   ar
    48    16    14   ar
    49    13    14    1
    50    14    15   ar
