@<TRIPOS>MOLECULE
3e6j_DR2_A_1.pdb
 36 38 0 0 0
SMALL
GASTEIGER

@<TRIPOS>ATOM
      1  OAZ       -0.2480   18.4660    7.7990 O.3   300  DR2300     -0.2179
      2  CBV        0.1980   19.4770    6.9030 C.3   300  DR2300      0.2133
      3  CBS       -0.9680   20.2970    6.3610 C.3   300  DR2300      0.2260
      4  NAX       -1.5850   21.1740    7.3320 N.am  300  DR2300     -0.1930
      5  CBF       -2.8910   21.3560    7.2490 C.2   300  DR2300      0.2424
      6  CAB       -3.5110   22.3280    8.1930 C.3   300  DR2300      0.0964
      7  OAD       -3.5430   20.7400    6.4500 O.2   300  DR2300     -0.2733
      8  CBI       -0.1880   21.1570    5.4060 C.2   300  DR2300      0.3397
      9  OAH        0.4130   22.3950    5.7590 O.2   300  DR2300     -0.2481
     10  OBA        0.2520   20.5940    4.2050 O.3   300  DR2300     -0.4456
     11  CBK        1.4120   19.9220    4.7070 C.3   300  DR2300      0.2311
     12  CAV        2.1580   19.3260    3.5270 C.3   300  DR2300      0.2280
     13  OAG        2.6320   20.4410    2.7530 O.3   300  DR2300     -0.2163
     14  CBU        0.9780   18.8620    5.7240 C.3   300  DR2300      0.1927
     15  O1'        2.1210   18.1830    6.3020 O.3   300  DR2300     -0.3246
     16  C1'        2.3300   16.9210    5.6800 C.3   300  DR2300      0.2663
     17  O5'        1.5630   15.9590    6.3690 O.3   300  DR2300     -0.3257
     18  C5'        1.6830   14.6200    5.7950 C.3   300  DR2300      0.1835
     19  C6'        0.6690   13.7160    6.4850 C.3   300  DR2300      0.2142
     20  O6'       -0.6140   14.0440    5.9250 O.3   300  DR2300     -0.2176
     21  C4'        3.1120   14.0880    5.8810 C.3   300  DR2300      0.2143
     22  O4'        3.4490   13.9280    7.2750 O.3   300  DR2300     -0.2176
     23  C3'        4.0220   15.1030    5.2140 C.3   300  DR2300      0.2166
     24  O3'        5.4090   14.7780    5.3870 O.3   300  DR2300     -0.2175
     25  C2'        3.7930   16.4920    5.8120 C.3   300  DR2300      0.2066
     26  O2'        4.6280   17.4420    5.1370 O.3   300  DR2300     -0.3231
     27  CBQ        5.7740   17.9070    5.8410 C.3   300  DR2300      0.2695
     28  OBB        5.5190   19.2170    6.4020 O.3   300  DR2300     -0.3284
     29  CBH        5.2400   20.2800    5.4660 C.3   300  DR2300      0.1508
     30  CAC        4.9920   21.5970    6.1980 C.3   300  DR2300      0.0350
     31  CBL        6.3530   20.3750    4.4450 C.3   300  DR2300      0.2118
     32  OAI        7.5620   20.8300    5.0720 O.3   300  DR2300     -0.2177
     33  CBN        6.6160   19.0010    3.8120 C.3   300  DR2300      0.2197
     34  OAK        7.6640   19.0870    2.8420 O.3   300  DR2300     -0.2174
     35  CBO        6.9490   17.9560    4.8760 C.3   300  DR2300      0.2406
     36  OAL        7.1830   16.6330    4.3260 O.3   300  DR2300     -0.2149
@<TRIPOS>BOND
     1    13    12    1
     2    34    33    1
     3    12    11    1
     4    33    31    1
     5    33    35    1
     6    10    11    1
     7    10     8    1
     8    36    35    1
     9    31    32    1
    10    31    29    1
    11    11    14    1
    12    35    27    1
    13    26    25    1
    14    26    27    1
    15    23    24    1
    16    23    25    1
    17    23    21    1
    18     8     9    2
    19     8     3    1
    20    29    30    1
    21    29    28    1
    22    16    25    1
    23    16    15    1
    24    16    17    1
    25    14    15    1
    26    14     2    1
    27    18    21    1
    28    18    17    1
    29    18    19    1
    30    27    28    1
    31    21    22    1
    32    20    19    1
    33     3     2    1
    34     3     4    1
    35     7     5    2
    36     2     1    1
    37     5     4   am
    38     5     6    1
