@<TRIPOS>MOLECULE
3e6k_ABH_A_1.pdb
 13 12 0 0 0
SMALL
GASTEIGER

@<TRIPOS>ATOM
      1  N         24.3930   -8.5970    4.1210 N.3   552  ABH552      0.0000
      2  CA        24.1980   -8.7220    5.5910 C.3   552  ABH552      0.0000
      3  C         25.1950   -9.8240    6.0510 C.2   552  ABH552      0.0000
      4  O         25.3420  -10.2190    7.1710 O.co2 552  ABH552      0.0000
      5  OT        25.9080  -10.3160    5.0130 O.co2 552  ABH552      0.0000
      6  CB        22.7160   -9.1240    5.9090 C.3   552  ABH552      0.0000
      7  CG        22.3140  -10.5610    5.5820 C.3   552  ABH552      0.0000
      8  CD        20.8170  -10.7990    5.5050 C.3   552  ABH552      0.0000
      9  CE        20.4880  -12.2860    5.3790 C.3   552  ABH552      0.0000
     10  B         18.9680  -12.6990    5.2750 B     552  ABH552      0.0000
     11  O2        18.8290  -14.1220    5.5250 O.3   552  ABH552      0.0000
     12  O1        18.4720  -12.4750    3.9360 O.3   552  ABH552      0.0000
     13  O3        18.0820  -11.9940    6.1780 O.3   552  ABH552      0.0000
@<TRIPOS>BOND
     1    12    10    1
     2     1     2    1
     3     5     3   ar
     4    10     9    1
     5    10    11    1
     6    10    13    1
     7     9     8    1
     8     8     7    1
     9     7     6    1
    10     2     6    1
    11     2     3    1
    12     3     4   ar
