@<TRIPOS>MOLECULE
3e6l_A11_A_1.pdb
 19 20 0 0 0
SMALL
GASTEIGER

@<TRIPOS>ATOM
      1 CL        127.2370  112.5400   31.2900 Cl    906  A11906     -0.0821
      2  C2       126.0500  113.7750   31.5140 C.ar  906  A11906      0.0620
      3  C3       125.8370  114.7050   30.4950 C.ar  906  A11906      0.0322
      4  C4       124.8640  115.7200   30.6740 C.ar  906  A11906      0.1012
      5  N5       124.1290  115.7810   31.8670 N.ar  906  A11906     -0.2277
      6  C6       124.3610  114.8410   32.8880 C.ar  906  A11906      0.1483
      7  C7       125.3260  113.8320   32.7070 C.ar  906  A11906      0.0472
      8  N8       123.6370  114.9570   34.0410 N.pl3 906  A11906     -0.2219
      9  C9       123.7520  114.1140   35.2090 C.3   906  A11906      0.0975
     10  C10      125.0070  114.5630   36.0040 C.3   906  A11906      0.0433
     11  C11      124.8830  115.9850   36.5460 C.3   906  A11906      0.0985
     12  N12      123.6530  116.0970   37.3610 N.am  906  A11906     -0.2459
     13  C13      122.4460  115.7540   36.5990 C.3   906  A11906      0.0985
     14  C14      122.5290  114.3390   36.0930 C.3   906  A11906      0.0433
     15  C15      123.6130  116.4660   38.6560 C.2   906  A11906      0.4049
     16  O16      124.6900  116.7500   39.2650 O.2   906  A11906     -0.2262
     17  O17      122.3850  116.4970   39.1920 O.3   906  A11906     -0.4345
     18  C18      122.2380  116.8720   40.5420 C.3   906  A11906      0.2102
     19  C19      120.8700  116.3330   40.9730 C.3   906  A11906      0.0513
@<TRIPOS>BOND
     1     3     4   ar
     2     3     2   ar
     3     4     5   ar
     4     1     2    1
     5     2     7   ar
     6     5     6   ar
     7     7     6   ar
     8     6     8    1
     9     8     9    1
    10     9    10    1
    11     9    14    1
    12    10    11    1
    13    14    13    1
    14    11    12    1
    15    13    12    1
    16    12    15   am
    17    15    17    1
    18    15    16    2
    19    17    18    1
    20    18    19    1
