@<TRIPOS>MOLECULE
3e6l_H4B_A_1.pdb
 17 18 0 0 0
SMALL
GASTEIGER

@<TRIPOS>ATOM
      1  N1       113.8800  112.1100   32.5680 N.2   902  H4B902     -0.2672
      2  C2       115.1340  112.5110   32.7940 C.1   902  H4B902      0.2609
      3  N2       115.8770  112.9140   31.7730 N.pl3 902  H4B902     -0.0220
      4  N3       115.6610  112.5150   34.0190 N.2   902  H4B902     -0.2466
      5  C4       114.9460  112.1150   35.0680 C.1   902  H4B902      0.2569
      6  O4       115.3860  112.1360   36.2230 O.2   902  H4B902     -0.2052
      7  C4A      113.6360  111.6500   34.8820 C.2   902  H4B902      0.2989
      8  C8A      113.1380  111.6160   33.5580 C.1   902  H4B902      0.1401
      9  N5       112.8920  111.2660   35.9100 N.2   902  H4B902     -0.3830
     10  N8       111.9330  111.0940   33.3000 N.2   902  H4B902     -0.1992
     11  C6       111.4890  110.9890   35.7110 C.2   902  H4B902      0.1466
     12  C7       111.0570  110.7900   34.3260 C.3   902  H4B902      0.1940
     13  C9       110.8820  110.2700   36.9140 C.3   902  H4B902      0.2313
     14  O9       110.5020  111.2390   37.8940 O.3   902  H4B902     -0.2130
     15  C10      109.6850  109.3830   36.5750 C.3   902  H4B902      0.1888
     16  C11      109.0360  108.8470   37.8460 C.3   902  H4B902      0.0387
     17  O10      110.1320  108.2860   35.7660 O.3   902  H4B902     -0.2200
@<TRIPOS>BOND
     1     3     2    1
     2     1     2    2
     3     1     8    2
     4     2     4    2
     5    10     8    2
     6    10    12    1
     7     8     7    1
     8     4     5    2
     9    12    11    1
    10     7     5    1
    11     7     9    2
    12     5     6    2
    13    11     9    2
    14    11    13    1
    15    17    15    1
    16    15    13    1
    17    15    16    1
    18    13    14    1
