@<TRIPOS>MOLECULE
3e6l_HEM_A_1.pdb
 43 50 0 0 0
SMALL
GASTEIGER

@<TRIPOS>ATOM
      1 FE        124.3280  111.6940   28.4330 Fe    901  HEM901      0.0000
      2  CHA      121.8580  110.9280   30.6890 C.2   901  HEM901      0.0000
      3  CHB      122.9980  114.7580   27.9850 C.2   901  HEM901      0.0000
      4  CHC      127.3520  112.8840   27.2220 C.2   901  HEM901      0.0000
      5  CHD      125.9170  108.7790   29.2410 C.2   901  HEM901      0.0000
      6  NA       122.7390  112.6630   29.2220 N.ar  901  HEM901      0.0000
      7  C1A      121.8230  112.2090   30.1620 C.ar  901  HEM901      0.0000
      8  C2A      120.7960  113.2420   30.4640 C.ar  901  HEM901      0.0000
      9  C3A      121.0830  114.2910   29.6300 C.ar  901  HEM901      0.0000
     10  C4A      122.3030  113.9220   28.8670 C.ar  901  HEM901      0.0000
     11  CMA      120.2610  115.5710   29.5000 C.3   901  HEM901      0.0000
     12  CAA      119.7060  113.2440   31.5370 C.3   901  HEM901      0.0000
     13  CBA      120.2540  112.9950   32.9390 C.3   901  HEM901      0.0000
     14  CGA      119.1850  113.0520   34.0120 C.2   901  HEM901      0.0000
     15  O1A      119.4790  112.6650   35.1630 O.co2 901  HEM901      0.0000
     16  O2A      118.0540  113.4880   33.7100 O.co2 901  HEM901      0.0000
     17  NB       125.0220  113.4220   27.6070 N.2   901  HEM901      0.0000
     18  C1B      124.2570  114.5320   27.3900 C.2   901  HEM901      0.0000
     19  C2B      125.0280  115.5410   26.6990 C.2   901  HEM901      0.0000
     20  C3B      126.3030  115.0600   26.4840 C.2   901  HEM901      0.0000
     21  C4B      126.2830  113.7230   27.0960 C.2   901  HEM901      0.0000
     22  CMB      124.5230  116.9470   26.4100 C.3   901  HEM901      0.0000
     23  CAB      127.3160  115.7810   25.8330 C.3   901  HEM901      0.0000
     24  CBB      128.4380  115.3180   25.1770 C.3   901  HEM901      0.0000
     25  NC       126.2540  110.9710   28.2390 N.ar  901  HEM901      0.0000
     26  C1C      127.3650  111.6340   27.7650 C.ar  901  HEM901      0.0000
     27  C2C      128.5660  110.8170   27.8320 C.ar  901  HEM901      0.0000
     28  C3C      128.1610  109.5810   28.3320 C.ar  901  HEM901      0.0000
     29  C4C      126.7010  109.7180   28.5850 C.ar  901  HEM901      0.0000
     30  CMC      129.9820  111.2870   27.4500 C.3   901  HEM901      0.0000
     31  CAC      128.9570  108.4280   28.5870 C.3   901  HEM901      0.0000
     32  CBC      130.3050  108.2020   28.2760 C.3   901  HEM901      0.0000
     33  ND       123.9060  110.1270   29.6410 N.2   901  HEM901      0.0000
     34  C1D      124.6250  108.9430   29.7290 C.2   901  HEM901      0.0000
     35  C2D      123.8990  107.9800   30.5730 C.2   901  HEM901      0.0000
     36  C3D      122.7900  108.6150   31.0140 C.2   901  HEM901      0.0000
     37  C4D      122.7960  109.9550   30.4370 C.2   901  HEM901      0.0000
     38  CMD      124.2240  106.5320   30.9040 C.3   901  HEM901      0.0000
     39  CAD      121.7720  108.0120   31.9540 C.3   901  HEM901      0.0000
     40  CBD      122.0180  108.5320   33.3500 C.3   901  HEM901      0.0000
     41  CGD      121.0890  107.9110   34.3660 C.2   901  HEM901      0.0000
     42  O1D      121.0880  108.3740   35.5220 O.co2 901  HEM901      0.0000
     43  O2D      120.3610  106.9580   34.0140 O.co2 901  HEM901      0.0000
@<TRIPOS>BOND
     1    24    23    1
     2    23    20    1
     3    22    19    1
     4    20    19    2
     5    20    21    1
     6    19    18    1
     7    21     4    2
     8    21    17    1
     9     4    26    1
    10    18    17    2
    11    18     3    1
    12    30    27    1
    13    17     1    1
    14    26    27   ar
    15    26    25   ar
    16    27    28   ar
    17     3    10    2
    18    25     1    1
    19    25    29   ar
    20    32    31    1
    21    28    29   ar
    22    28    31    1
    23     1     6    1
    24     1    33    1
    25    29     5    1
    26    10     6   ar
    27    10     9   ar
    28     6     7   ar
    29     5    34    2
    30    11     9    1
    31     9     8   ar
    32    33    34    1
    33    33    37    2
    34    34    35    1
    35     7     8   ar
    36     7     2    2
    37    37     2    1
    38    37    36    1
    39     8    12    1
    40    35    38    1
    41    35    36    2
    42    36    39    1
    43    12    13    1
    44    39    40    1
    45    13    14    1
    46    40    41    1
    47    16    14   ar
    48    14    15   ar
    49    43    41   ar
    50    41    42   ar
