@<TRIPOS>MOLECULE
3e6n_HEM_A_1.pdb
 43 50 0 0 0
SMALL
GASTEIGER

@<TRIPOS>ATOM
      1 FE        -72.3770   21.7060   -9.9870 Fe    901  HEM901      0.0000
      2  CHA      -71.7780   24.1820   -7.7240 C.2   901  HEM901      0.0000
      3  CHB      -69.0730   21.2900  -10.3920 C.2   901  HEM901      0.0000
      4  CHC      -72.8820   18.5560  -11.2080 C.2   901  HEM901      0.0000
      5  CHD      -75.6390   21.8730   -9.1430 C.2   901  HEM901      0.0000
      6  NA       -70.7660   22.5380   -9.1780 N.ar  901  HEM901      0.0000
      7  C1A      -70.6990   23.5470   -8.2710 C.ar  901  HEM901      0.0000
      8  C2A      -69.3310   23.9760   -8.0260 C.ar  901  HEM901      0.0000
      9  C3A      -68.5830   23.1960   -8.8600 C.ar  901  HEM901      0.0000
     10  C4A      -69.4900   22.3190   -9.5460 C.ar  901  HEM901      0.0000
     11  CMA      -67.0940   23.1890   -9.0680 C.3   901  HEM901      0.0000
     12  CAA      -68.9260   25.0270   -6.9690 C.3   901  HEM901      0.0000
     13  CBA      -68.5340   24.3120   -5.6940 C.3   901  HEM901      0.0000
     14  CGA      -68.3760   25.2470   -4.5300 C.2   901  HEM901      0.0000
     15  O1A      -69.1080   25.0740   -3.5330 O.co2 901  HEM901      0.0000
     16  O2A      -67.5300   26.1660   -4.6060 O.co2 901  HEM901      0.0000
     17  NB       -71.1990   20.2200  -10.6770 N.2   901  HEM901      0.0000
     18  C1B      -69.8570   20.3220  -10.9220 C.2   901  HEM901      0.0000
     19  C2B      -69.3520   19.2530  -11.6820 C.2   901  HEM901      0.0000
     20  C3B      -70.4150   18.4160  -11.9310 C.2   901  HEM901      0.0000
     21  C4B      -71.5750   19.0570  -11.2660 C.2   901  HEM901      0.0000
     22  CMB      -67.8910   19.0930  -12.1080 C.3   901  HEM901      0.0000
     23  CAB      -70.3280   17.1830  -12.5660 C.3   901  HEM901      0.0000
     24  CBB      -71.2700   16.4990  -13.3380 C.3   901  HEM901      0.0000
     25  NC       -73.9340   20.4390  -10.0810 N.ar  901  HEM901      0.0000
     26  C1C      -73.9680   19.1750  -10.6300 C.ar  901  HEM901      0.0000
     27  C2C      -75.2840   18.6000  -10.5880 C.ar  901  HEM901      0.0000
     28  C3C      -76.0750   19.5980  -10.0210 C.ar  901  HEM901      0.0000
     29  C4C      -75.2100   20.7060   -9.7300 C.ar  901  HEM901      0.0000
     30  CMC      -75.6090   17.1640  -11.0470 C.3   901  HEM901      0.0000
     31  CAC      -77.4480   19.6510   -9.7580 C.3   901  HEM901      0.0000
     32  CBC      -78.3730   18.6690  -10.1190 C.3   901  HEM901      0.0000
     33  ND       -73.4930   22.9290   -8.8490 N.2   901  HEM901      0.0000
     34  C1D      -74.8520   22.9150   -8.7350 C.2   901  HEM901      0.0000
     35  C2D      -75.3480   23.9480   -7.8260 C.2   901  HEM901      0.0000
     36  C3D      -74.2540   24.5400   -7.3610 C.2   901  HEM901      0.0000
     37  C4D      -73.1010   23.9000   -7.9990 C.2   901  HEM901      0.0000
     38  CMD      -76.7760   24.3140   -7.4720 C.3   901  HEM901      0.0000
     39  CAD      -74.2360   25.6360   -6.3090 C.3   901  HEM901      0.0000
     40  CBD      -74.0590   25.1450   -4.8750 C.3   901  HEM901      0.0000
     41  CGD      -73.9010   26.2870   -3.9000 C.2   901  HEM901      0.0000
     42  O1D      -73.3680   26.0800   -2.7870 O.co2 901  HEM901      0.0000
     43  O2D      -74.3070   27.4140   -4.2480 O.co2 901  HEM901      0.0000
@<TRIPOS>BOND
     1    24    23    1
     2    23    20    1
     3    22    19    1
     4    20    19    2
     5    20    21    1
     6    19    18    1
     7    21     4    2
     8    21    17    1
     9     4    26    1
    10    30    27    1
    11    18    17    2
    12    18     3    1
    13    17     1    1
    14    26    27   ar
    15    26    25   ar
    16    27    28   ar
    17     3    10    2
    18    32    31    1
    19    25     1    1
    20    25    29   ar
    21    28    31    1
    22    28    29   ar
    23     1     6    1
    24     1    33    1
    25    29     5    1
    26    10     6   ar
    27    10     9   ar
    28     6     7   ar
    29     5    34    2
    30    11     9    1
    31     9     8   ar
    32    33    34    1
    33    33    37    2
    34    34    35    1
    35     7     8   ar
    36     7     2    2
    37     8    12    1
    38    37     2    1
    39    37    36    1
    40    35    38    1
    41    35    36    2
    42    36    39    1
    43    12    13    1
    44    39    40    1
    45    13    14    1
    46    40    41    1
    47    16    14   ar
    48    14    15   ar
    49    43    41   ar
    50    41    42   ar
