@<TRIPOS>MOLECULE
3e6n_AS3_A_1.pdb
 11 11 0 0 0
SMALL
GASTEIGER

@<TRIPOS>ATOM
      1  N8       -68.1420   19.2850   -7.9120 N.pl3 903  AS3903     -0.0977
      2  C1       -69.2630   19.6050   -7.2350 C.2   903  AS3903      0.2001
      3  N6       -69.1840   20.3150   -6.0760 N.2   903  AS3903     -0.3924
      4  C5       -70.2980   20.6570   -5.3710 C.2   903  AS3903      0.1097
      5  C9       -70.1170   21.4430   -4.0870 C.3   903  AS3903      0.0590
      6  C10      -69.5320   20.6160   -2.9350 C.3   903  AS3903      0.0074
      7  C11      -70.4520   19.4720   -2.5430 C.3   903  AS3903      0.0004
      8  C4       -71.5510   20.2710   -5.8460 C.2   903  AS3903      0.0196
      9  C3       -71.6540   19.5460   -7.0230 C.2   903  AS3903     -0.0332
     10  C7       -73.0060   19.1250   -7.5320 C.3   903  AS3903      0.0269
     11  C2       -70.4980   19.2080   -7.7270 C.3   903  AS3903      0.1001
@<TRIPOS>BOND
     1     1     2    1
     2    11     2    1
     3    11     9    1
     4    10     9    1
     5     2     3    2
     6     9     8    2
     7     3     4    2
     8     8     4    1
     9     4     5    1
    10     5     6    1
    11     6     7    1
