@<TRIPOS>MOLECULE
3e6n_H4B_A_1.pdb
 17 18 0 0 0
SMALL
GASTEIGER

@<TRIPOS>ATOM
      1  N1       -66.6240   30.6070   -5.8440 N.2   902  H4B902     -0.2672
      2  C2       -66.9340   29.3190   -5.6540 C.1   902  H4B902      0.2609
      3  N2       -66.9370   28.4870   -6.6900 N.pl3 902  H4B902     -0.0220
      4  N3       -67.2360   28.8460   -4.4410 N.2   902  H4B902     -0.2466
      5  C4       -67.2390   29.6470   -3.3770 C.1   902  H4B902      0.2569
      6  O4       -67.4710   29.2280   -2.2510 O.2   902  H4B902     -0.2052
      7  C4A      -66.9620   31.0210   -3.5260 C.2   902  H4B902      0.2989
      8  C8A      -66.6660   31.4800   -4.8330 C.1   902  H4B902      0.1401
      9  N5       -66.9650   31.8490   -2.4800 N.2   902  H4B902     -0.3830
     10  N8       -66.4280   32.7780   -5.0500 N.2   902  H4B902     -0.1992
     11  C6       -66.7780   33.1490   -2.7000 C.2   902  H4B902      0.1466
     12  C7       -66.4880   33.6680   -3.9930 C.3   902  H4B902      0.1940
     13  C9       -66.7770   34.0420   -1.4680 C.3   902  H4B902      0.2313
     14  O9       -65.5390   33.9930   -0.7650 O.3   902  H4B902     -0.2130
     15  C10      -67.0730   35.4910   -1.8660 C.3   902  H4B902      0.1888
     16  C11      -67.0560   36.3840   -0.6300 C.3   902  H4B902      0.0387
     17  O10      -68.3660   35.5590   -2.4850 O.3   902  H4B902     -0.2200
@<TRIPOS>BOND
     1     3     2    1
     2     1     2    2
     3     1     8    2
     4     2     4    2
     5    10     8    2
     6    10    12    1
     7     8     7    1
     8     4     5    2
     9    12    11    1
    10     7     5    1
    11     7     9    2
    12     5     6    2
    13    11     9    2
    14    11    13    1
    15    17    15    1
    16    15    13    1
    17    15    16    1
    18    13    14    1
