@<TRIPOS>MOLECULE
3e6o_H4B_A_1.pdb
 17 18 0 0 0
SMALL
GASTEIGER

@<TRIPOS>ATOM
      1  N1       113.3920  112.0120   32.3980 N.2   902  H4B902     -0.2672
      2  C2       114.6640  112.3640   32.5920 C.1   902  H4B902      0.2609
      3  N2       115.4010  112.7160   31.5500 N.pl3 902  H4B902     -0.0220
      4  N3       115.2080  112.4010   33.8130 N.2   902  H4B902     -0.2466
      5  C4       114.4750  112.0940   34.8790 C.1   902  H4B902      0.2569
      6  O4       114.8710  112.2620   36.0320 O.2   902  H4B902     -0.2052
      7  C4A      113.1860  111.5790   34.7130 C.2   902  H4B902      0.2989
      8  C8A      112.7060  111.4590   33.3960 C.1   902  H4B902      0.1401
      9  N5       112.4370  111.2310   35.7510 N.2   902  H4B902     -0.3830
     10  N8       111.5740  110.7910   33.1550 N.2   902  H4B902     -0.1992
     11  C6       111.0320  110.9440   35.5470 C.2   902  H4B902      0.1466
     12  C7       110.6380  110.6560   34.1680 C.3   902  H4B902      0.1940
     13  C9       110.3980  110.2610   36.7680 C.3   902  H4B902      0.2313
     14  O9       109.8920  111.2560   37.6640 O.3   902  H4B902     -0.2130
     15  C10      109.2700  109.3240   36.3760 C.3   902  H4B902      0.1888
     16  C11      108.4990  108.8570   37.6070 C.3   902  H4B902      0.0387
     17  O10      109.8350  108.1960   35.7130 O.3   902  H4B902     -0.2200
@<TRIPOS>BOND
     1     3     2    1
     2     1     2    2
     3     1     8    2
     4     2     4    2
     5    10     8    2
     6    10    12    1
     7     8     7    1
     8     4     5    2
     9    12    11    1
    10     7     5    1
    11     7     9    2
    12     5     6    2
    13    11     9    2
    14    11    13    1
    15    17    15    1
    16    15    13    1
    17    15    16    1
    18    13    14    1
