@<TRIPOS>MOLECULE
3e6o_A55_A_1.pdb
 23 25 0 0 0
SMALL
GASTEIGER

@<TRIPOS>ATOM
      1  C2       126.0010  111.2710   31.2360 C.2   903  A55903      0.0122
      2  C1       126.4320  112.5100   30.6710 C.3   903  A55903      0.0852
      3  C6       125.7160  113.7110   30.9400 C.2   903  A55903      0.1310
      4  C5       124.5760  113.6740   31.7770 C.2   903  A55903      0.1333
      5  C4       124.1690  112.4200   32.3360 C.2   903  A55903      0.1166
      6  C3       124.8550  111.2430   32.0700 C.2   903  A55903      0.1538
      7  F27      124.4080  110.1010   32.6180 F     903  A55903     -0.2029
      8  N7       123.0810  112.4100   33.1460 N.2   903  A55903     -0.2216
      9  C8       122.9020  113.6040   33.9880 C.3   903  A55903      0.3205
     10  N9       122.9260  114.8720   33.2080 N.2   903  A55903     -0.0363
     11  C10      123.7210  114.8900   32.1470 C.2   903  A55903      0.4156
     12  N11      123.7970  115.9430   31.3630 N.pl3 903  A55903      0.2161
     13  C16      124.0170  113.5690   35.0780 C.3   903  A55903      0.1033
     14  C17      124.1330  114.8940   35.8310 C.3   903  A55903      0.1222
     15  N18      123.0380  114.9340   36.7940 N.am  903  A55903     -0.2014
     16  C20      123.1940  115.5750   37.9840 C.2   903  A55903      0.2680
     17  C21      122.0630  115.6010   38.9240 C.ar  903  A55903      0.0957
     18  C23      121.0230  114.5490   39.0190 C.ar  903  A55903      0.0484
     19  C24      120.2080  115.0000   39.9840 C.ar  903  A55903      0.1799
     20  O25      120.5570  116.2070   40.5520 O.2   903  A55903     -0.4472
     21  C26      121.6940  116.5110   39.8570 C.ar  903  A55903      0.1843
     22  O22      124.2720  116.1640   38.3260 O.2   903  A55903     -0.2683
     23  F12      126.1250  114.8700   30.4020 F     903  A55903     -0.2082
@<TRIPOS>BOND
     1    23     3    1
     2     2     3    1
     3     2     1    1
     4     3     4    2
     5     1     6    2
     6    12    11    1
     7     4    11    1
     8     4     5    1
     9     6     5    1
    10     6     7    1
    11    11    10    2
    12     5     8    2
    13     8     9    1
    14    10     9    1
    15     9    13    1
    16    13    14    1
    17    14    15    1
    18    15    16   am
    19    16    22    2
    20    16    17    1
    21    17    18   ar
    22    17    21   ar
    23    18    19   ar
    24    21    20   ar
    25    19    20   ar
