@<TRIPOS>MOLECULE
3e6o_HEM_A_1.pdb
 43 50 0 0 0
SMALL
GASTEIGER

@<TRIPOS>ATOM
      1 FE        123.9820  111.2040   28.2920 Fe    901  HEM901      0.0000
      2  CHA      121.3990  110.5980   30.5030 C.2   901  HEM901      0.0000
      3  CHB      122.9090  114.4750   28.0020 C.2   901  HEM901      0.0000
      4  CHC      127.0680  112.2280   27.0630 C.2   901  HEM901      0.0000
      5  CHD      125.4450  108.2130   29.2730 C.2   901  HEM901      0.0000
      6  NA       122.4880  112.3350   29.1640 N.ar  901  HEM901      0.0000
      7  C1A      121.4820  111.9090   30.0150 C.ar  901  HEM901      0.0000
      8  C2A      120.5130  112.9960   30.2770 C.ar  901  HEM901      0.0000
      9  C3A      120.9360  114.0530   29.5260 C.ar  901  HEM901      0.0000
     10  C4A      122.1590  113.6480   28.8390 C.ar  901  HEM901      0.0000
     11  CMA      120.1990  115.3860   29.3340 C.3   901  HEM901      0.0000
     12  CAA      119.2940  113.0020   31.1840 C.3   901  HEM901      0.0000
     13  CBA      119.8050  113.0320   32.5970 C.3   901  HEM901      0.0000
     14  CGA      118.7010  113.0600   33.6410 C.2   901  HEM901      0.0000
     15  O1A      119.0350  112.9200   34.8310 O.co2 901  HEM901      0.0000
     16  O2A      117.5130  113.2250   33.2870 O.co2 901  HEM901      0.0000
     17  NB       124.8000  112.9730   27.6120 N.2   901  HEM901      0.0000
     18  C1B      124.1180  114.1480   27.4230 C.2   901  HEM901      0.0000
     19  C2B      124.8920  115.0790   26.6500 C.2   901  HEM901      0.0000
     20  C3B      126.1160  114.5290   26.3790 C.2   901  HEM901      0.0000
     21  C4B      126.0380  113.1710   27.0110 C.2   901  HEM901      0.0000
     22  CMB      124.4300  116.4510   26.1710 C.3   901  HEM901      0.0000
     23  CAB      127.1780  115.2680   25.7900 C.3   901  HEM901      0.0000
     24  CBB      128.1150  114.8830   24.8230 C.3   901  HEM901      0.0000
     25  NC       125.8650  110.3610   28.1590 N.ar  901  HEM901      0.0000
     26  C1C      126.9980  110.9550   27.6250 C.ar  901  HEM901      0.0000
     27  C2C      128.1140  110.0670   27.7410 C.ar  901  HEM901      0.0000
     28  C3C      127.6610  108.8950   28.3220 C.ar  901  HEM901      0.0000
     29  C4C      126.2550  109.1020   28.5770 C.ar  901  HEM901      0.0000
     30  CMC      129.5140  110.4130   27.2520 C.3   901  HEM901      0.0000
     31  CAC      128.3730  107.7210   28.6030 C.3   901  HEM901      0.0000
     32  CBC      129.6350  107.3940   28.1100 C.3   901  HEM901      0.0000
     33  ND       123.4510  109.6500   29.4970 N.2   901  HEM901      0.0000
     34  C1D      124.1420  108.4520   29.7080 C.2   901  HEM901      0.0000
     35  C2D      123.3860  107.5780   30.6060 C.2   901  HEM901      0.0000
     36  C3D      122.2960  108.2690   30.9310 C.2   901  HEM901      0.0000
     37  C4D      122.3090  109.5550   30.2590 C.2   901  HEM901      0.0000
     38  CMD      123.6850  106.1960   31.1560 C.3   901  HEM901      0.0000
     39  CAD      121.3130  107.8120   31.9430 C.3   901  HEM901      0.0000
     40  CBD      121.6320  108.3430   33.3050 C.3   901  HEM901      0.0000
     41  CGD      120.6430  107.8590   34.3190 C.2   901  HEM901      0.0000
     42  O1D      120.5720  108.4360   35.4220 O.co2 901  HEM901      0.0000
     43  O2D      119.9330  106.8820   34.0120 O.co2 901  HEM901      0.0000
@<TRIPOS>BOND
     1    24    23    1
     2    23    20    1
     3    22    19    1
     4    20    19    2
     5    20    21    1
     6    19    18    1
     7    21     4    2
     8    21    17    1
     9     4    26    1
    10    30    27    1
    11    18    17    2
    12    18     3    1
    13    17     1    1
    14    26    27   ar
    15    26    25   ar
    16    27    28   ar
    17     3    10    2
    18    32    31    1
    19    25     1    1
    20    25    29   ar
    21     1     6    1
    22     1    33    1
    23    28    29   ar
    24    28    31    1
    25    29     5    1
    26    10     6   ar
    27    10     9   ar
    28     6     7   ar
    29     5    34    2
    30    11     9    1
    31    33    34    1
    32    33    37    2
    33     9     8   ar
    34    34    35    1
    35     7     8   ar
    36     7     2    2
    37    37     2    1
    38    37    36    1
    39     8    12    1
    40    35    36    2
    41    35    38    1
    42    36    39    1
    43    12    13    1
    44    39    40    1
    45    13    14    1
    46    16    14   ar
    47    40    41    1
    48    14    15   ar
    49    43    41   ar
    50    41    42   ar
