@<TRIPOS>MOLECULE
3e6p_DFK_H_1.pdb
 30 31 0 0 0
SMALL
GASTEIGER

@<TRIPOS>ATOM
      1  N1       -56.2150  -17.1140  -20.6680 N.3   301  DFK301     -0.1228
      2  CA1      -55.2990  -17.3440  -21.7640 C.3   301  DFK301      0.1721
      3  C1       -53.8790  -17.0110  -21.3870 C.2   301  DFK301      0.2437
      4  O1       -53.3840  -17.4710  -20.3620 O.2   301  DFK301     -0.2733
      5  CB1      -55.3730  -18.8090  -22.1410 C.3   301  DFK301      0.0547
      6  CG1      -54.7420  -19.0530  -23.4840 C.ar  301  DFK301     -0.0202
      7  CD1      -55.1900  -18.3570  -24.6060 C.ar  301  DFK301     -0.0042
      8  CD2      -53.7070  -19.9830  -23.5940 C.ar  301  DFK301     -0.0042
      9  CE1      -54.6160  -18.5800  -25.8620 C.ar  301  DFK301     -0.0003
     10  CE2      -53.1380  -20.2030  -24.8230 C.ar  301  DFK301     -0.0003
     11  CZ1      -53.5810  -19.5030  -25.9520 C.ar  301  DFK301     -0.0000
     12  N2       -53.1930  -16.1970  -22.2060 N.am  301  DFK301     -0.2718
     13  CA2      -51.8060  -15.9020  -21.8910 C.3   301  DFK301      0.1535
     14  C2       -51.6440  -15.0550  -20.6780 C.2   301  DFK301      0.2595
     15  O2       -52.4530  -14.1660  -20.4540 O.2   301  DFK301     -0.2716
     16  CB2      -51.3310  -15.0930  -23.0770 C.3   301  DFK301      0.0310
     17  CG2      -52.3630  -15.0980  -24.1590 C.3   301  DFK301      0.0237
     18  CD3      -53.6330  -15.5740  -23.4610 C.3   301  DFK301      0.0939
     19  N3       -50.5670  -15.2830  -19.9110 N.am  301  DFK301     -0.2032
     20  CA3      -50.2900  -14.4830  -18.7260 C.3   301  DFK301      0.1257
     21  C3       -48.9800  -13.6920  -18.9980 C.3   301  DFK301      0.1718
     22  O3       -49.0410  -12.6370  -18.0240 O.3   301  DFK301     -0.2213
     23  CB3      -50.1150  -15.4630  -17.5670 C.3   301  DFK301      0.0280
     24  CG3      -51.4170  -15.9890  -17.0370 C.3   301  DFK301      0.0488
     25  CD4      -51.0350  -17.0570  -16.0240 C.3   301  DFK301      0.2205
     26  NE       -52.2740  -17.4830  -15.3890 N.pl3 301  DFK301     -0.0865
     27  CZ3      -52.4050  -18.4310  -14.4490 C.cat 301  DFK301      0.5346
     28  NH1      -51.3620  -19.1400  -13.9810 N.pl3 301  DFK301      0.1354
     29  NH2      -53.6150  -18.6920  -13.9430 N.pl3 301  DFK301      0.1354
     30  CH2      -48.7530  -13.1150  -20.4330 C.3   301  DFK301      0.0373
@<TRIPOS>BOND
     1    11     9   ar
     2    11    10   ar
     3     9     7   ar
     4    10     8   ar
     5     7     6   ar
     6    17    18    1
     7    17    16    1
     8     8     6   ar
     9     6     5    1
    10    18    12    1
    11    16    13    1
    12    12    13    1
    13    12     3   am
    14     5     2    1
    15    13    14    1
    16     2     3    1
    17     2     1    1
    18     3     4    2
    19    14    15    2
    20    14    19   am
    21    30    21    1
    22    19    20    1
    23    21    20    1
    24    21    22    1
    25    20    23    1
    26    23    24    1
    27    24    25    1
    28    25    26    1
    29    26    27    2
    30    27    28    1
    31    27    29    1
