@<TRIPOS>MOLECULE
3e6t_HEM_A_1.pdb
 43 50 0 0 0
SMALL
GASTEIGER

@<TRIPOS>ATOM
      1 FE        124.5420  111.6540   28.7310 Fe    901  HEM901      0.0000
      2  CHA      121.8630  110.9430   30.7930 C.2   901  HEM901      0.0000
      3  CHB      123.4010  114.8420   28.3310 C.2   901  HEM901      0.0000
      4  CHC      127.6250  112.6820   27.3820 C.2   901  HEM901      0.0000
      5  CHD      126.0360  108.6700   29.5980 C.2   901  HEM901      0.0000
      6  NA       122.9590  112.7070   29.4770 N.ar  901  HEM901      0.0000
      7  C1A      121.9290  112.2590   30.3210 C.ar  901  HEM901      0.0000
      8  C2A      120.9500  113.3360   30.5820 C.ar  901  HEM901      0.0000
      9  C3A      121.3930  114.3960   29.8310 C.ar  901  HEM901      0.0000
     10  C4A      122.6340  114.0040   29.1450 C.ar  901  HEM901      0.0000
     11  CMA      120.6810  115.7390   29.6740 C.3   901  HEM901      0.0000
     12  CAA      119.7360  113.3690   31.5200 C.3   901  HEM901      0.0000
     13  CBA      120.1560  113.6110   32.9570 C.3   901  HEM901      0.0000
     14  CGA      118.9940  113.6410   33.9400 C.2   901  HEM901      0.0000
     15  O1A      119.2400  113.5040   35.1670 O.co2 901  HEM901      0.0000
     16  O2A      117.8360  113.8110   33.4950 O.co2 901  HEM901      0.0000
     17  NB       125.3330  113.3840   27.9280 N.2   901  HEM901      0.0000
     18  C1B      124.6330  114.5560   27.7640 C.2   901  HEM901      0.0000
     19  C2B      125.4100  115.4950   27.0070 C.2   901  HEM901      0.0000
     20  C3B      126.6190  114.9620   26.7340 C.2   901  HEM901      0.0000
     21  C4B      126.5660  113.6020   27.3250 C.2   901  HEM901      0.0000
     22  CMB      124.9330  116.8170   26.4670 C.3   901  HEM901      0.0000
     23  CAB      127.6490  115.7090   26.1570 C.3   901  HEM901      0.0000
     24  CBB      128.5530  115.3400   25.1810 C.3   901  HEM901      0.0000
     25  NC       126.4400  110.8540   28.5310 N.ar  901  HEM901      0.0000
     26  C1C      127.5680  111.4290   27.9700 C.ar  901  HEM901      0.0000
     27  C2C      128.6960  110.5210   28.0550 C.ar  901  HEM901      0.0000
     28  C3C      128.2480  109.3480   28.6270 C.ar  901  HEM901      0.0000
     29  C4C      126.8420  109.5720   28.9260 C.ar  901  HEM901      0.0000
     30  CMC      130.1090  110.8890   27.6310 C.3   901  HEM901      0.0000
     31  CAC      128.9420  108.1780   28.8970 C.3   901  HEM901      0.0000
     32  CBC      130.1530  107.7890   28.3230 C.3   901  HEM901      0.0000
     33  ND       124.0130  110.0770   29.8670 N.2   901  HEM901      0.0000
     34  C1D      124.7180  108.8930   30.0330 C.2   901  HEM901      0.0000
     35  C2D      123.9450  107.9490   30.8200 C.2   901  HEM901      0.0000
     36  C3D      122.8210  108.6090   31.1310 C.2   901  HEM901      0.0000
     37  C4D      122.8390  109.9290   30.5580 C.2   901  HEM901      0.0000
     38  CMD      124.2500  106.5050   31.2200 C.3   901  HEM901      0.0000
     39  CAD      121.7650  108.0890   32.0500 C.3   901  HEM901      0.0000
     40  CBD      122.1930  108.5010   33.4480 C.3   901  HEM901      0.0000
     41  CGD      121.2250  108.0180   34.4790 C.2   901  HEM901      0.0000
     42  O1D      121.1900  108.5890   35.5850 O.co2 901  HEM901      0.0000
     43  O2D      120.4940  107.0530   34.1780 O.co2 901  HEM901      0.0000
@<TRIPOS>BOND
     1    24    23    1
     2    23    20    1
     3    22    19    1
     4    20    19    2
     5    20    21    1
     6    19    18    1
     7    21     4    2
     8    21    17    1
     9     4    26    1
    10    30    27    1
    11    18    17    2
    12    18     3    1
    13    17     1    1
    14    26    27   ar
    15    26    25   ar
    16    27    28   ar
    17    32    31    1
    18     3    10    2
    19    25     1    1
    20    25    29   ar
    21    28    31    1
    22    28    29   ar
    23     1     6    1
    24     1    33    1
    25    29     5    1
    26    10     6   ar
    27    10     9   ar
    28     6     7   ar
    29     5    34    2
    30    11     9    1
    31     9     8   ar
    32    33    34    1
    33    33    37    2
    34    34    35    1
    35     7     8   ar
    36     7     2    2
    37    37     2    1
    38    37    36    1
    39     8    12    1
    40    35    36    2
    41    35    38    1
    42    36    39    1
    43    12    13    1
    44    39    40    1
    45    13    14    1
    46    40    41    1
    47    16    14   ar
    48    14    15   ar
    49    43    41   ar
    50    41    42   ar
