@<TRIPOS>MOLECULE
3e6t_1A2_A_1.pdb
 30 33 0 0 0
SMALL
GASTEIGER

@<TRIPOS>ATOM
      1  C8       122.7840  112.1140   33.9580 C.3   905  1A2905      0.0946
      2  C5       124.3480  115.6280   32.3860 C.2   905  1A2905      0.4152
      3  N6       123.6790  115.6370   33.5830 N.2   905  1A2905     -0.0470
      4  C2       126.4930  112.1200   31.4430 C.ar  905  1A2905      0.0332
      5  C4       126.2110  114.4950   31.1530 C.ar  905  1A2905      0.1489
      6  C1       125.3910  112.0860   32.2990 C.ar  905  1A2905      0.1538
      7  C3       126.9020  113.3270   30.8860 C.ar  905  1A2905      0.0323
      8  C4A      125.0650  114.4660   32.0220 C.ar  905  1A2905      0.1332
      9  C7       123.6590  114.5040   34.5620 C.3   905  1A2905      0.2389
     10  N8       123.6950  113.2620   33.6670 N.pl3 905  1A2905     -0.2711
     11  C8A      124.6540  113.2350   32.6470 C.ar  905  1A2905      0.0880
     12  F9       126.6520  115.6190   30.6140 F     905  1A2905     -0.2039
     13  F10      125.0070  110.9650   32.7970 F     905  1A2905     -0.2029
     14  C11      124.9670  114.5500   35.4260 C.3   905  1A2905      0.0906
     15  C12      124.9390  115.7780   36.3110 C.3   905  1A2905      0.0999
     16  N13      123.7590  115.6140   37.1830 N.am  905  1A2905     -0.2756
     17  C14      122.6000  115.9460   36.2930 C.3   905  1A2905      0.0999
     18  C15      122.3920  114.6730   35.4680 C.3   905  1A2905      0.0906
     19  C16      123.8480  116.1930   38.4540 C.2   905  1A2905      0.2505
     20  O17      124.9060  116.8000   38.8300 O.2   905  1A2905     -0.2699
     21  N18      124.2950  116.6620   31.5730 N.pl3 905  1A2905      0.2161
     22  C19      122.7180  116.0560   39.3520 C.ar  905  1A2905      0.0727
     23  C20      122.3240  117.1190   40.2540 C.ar  905  1A2905      0.1030
     24  N21      121.1990  116.8610   41.0840 N.ar  905  1A2905     -0.2465
     25  C22      120.4930  115.6080   41.0210 C.ar  905  1A2905      0.0782
     26  C23      120.8900  114.6060   40.1430 C.ar  905  1A2905      0.0164
     27  C24      121.9840  114.8230   39.3230 C.ar  905  1A2905      0.0073
     28  C25      119.4220  115.3600   41.8390 C.3   905  1A2905      0.1547
     29  N26      118.4110  115.0500   42.6610 N.3   905  1A2905     -0.1245
     30  C13      123.1290  111.3760   35.3070 C.3   905  1A2905      0.0233
@<TRIPOS>BOND
     1    12     5    1
     2     7     5   ar
     3     7     4   ar
     4     5     8   ar
     5     4     6   ar
     6    21     2    1
     7     8     2    1
     8     8    11   ar
     9     6    11   ar
    10     6    13    1
    11     2     3    2
    12    11    10    1
    13     3     9    1
    14    10     1    1
    15    10     9    1
    16     1    30    1
    17     9    14    1
    18     9    18    1
    19    14    15    1
    20    18    17    1
    21    17    16    1
    22    15    16    1
    23    16    19   am
    24    19    20    2
    25    19    22    1
    26    27    22   ar
    27    27    26   ar
    28    22    23   ar
    29    26    25   ar
    30    23    24   ar
    31    25    24   ar
    32    25    28    1
    33    28    29    1
