@<TRIPOS>MOLECULE
3e6t_H4B_A_1.pdb
 17 18 0 0 0
SMALL
GASTEIGER

@<TRIPOS>ATOM
      1  N1       113.7640  112.4160   32.6750 N.2   902  H4B902     -0.2672
      2  C2       115.0280  112.8040   32.8600 C.1   902  H4B902      0.2609
      3  N2       115.7510  113.1610   31.8090 N.pl3 902  H4B902     -0.0220
      4  N3       115.5760  112.8730   34.0760 N.2   902  H4B902     -0.2466
      5  C4       114.8640  112.5640   35.1520 C.1   902  H4B902      0.2569
      6  O4       115.3000  112.7320   36.2910 O.2   902  H4B902     -0.2052
      7  C4A      113.5610  112.0480   35.0040 C.2   902  H4B902      0.2989
      8  C8A      113.0650  111.9160   33.6890 C.1   902  H4B902      0.1401
      9  N5       112.8220  111.7110   36.0540 N.2   902  H4B902     -0.3830
     10  N8       111.9060  111.2910   33.4630 N.2   902  H4B902     -0.1992
     11  C6       111.4330  111.3220   35.8650 C.2   902  H4B902      0.1466
     12  C7       111.0520  110.9710   34.5040 C.3   902  H4B902      0.1940
     13  C9       110.8500  110.6170   37.1060 C.3   902  H4B902      0.2313
     14  O9       110.4340  111.6000   38.0610 O.3   902  H4B902     -0.2130
     15  C10      109.6770  109.6980   36.7920 C.3   902  H4B902      0.1888
     16  C11      108.9930  109.2480   38.0820 C.3   902  H4B902      0.0387
     17  O10      110.1610  108.5570   36.0760 O.3   902  H4B902     -0.2200
@<TRIPOS>BOND
     1     3     2    1
     2     1     2    2
     3     1     8    2
     4     2     4    2
     5    10     8    2
     6    10    12    1
     7     8     7    1
     8     4     5    2
     9    12    11    1
    10     7     5    1
    11     7     9    2
    12     5     6    2
    13    11     9    2
    14    11    13    1
    15    17    15    1
    16    15    13    1
    17    15    16    1
    18    13    14    1
