@<TRIPOS>MOLECULE
3e6v_ABH_A_1.pdb
 13 12 0 0 0
SMALL
GASTEIGER

@<TRIPOS>ATOM
      1  N         26.0850   -9.9980   -4.6650 N.3   552  ABH552      0.0000
      2  CA        25.9660  -10.0600   -6.1400 C.3   552  ABH552      0.0000
      3  C         24.5180   -9.5620   -6.4670 C.2   552  ABH552      0.0000
      4  O         24.0300   -9.4690   -7.5560 O.co2 552  ABH552      0.0000
      5  OT        23.8260   -9.2240   -5.3470 O.co2 552  ABH552      0.0000
      6  CB        26.2090  -11.5220   -6.6340 C.3   552  ABH552      0.0000
      7  CG        25.0650  -12.5050   -6.4170 C.3   552  ABH552      0.0000
      8  CD        25.4790  -13.9580   -6.3220 C.3   552  ABH552      0.0000
      9  CE        24.2880  -14.8550   -5.9800 C.3   552  ABH552      0.0000
     10  B         24.5650  -16.4070   -5.8270 B     552  ABH552      0.0000
     11  O2        23.3350  -17.1330   -5.6050 O.3   552  ABH552      0.0000
     12  O1        25.3780  -16.6580   -4.6670 O.3   552  ABH552      0.0000
     13  O3        25.2240  -17.0140   -6.9550 O.3   552  ABH552      0.0000
@<TRIPOS>BOND
     1     4     3   ar
     2    13    10    1
     3     6     7    1
     4     6     2    1
     5     3     2    1
     6     3     5   ar
     7     7     8    1
     8     8     9    1
     9     2     1    1
    10     9    10    1
    11    10    11    1
    12    10    12    1
