@<TRIPOS>MOLECULE
3e6y_CW1_A_1.pdb
 46 51 0 0 0
SMALL
GASTEIGER

@<TRIPOS>ATOM
      1  OAH      -21.0040  -19.6560  -23.5080 O.2   261  CW1261     -0.2375
      2  CAL      -20.5910  -20.8200  -23.3930 C.2   261  CW1261      0.4181
      3  OAX      -19.2240  -21.0780  -23.4230 O.3   261  CW1261     -0.4409
      4  CAN      -18.4880  -19.8980  -23.5430 C.3   261  CW1261      0.2116
      5  CAQ      -17.8410  -19.9740  -24.9270 C.3   261  CW1261      0.0797
      6  CBR      -16.2940  -20.0650  -24.7330 C.3   261  CW1261      0.1505
      7  CAG      -15.6070  -21.3800  -25.1730 C.3   261  CW1261      0.0351
      8  OBC      -15.3710  -18.9500  -24.2850 O.3   261  CW1261     -0.3300
      9  CBT      -14.8860  -18.2850  -25.4250 C.3   261  CW1261      0.2451
     10  CBK      -13.3970  -17.7490  -25.5090 C.3   261  CW1261      0.2008
     11  OAY      -13.2650  -16.5110  -24.7930 O.3   261  CW1261     -0.3233
     12  CAT      -12.3490  -18.8140  -25.3140 C.3   261  CW1261      0.1769
     13  OAV      -11.5170  -18.5330  -24.2350 O.3   261  CW1261     -0.3483
     14  CAA      -12.3270  -18.9540  -23.1020 C.3   261  CW1261      0.1742
     15  OBB      -15.0170  -19.2430  -26.4960 O.3   261  CW1261     -0.3037
     16  CBM      -16.3140  -19.5040  -26.3050 C.3   261  CW1261      0.2630
     17  OAZ      -16.6720  -18.1480  -26.7100 O.3   261  CW1261     -0.3233
     18  CBN      -15.9220  -17.2860  -25.8090 C.3   261  CW1261      0.2067
     19  CBI      -15.1650  -16.0880  -26.3930 C.3   261  CW1261      0.2397
     20  OAI      -16.1260  -15.1400  -26.8400 O.3   261  CW1261     -0.2149
     21  CBL      -14.1650  -15.5000  -25.3520 C.3   261  CW1261      0.2695
     22  OBA      -14.9110  -15.1290  -24.1920 O.3   261  CW1261     -0.3284
     23  CBQ      -14.1850  -14.1290  -23.4010 C.3   261  CW1261      0.1483
     24  CBF      -14.0940  -14.7420  -21.9990 C.3   261  CW1261      0.0336
     25  CBD      -15.0270  -15.5040  -21.2690 C.3   261  CW1261      0.0027
     26  CBG      -16.5220  -15.5440  -21.6900 C.3   261  CW1261      0.0001
     27  CAD      -17.2180  -16.9360  -21.6820 C.3   261  CW1261      0.0000
     28  CAC      -17.2630  -14.4710  -20.8490 C.3   261  CW1261      0.0000
     29  CAO      -14.4390  -15.9340  -19.9470 C.3   261  CW1261      0.0004
     30  CAP      -12.9310  -15.9080  -20.1970 C.3   261  CW1261      0.0041
     31  CBO      -12.7270  -14.7650  -21.2380 C.3   261  CW1261      0.0204
     32  CAF      -11.5430  -15.0690  -22.1740 C.3   261  CW1261      0.0044
     33  CAM      -12.4140  -13.6010  -20.4880 C.2   261  CW1261     -0.0328
     34  CBE      -12.9990  -12.3170  -20.4360 C.2   261  CW1261     -0.0192
     35  CBS      -12.6550  -11.1640  -19.4750 C.3   261  CW1261      0.1685
     36  CAU      -11.4500  -10.3240  -19.8300 C.3   261  CW1261      0.1763
     37  OAW      -10.5490  -10.5170  -18.7150 O.3   261  CW1261     -0.3481
     38  CAB       -9.2690   -9.9230  -19.0030 C.3   261  CW1261      0.1742
     39  OAK      -12.4710  -11.6990  -18.1410 O.3   261  CW1261     -0.2189
     40  CAS      -13.8630  -10.3030  -19.3820 C.3   261  CW1261      0.0372
     41  CAR      -14.6970  -10.5280  -20.6330 C.3   261  CW1261      0.0071
     42  CBP      -14.2870  -11.8770  -21.1960 C.3   261  CW1261      0.0230
     43  CBH      -14.1800  -11.6860  -22.7470 C.3   261  CW1261      0.0367
     44  CAE      -12.7500  -11.4470  -23.3400 C.3   261  CW1261      0.0030
     45  CBJ      -14.9690  -12.8140  -23.3900 C.3   261  CW1261      0.1792
     46  OAJ      -15.3820  -12.4260  -24.7090 O.3   261  CW1261     -0.2205
@<TRIPOS>BOND
     1    20    19    1
     2    17    16    1
     3    17    18    1
     4    15    16    1
     5    15     9    1
     6    19    18    1
     7    19    21    1
     8    16     6    1
     9    18     9    1
    10    10     9    1
    11    10    12    1
    12    10    11    1
    13     9     8    1
    14    21    11    1
    15    21    22    1
    16    12    13    1
    17     7     6    1
    18     5     6    1
    19     5     4    1
    20     6     8    1
    21    46    45    1
    22    13    14    1
    23    22    23    1
    24     4     3    1
    25     1     2    2
    26     3     2    1
    27    23    45    1
    28    23    24    1
    29    45    43    1
    30    44    43    1
    31    43    42    1
    32    32    31    1
    33    24    25    1
    34    24    31    1
    35    26    27    1
    36    26    25    1
    37    26    28    1
    38    25    29    1
    39    31    33    1
    40    31    30    1
    41    42    41    1
    42    42    34    1
    43    41    40    1
    44    33    34    2
    45    34    35    1
    46    30    29    1
    47    36    35    1
    48    36    37    1
    49    35    40    1
    50    35    39    1
    51    38    37    1
