@<TRIPOS>MOLECULE
3e6y_III_C_1.pdb
 46 46 0 0 0
SMALL
GASTEIGER

@<TRIPOS>ATOM
      1  N        -15.6140  -16.0430   -2.1490 N.3     1  GLN1       -0.1231
      2  CA       -16.8390  -16.7910   -2.5680 C.3     1  GLN1        0.1698
      3  C        -17.6550  -16.1540   -3.7410 C.2     1  GLN1        0.2593
      4  O        -18.5990  -16.7770   -4.2630 O.2     1  GLN1       -0.2718
      5  CB       -17.7690  -17.0260   -1.3560 C.3     1  GLN1        0.0381
      6  CG       -19.0420  -16.1040   -1.3000 C.3     1  GLN1        0.0905
      7  CD       -20.3570  -16.8110   -0.8040 C.2     1  GLN1        0.2608
      8  OE1      -20.7990  -16.6000    0.3300 O.2     1  GLN1       -0.2717
      9  NE2      -20.9800  -17.6170   -1.6790 N.am    1  GLN1       -0.0878
     10  N        -17.3230  -14.9250   -4.1300 N.am    2  SER2       -0.1938
     11  CA       -18.1630  -14.1820   -5.0770 C.3     2  SER2        0.2055
     12  C        -17.8890  -14.6210   -6.5010 C.2     2  SER2        0.2643
     13  O        -16.8740  -15.2290   -6.7480 O.2     2  SER2       -0.2714
     14  CB       -17.9060  -12.6880   -4.9340 C.3     2  SER2        0.2130
     15  OG       -18.5550  -12.2080   -3.7810 O.3     2  SER2       -0.2179
     16  N        -18.7900  -14.3200   -7.4330 N.am    3  TYR3       -0.1959
     17  CA       -18.5890  -14.6790   -8.8500 C.3     3  TYR3        0.1771
     18  C        -17.7090  -13.6780   -9.5930 C.2     3  TYR3        0.2620
     19  O        -17.9780  -12.4990   -9.5270 O.2     3  TYR3       -0.2715
     20  CB       -19.9420  -14.7860   -9.5700 C.3     3  TYR3        0.0574
     21  CG       -20.8340  -15.8730   -9.0450 C.ar    3  TYR3       -0.0198
     22  CD1      -20.6850  -17.1880   -9.4510 C.ar    3  TYR3       -0.0009
     23  CD2      -21.8360  -15.5820   -8.1310 C.ar    3  TYR3       -0.0009
     24  CE1      -21.5360  -18.1980   -8.9500 C.ar    3  TYR3        0.0417
     25  CE2      -22.6690  -16.5700   -7.6180 C.ar    3  TYR3        0.0417
     26  CZ       -22.5190  -17.8650   -8.0320 C.ar    3  TYR3        0.1957
     27  OH       -23.3630  -18.8100   -7.5160 O.3     3  TYR3       -0.2866
     28  N        -16.6820  -14.1360  -10.3090 N.am    4  THR4       -0.1938
     29  CA       -15.8010  -13.2360  -11.1110 C.3     4  THR4        0.2002
     30  CB       -14.4620  -13.0000  -10.4050 C.3     4  THR4        0.1551
     31  CG2      -14.6910  -12.2810   -9.0760 C.3     4  THR4        0.0350
     32  OG1      -13.8150  -14.2570  -10.1870 O.3     4  THR4       -0.2705
     33  P        -12.3290  -14.5010   -9.5890 P.3     4  THR4        0.5326
     34  O1P      -12.0190  -15.9330   -9.9140 O.3     4  THR4       -0.1145
     35  O2P      -12.5190  -14.2410   -8.1270 O.3     4  THR4       -0.1145
     36  O3P      -11.4020  -13.5200  -10.2590 O.2     4  THR4       -0.2224
     37  C        -15.6520  -13.8050  -12.4950 C.2     4  THR4        0.2642
     38  O        -16.0480  -14.9380  -12.7130 O.2     4  THR4       -0.2714
     39  N        -15.1030  -13.0720  -13.4690 N.am    5  VAL5       -0.1941
     40  CA       -14.9150  -13.6360  -14.8180 C.3     5  VAL5        0.1977
     41  C        -13.5780  -13.2380  -15.4400 C.2     5  VAL5        0.3842
     42  O        -12.8110  -12.4300  -14.9080 O.co2   5  VAL5       -0.2437
     43  CB       -16.0970  -13.2810  -15.7370 C.3     5  VAL5        0.0311
     44  CG1      -16.0110  -11.8230  -16.1630 C.3     5  VAL5        0.0023
     45  CG2      -16.2880  -14.3230  -16.9320 C.3     5  VAL5        0.0023
     46  OXT      -13.1980  -13.7600  -16.4930 O.co2   5  VAL5       -0.2437
@<TRIPOS>BOND
     1    45    43    1
     2    46    41   ar
     3    44    43    1
     4    43    40    1
     5    41    42   ar
     6    41    40    1
     7    40    39    1
     8    39    37   am
     9    38    37    2
    10    37    29    1
    11    29    30    1
    12    29    28    1
    13    30    32    1
    14    30    31    1
    15    28    18   am
    16    36    33    2
    17    32    33    1
    18    34    33    1
    19    18    19    2
    20    18    17    1
    21    33    35    1
    22    20    21    1
    23    20    17    1
    24    22    21   ar
    25    22    24   ar
    26    21    23   ar
    27    24    26   ar
    28    17    16    1
    29    23    25   ar
    30    26    25   ar
    31    26    27    1
    32    16    12   am
    33    13    12    2
    34    12    11    1
    35    11    14    1
    36    11    10    1
    37    14    15    1
    38     4     3    2
    39    10     3   am
    40     3     2    1
    41     2     1    1
    42     2     5    1
    43     9     7   am
    44     5     6    1
    45     6     7    1
    46     7     8    2
