@<TRIPOS>MOLECULE
3e70_GDP_C_1.pdb
 28 30 0 0 0
SMALL
GASTEIGER

@<TRIPOS>ATOM
      1  PB       -20.0740   25.7890   11.7440 P.3   1001  GDP1001     0.5373
      2  O1B      -19.6180   24.6350   12.5920 O.3   1001  GDP1001    -0.1143
      3  O2B      -20.1510   27.1220   12.4200 O.3   1001  GDP1001    -0.1143
      4  O3B      -19.1290   25.9940   10.5730 O.2   1001  GDP1001    -0.2221
      5  O3A      -21.5000   25.4290   11.1110 O.3   1001  GDP1001    -0.2261
      6  PA       -22.5840   24.4090   11.7190 P.3   1001  GDP1001     0.2231
      7  O1A      -22.9310   24.7770   13.1380 O.3   1001  GDP1001    -0.4370
      8  O2A      -22.2050   22.9470   11.5820 O.2   1001  GDP1001    -0.5169
      9  O5'      -23.7580   24.7460   10.6690 O.3   1001  GDP1001    -0.3111
     10  C5'      -24.4100   26.0140   10.6720 C.3   1001  GDP1001     0.1813
     11  C4'      -25.7780   25.8380   10.0260 C.3   1001  GDP1001     0.1799
     12  O4'      -25.6290   25.3430    8.6950 O.3   1001  GDP1001    -0.3326
     13  C3'      -26.5950   24.8080   10.7810 C.3   1001  GDP1001     0.2158
     14  O3'      -27.9420   25.2710   10.8850 O.3   1001  GDP1001    -0.2175
     15  C2'      -26.5830   23.5850    9.9020 C.3   1001  GDP1001     0.2310
     16  O2'      -27.7940   22.8280   10.0280 O.3   1001  GDP1001    -0.2158
     17  C1'      -26.4750   24.2080    8.5300 C.3   1001  GDP1001     0.2293
     18  N9       -25.9680   23.2450    7.5310 N.pl3 1001  GDP1001    -0.2354
     19  C8       -24.8150   22.5520    7.5440 C.3   1001  GDP1001     0.2246
     20  N7       -24.7180   21.7700    6.4340 N.2   1001  GDP1001    -0.2322
     21  C5       -25.8270   21.9700    5.6910 C.2   1001  GDP1001     0.2182
     22  C6       -26.3710   21.4710    4.4080 C.1   1001  GDP1001     0.2372
     23  O6       -25.7150   20.6440    3.7470 O.2   1001  GDP1001    -0.2069
     24  N1       -27.5670   21.9340    3.9900 N.2   1001  GDP1001    -0.2485
     25  C2       -28.2610   22.8330    4.7240 C.1   1001  GDP1001     0.2531
     26  N2       -29.4540   23.2750    4.2840 N.pl3 1001  GDP1001    -0.0226
     27  N3       -27.8270   23.3310    5.9120 N.2   1001  GDP1001    -0.3074
     28  C4       -26.6440   22.9380    6.4280 C.2   1001  GDP1001     0.2300
@<TRIPOS>BOND
     1    23    22    2
     2    24    22    2
     3    24    25    2
     4    26    25    1
     5    22    21    1
     6    25    27    2
     7    21    28    1
     8    21    20    2
     9    27    28    2
    10    28    18    1
    11    20    19    1
    12    18    19    1
    13    18    17    1
    14    17    12    1
    15    17    15    1
    16    12    11    1
    17    15    16    1
    18    15    13    1
    19    11    10    1
    20    11    13    1
    21     4     1    2
    22     9    10    1
    23     9     6    1
    24    13    14    1
    25     5     6    1
    26     5     1    1
    27     8     6    2
    28     6     7    1
    29     1     3    1
    30     1     2    1
