@<TRIPOS>MOLECULE
3e73_GSH_A_1.pdb
 20 19 0 0 0
SMALL
GASTEIGER

@<TRIPOS>ATOM
      1  N1       131.6490  259.8990  136.2730 N.3   502  GSH502     -0.1208
      2  CA1      130.9910  258.6880  136.7230 C.3   502  GSH502      0.1945
      3  C1       129.7420  259.0470  137.4720 C.2   502  GSH502      0.3819
      4  O11      129.8450  259.7500  138.5000 O.co2 502  GSH502     -0.2441
      5  O12      128.6460  258.6290  137.0390 O.co2 502  GSH502     -0.2441
      6  CB1      131.9280  257.9110  137.6400 C.3   502  GSH502      0.0347
      7  CG1      132.7910  256.9400  136.8430 C.3   502  GSH502      0.0534
      8  CD1      133.0850  255.6810  137.6510 C.3   502  GSH502      0.2257
      9  OE1      131.8960  254.8900  137.7510 O.3   502  GSH502     -0.2037
     10  N2       134.1270  254.9080  137.0030 N.3   502  GSH502     -0.1857
     11  CA2      133.9010  254.3470  135.6850 C.3   502  GSH502      0.1341
     12  C2       134.2660  252.8680  135.6790 C.3   502  GSH502      0.2430
     13  O2       135.4910  252.6820  134.9600 O.3   502  GSH502     -0.2021
     14  CB2      134.7100  255.1140  134.6460 C.3   502  GSH502      0.0902
     15  SG2      134.1400  254.8040  132.9570 S.3   502  GSH502     -0.0805
     16  N3       134.4260  252.3910  137.0380 N.3   502  GSH502     -0.1761
     17  CA3      135.7530  252.1570  137.5730 C.3   502  GSH502      0.2050
     18  C3       135.6970  251.5500  138.9550 C.2   502  GSH502      0.3823
     19  O31      136.7680  251.2030  139.4980 O.co2 502  GSH502     -0.2440
     20  O32      134.5810  251.4170  139.5030 O.co2 502  GSH502     -0.2440
@<TRIPOS>BOND
     1    15    14    1
     2    14    11    1
     3    13    12    1
     4    12    11    1
     5    12    16    1
     6    11    10    1
     7     1     2    1
     8     2     3    1
     9     2     6    1
    10     7     6    1
    11     7     8    1
    12    10     8    1
    13    16    17    1
    14     5     3   ar
    15     3     4   ar
    16    17    18    1
    17     8     9    1
    18    18    19   ar
    19    18    20   ar
