@<TRIPOS>MOLECULE
3e76_AGS_A_1.pdb
 31 33 0 0 0
SMALL
GASTEIGER

@<TRIPOS>ATOM
      1  PG       -13.3760   41.3960   71.4540 P.3   549  AGS549      0.4340
      2  S1G      -12.2990   41.0290   73.0920 S.3   549  AGS549      0.0416
      3  O2G      -14.4880   42.2580   71.9170 O.3   549  AGS549     -0.1305
      4  O3G      -13.6690   40.0980   70.8000 O.2   549  AGS549     -0.2423
      5  PB       -12.9530   43.3940   69.4590 P.3   549  AGS549      0.2262
      6  O1B      -13.6620   44.4220   70.2420 O.3   549  AGS549     -0.4369
      7  O2B      -11.8100   43.8060   68.6250 O.2   549  AGS549     -0.5168
      8  O3B      -12.3920   42.2480   70.4810 O.3   549  AGS549     -0.2405
      9  PA       -15.5780   42.7990   68.5020 P.3   549  AGS549      0.2189
     10  O1A      -16.2070   41.5380   68.0460 O.2   549  AGS549     -0.5170
     11  O2A      -15.9950   43.3930   69.7940 O.3   549  AGS549     -0.4371
     12  O3A      -13.9770   42.5920   68.5010 O.3   549  AGS549     -0.2701
     13  O5'      -15.7580   43.8600   67.3380 O.3   549  AGS549     -0.3112
     14  C5'      -15.8570   45.2430   67.6690 C.3   549  AGS549      0.1813
     15  C4'      -16.4240   46.0690   66.5110 C.3   549  AGS549      0.1821
     16  O4'      -17.7810   45.7130   66.2330 O.3   549  AGS549     -0.3135
     17  C3'      -16.5160   47.4970   67.0330 C.3   549  AGS549      0.2184
     18  O3'      -15.4640   48.2750   66.4530 O.3   549  AGS549     -0.2174
     19  C2'      -17.8750   47.9920   66.5370 C.3   549  AGS549      0.2570
     20  O2'      -17.6850   49.1700   65.7630 O.3   549  AGS549     -0.2130
     21  C1'      -18.3460   46.8740   65.6240 C.3   549  AGS549      0.3186
     22  N9       -19.8250   46.7260   65.6170 N.pl3 549  AGS549     -0.1439
     23  C8       -20.6110   46.4520   66.6610 C.3   549  AGS549      0.3377
     24  N7       -21.8780   46.3860   66.2560 N.2   549  AGS549     -0.2095
     25  C5       -21.8950   46.6150   64.9510 C.2   549  AGS549      0.2526
     26  C6       -22.9010   46.6750   64.0010 C.2   549  AGS549      0.4393
     27  N6       -24.1680   46.4750   64.3440 N.pl3 549  AGS549      0.2180
     28  N1       -22.5760   46.9360   62.7270 N.2   549  AGS549      0.0021
     29  C2       -21.3150   47.1340   62.3740 C.3   549  AGS549      0.5254
     30  N3       -20.3320   47.0830   63.2580 N.2   549  AGS549     -0.0055
     31  C4       -20.5930   46.8280   64.5450 C.2   549  AGS549      0.3518
@<TRIPOS>BOND
     1    29    28    1
     2    29    30    1
     3    28    26    2
     4    30    31    2
     5    26    27    1
     6    26    25    1
     7    31    25    1
     8    31    22    1
     9    25    24    2
    10    22    21    1
    11    22    23    1
    12    21    16    1
    13    21    19    1
    14    20    19    1
    15    16    15    1
    16    24    23    1
    17    18    17    1
    18    15    17    1
    19    15    14    1
    20    19    17    1
    21    13    14    1
    22    13     9    1
    23    10     9    2
    24    12     9    1
    25    12     5    1
    26     9    11    1
    27     7     5    2
    28     5     6    1
    29     5     8    1
    30     8     1    1
    31     4     1    2
    32     1     3    1
    33     1     2    1
