@<TRIPOS>MOLECULE
3e77_PLP_A_1.pdb
 15 15 0 0 0
SMALL
GASTEIGER

@<TRIPOS>ATOM
      1  N1        68.6350  -52.7610   33.7830 N.2   400  PLP400     -0.2505
      2  C2        67.4370  -52.1270   33.9750 C.2   400  PLP400      0.0675
      3  C2A       67.4490  -50.7330   34.5070 C.3   400  PLP400      0.0499
      4  C3        66.2420  -52.7870   33.6650 C.3   400  PLP400      0.1913
      5  O3        65.0360  -52.1580   33.8470 O.3   400  PLP400     -0.2167
      6  C4        66.2530  -54.0940   33.1610 C.3   400  PLP400      0.0581
      7  C4A       65.0200  -54.6230   32.4800 C.3   400  PLP400      0.0075
      8  C5        67.4780  -54.7350   32.9730 C.2   400  PLP400      0.0073
      9  C6        68.6590  -54.0550   33.2870 C.2   400  PLP400      0.0921
     10  C5A       67.5510  -56.1560   32.4430 C.3   400  PLP400      0.1776
     11  O4P       67.2510  -56.2340   31.0610 O.3   400  PLP400     -0.2656
     12  P         67.1790  -57.6810   30.3580 P.3   400  PLP400      0.5329
     13  O1P       68.4530  -58.4690   30.5790 O.3   400  PLP400     -0.1145
     14  O2P       66.9270  -57.4720   28.8910 O.2   400  PLP400     -0.2224
     15  O3P       66.0230  -58.4460   30.9670 O.3   400  PLP400     -0.1145
@<TRIPOS>BOND
     1    14    12    2
     2    12    13    1
     3    12    15    1
     4    12    11    1
     5    11    10    1
     6    10     8    1
     7     7     6    1
     8     8     6    1
     9     8     9    2
    10     6     4    1
    11     9     1    1
    12     4     5    1
    13     4     2    1
    14     1     2    2
    15     2     3    1
