@<TRIPOS>MOLECULE
3e78_TPP_A_1.pdb
 26 27 0 0 0
SMALL
GASTEIGER

@<TRIPOS>ATOM
      1  N1'       27.4240   33.7340   32.4880 N.2   551  TPP551     -0.1861
      2  C2'       26.6000   32.7910   31.9710 C.1   551  TPP551      0.0663
      3  CM2       25.1480   33.1110   31.6320 C.3   551  TPP551      0.1291
      4  N3'       27.0860   31.5530   31.7050 N.2   551  TPP551     -0.3368
      5  C4'       28.3820   31.2720   32.0000 C.2   551  TPP551      0.2292
      6  N4'       28.8320   30.0460   31.7400 N.pl3 551  TPP551     -0.0925
      7  C5'       29.2450   32.2290   32.5520 C.2   551  TPP551      0.0654
      8  C6'       28.7020   33.4970   32.7870 C.2   551  TPP551      0.1115
      9  C7'       30.7140   31.9780   32.9060 C.3   551  TPP551      0.1237
     10  N3        31.7080   32.3390   31.8770 N.pl3 551  TPP551     -0.2970
     11  C2        31.3770   32.3820   30.5750 C.3   551  TPP551      0.1543
     12  S1        32.7890   32.8110   29.6630 S.3   551  TPP551     -0.0951
     13  C5        33.8120   32.9120   31.0660 C.2   551  TPP551      0.0164
     14  C4        33.0000   32.6540   32.1630 C.2   551  TPP551      0.0279
     15  CM4       33.6070   32.6540   33.5770 C.3   551  TPP551      0.0473
     16  C6        35.2600   33.4020   30.9750 C.3   551  TPP551      0.0661
     17  C7        36.2140   32.2310   30.6890 C.3   551  TPP551      0.1544
     18  O7        36.0560   31.2710   31.7470 O.3   551  TPP551     -0.3134
     19  PA        36.4040   29.7240   31.5610 P.3   551  TPP551      0.2230
     20  O1A       35.8490   28.9680   32.7070 O.3   551  TPP551     -0.4370
     21  O2A       35.9240   29.2780   30.2190 O.2   551  TPP551     -0.5169
     22  O3A       37.9550   29.6150   31.4850 O.3   551  TPP551     -0.2261
     23  PB        38.9030   29.4100   32.7290 P.3   551  TPP551      0.5373
     24  O1B       38.7940   30.5640   33.6760 O.3   551  TPP551     -0.1143
     25  O2B       40.3270   29.2790   32.0400 O.2   551  TPP551     -0.2221
     26  O3B       38.5650   28.0260   33.4480 O.3   551  TPP551     -0.1143
@<TRIPOS>BOND
     1    12    11    1
     2    12    13    1
     3    21    19    2
     4    11    10    1
     5    17    16    1
     6    17    18    1
     7    16    13    1
     8    13    14    2
     9    22    19    1
    10    22    23    1
    11    19    18    1
    12    19    20    1
    13     3     2    1
    14     4     2    2
    15     4     5    2
    16     6     5    1
    17    10    14    1
    18    10     9    1
    19     2     1    2
    20     5     7    1
    21    25    23    2
    22    14    15    1
    23     1     8    1
    24     7     8    2
    25     7     9    1
    26    23    26    1
    27    23    24    1
