@<TRIPOS>MOLECULE
3e79_TPP_A_1.pdb
 26 27 0 0 0
SMALL
GASTEIGER

@<TRIPOS>ATOM
      1  N1'       27.6600   33.8680   33.0250 N.2   551  TPP551     -0.1861
      2  C2'       26.8690   32.8600   32.5810 C.1   551  TPP551      0.0663
      3  CM2       25.4000   33.1150   32.2560 C.3   551  TPP551      0.1291
      4  N3'       27.3660   31.6030   32.5270 N.2   551  TPP551     -0.3368
      5  C4'       28.6980   31.4170   32.7590 C.2   551  TPP551      0.2292
      6  N4'       29.1640   30.1740   32.6720 N.pl3 551  TPP551     -0.0925
      7  C5'       29.5430   32.4470   33.1930 C.2   551  TPP551      0.0654
      8  C6'       28.9560   33.7180   33.2930 C.2   551  TPP551      0.1115
      9  C7'       31.0340   32.2990   33.5410 C.3   551  TPP551      0.1237
     10  N3        32.0220   32.6030   32.4920 N.pl3 551  TPP551     -0.2970
     11  C2        31.6670   32.5860   31.2010 C.3   551  TPP551      0.1543
     12  S1        33.0580   32.9490   30.2300 S.3   551  TPP551     -0.0951
     13  C5        34.0960   33.1530   31.6130 C.2   551  TPP551      0.0164
     14  C4        33.3330   32.8940   32.7400 C.2   551  TPP551      0.0279
     15  CM4       33.9810   32.9860   34.1350 C.3   551  TPP551      0.0473
     16  C6        35.5610   33.5730   31.4810 C.3   551  TPP551      0.0661
     17  C7        36.4690   32.3800   31.1920 C.3   551  TPP551      0.1544
     18  O7        36.3110   31.4100   32.2410 O.3   551  TPP551     -0.3134
     19  PA        36.6490   29.8680   32.0320 P.3   551  TPP551      0.2230
     20  O1A       36.0890   29.1100   33.1580 O.3   551  TPP551     -0.4370
     21  O2A       36.1940   29.4420   30.6590 O.2   551  TPP551     -0.5169
     22  O3A       38.2240   29.7670   31.8960 O.3   551  TPP551     -0.2261
     23  PB        39.2340   29.6230   33.0990 P.3   551  TPP551      0.5373
     24  O1B       39.1770   30.7830   34.0260 O.3   551  TPP551     -0.1143
     25  O2B       40.6650   29.4940   32.4110 O.2   551  TPP551     -0.2221
     26  O3B       38.9600   28.2100   33.8010 O.3   551  TPP551     -0.1143
@<TRIPOS>BOND
     1    12    11    1
     2    12    13    1
     3    21    19    2
     4    17    16    1
     5    17    18    1
     6    11    10    1
     7    16    13    1
     8    13    14    2
     9    22    19    1
    10    22    23    1
    11    19    18    1
    12    19    20    1
    13     3     2    1
    14    25    23    2
    15    10    14    1
    16    10     9    1
    17     4     2    2
    18     4     5    2
    19     2     1    2
    20     6     5    1
    21    14    15    1
    22     5     7    1
    23     1     8    1
    24    23    26    1
    25    23    24    1
    26     7     8    2
    27     7     9    1
