@<TRIPOS>MOLECULE
3e79_I3C_A_1.pdb
 16 16 0 0 0
SMALL
GASTEIGER

@<TRIPOS>ATOM
      1  I3        42.0830   39.1930   56.4060 I     500  I3C500     -0.0409
      2  I2        36.6480   37.4270   54.6490 I     500  I3C500     -0.0409
      3  I1        37.4120   39.4880   60.2280 I     500  I3C500     -0.0421
      4  O8        40.9540   40.8060   59.1900 O.co2 500  I3C500     -0.2405
      5  O9        40.9580   38.6760   59.8960 O.co2 500  I3C500     -0.2405
      6  C10       35.8530   38.3670   57.6030 C.2   500  I3C500      0.3886
      7  N13       39.7670   38.0750   54.6000 N.pl3 500  I3C500     -0.1272
      8  C1        39.5620   39.2130   58.0780 C.ar  500  I3C500      0.0920
      9  C6        40.0520   38.9370   56.8000 C.ar  500  I3C500      0.0540
     10  C5        39.2440   38.4380   55.7840 C.ar  500  I3C500      0.1002
     11  C4        37.8760   38.3170   56.0660 C.ar  500  I3C500      0.0540
     12  C3        37.3560   38.5540   57.3470 C.ar  500  I3C500      0.0920
     13  C2        38.2040   39.0420   58.3500 C.ar  500  I3C500      0.0437
     14  C7        40.5880   39.6220   59.1620 C.2   500  I3C500      0.3886
     15  O11       35.4560   37.3170   58.1410 O.co2 500  I3C500     -0.2405
     16  O12       35.1210   39.3120   57.2500 O.co2 500  I3C500     -0.2405
@<TRIPOS>BOND
     1     7    10    1
     2     2    11    1
     3    10    11   ar
     4    10     9   ar
     5    11    12   ar
     6     1     9    1
     7     9     8   ar
     8    16     6   ar
     9    12     6    1
    10    12    13   ar
    11     6    15   ar
    12     8    13   ar
    13     8    14    1
    14    13     3    1
    15    14     4   ar
    16    14     5   ar
