@<TRIPOS>MOLECULE
3e7c_866_A_1.pdb
 37 39 0 0 0
SMALL
GASTEIGER

@<TRIPOS>ATOM
      1  C1        99.1590   -2.9260   25.2610 C.3     1  8661        0.0233
      2  C2        98.9190   -3.6060   23.9390 C.3     1  8661        0.0939
      3  N1        97.5130   -3.6370   23.6740 N.am    1  8661       -0.2732
      4  C3        96.9360   -2.3810   23.2840 C.3     1  8661        0.1343
      5  C4        96.5280   -2.3300   21.8350 C.3     1  8661        0.2506
      6  O1        97.6800   -2.2390   21.0260 O.3     1  8661       -0.2132
      7  C5        95.7530   -3.5570   21.4340 C.3     1  8661        0.1560
      8  N2        95.4160   -3.5040   20.0420 N.am    1  8661       -0.1985
      9  C6        94.3030   -4.1590   19.6110 C.2     1  8661        0.2693
     10  O2        93.4680   -4.6840   20.3240 O.2     1  8661       -0.2682
     11  C7        94.1910   -4.1750   18.1980 C.ar    1  8661        0.1106
     12  C8        95.0680   -3.7000   17.2000 C.ar    1  8661        0.1280
     13  N3        94.5780   -3.8950   15.9740 N.ar    1  8661       -0.1621
     14  N4        93.4010   -4.4970   16.1880 N.ar    1  8661       -0.2127
     15  C9        93.1260   -4.6780   17.5060 C.ar    1  8661        0.1770
     16  N5        91.9840   -5.2530   17.9000 N.pl3   1  8661       -0.1069
     17  C10       92.5900   -4.9150   15.1490 C.ar    1  8661        0.0844
     18  C11       92.9390   -6.0190   14.4170 C.ar    1  8661        0.0215
     19  C12       92.1230   -6.4200   13.3900 C.ar    1  8661        0.0312
     20  C13       90.9780   -5.7170   13.1150 C.ar    1  8661        0.1402
     21  F1        90.1800   -6.1030   12.1160 F       1  8661       -0.2042
     22  C14       90.6370   -4.6150   13.8530 C.ar    1  8661        0.0312
     23  C15       91.4480   -4.2080   14.8820 C.ar    1  8661        0.0215
     24  C16       95.7100   -1.0930   21.6070 C.3     1  8661        0.4259
     25  F2        95.6650   -0.7650   20.3060 F       1  8661       -0.1673
     26  F3        94.4430   -1.2560   22.0160 F       1  8661       -0.1673
     27  F4        96.2190   -0.0570   22.2990 F       1  8661       -0.1673
     28  C17       96.7420   -4.4770   24.4330 C.2     1  8661        0.2507
     29  O3        95.5420   -4.3810   24.6130 O.2     1  8661       -0.2698
     30  C18       97.4480   -5.5810   25.0740 C.ar    1  8661        0.0747
     31  C19       97.8860   -6.6440   24.3290 C.ar    1  8661        0.0628
     32 CL1        97.6410   -6.7080   22.6400 Cl      1  8661       -0.0821
     33  C20       98.5380   -7.6830   24.9380 C.ar    1  8661        0.0116
     34  C21       98.7500   -7.6610   26.2920 C.ar    1  8661        0.0017
     35  C22       98.3060   -6.5980   27.0380 C.ar    1  8661        0.0116
     36  C23       97.6540   -5.5610   26.4270 C.ar    1  8661        0.0628
     37 CL2        97.1220   -4.2580   27.3930 Cl      1  8661       -0.0821
@<TRIPOS>BOND
     1    21    20    1
     2    20    19   ar
     3    20    22   ar
     4    19    18   ar
     5    22    23   ar
     6    18    17   ar
     7    23    17   ar
     8    17    14    1
     9    13    14   ar
    10    13    12   ar
    11    14    15   ar
    12    12    11   ar
    13    15    16    1
    14    15    11   ar
    15    11     9    1
    16     9     8   am
    17     9    10    2
    18     8     7    1
    19    25    24    1
    20     6     5    1
    21     7     5    1
    22    24     5    1
    23    24    26    1
    24    24    27    1
    25     5     4    1
    26    32    31    1
    27     4     3    1
    28     3     2    1
    29     3    28   am
    30     2     1    1
    31    31    33   ar
    32    31    30   ar
    33    28    29    2
    34    28    30    1
    35    33    34   ar
    36    30    36   ar
    37    34    35   ar
    38    36    35   ar
    39    36    37    1
