@<TRIPOS>MOLECULE
3e7e_ATP_A_1.pdb
 31 33 0 0 0
SMALL
GASTEIGER

@<TRIPOS>ATOM
      1  PG       -24.0660   25.3320  -18.0670 P.3   1501  ATP1501     0.5373
      2  O1G      -25.0560   26.3690  -18.6320 O.2   1501  ATP1501    -0.2221
      3  O2G      -24.6260   24.8750  -16.7130 O.3   1501  ATP1501    -0.1143
      4  O3G      -22.5790   25.6990  -17.9300 O.3   1501  ATP1501    -0.1143
      5  PB       -24.7610   23.9730  -20.7110 P.3   1501  ATP1501     0.2277
      6  O1B      -26.2540   24.0160  -20.5020 O.3   1501  ATP1501    -0.4368
      7  O2B      -24.1880   24.7680  -21.8110 O.2   1501  ATP1501    -0.5168
      8  O3B      -24.0490   24.1360  -19.2200 O.3   1501  ATP1501    -0.2258
      9  PA       -24.9920   21.0760  -20.7170 P.3   1501  ATP1501     0.2189
     10  O1A      -23.9060   20.3290  -20.0090 O.2   1501  ATP1501    -0.5170
     11  O2A      -26.2880   21.3170  -19.9850 O.3   1501  ATP1501    -0.4371
     12  O3A      -24.4160   22.4860  -21.2640 O.3   1501  ATP1501    -0.2700
     13  O5'      -25.3130   20.2920  -22.0710 O.3   1501  ATP1501    -0.3112
     14  C5'      -26.3240   20.8260  -22.9470 C.3   1501  ATP1501     0.1813
     15  C4'      -27.3970   19.7800  -23.2380 C.3   1501  ATP1501     0.1821
     16  O4'      -26.7710   18.6330  -23.8310 O.3   1501  ATP1501    -0.3135
     17  C3'      -28.1540   19.1690  -22.0630 C.3   1501  ATP1501     0.2184
     18  O3'      -29.3150   19.8770  -21.6260 O.3   1501  ATP1501    -0.2174
     19  C2'      -28.5960   17.8360  -22.6290 C.3   1501  ATP1501     0.2570
     20  O2'      -29.6340   18.0370  -23.6040 O.3   1501  ATP1501    -0.2130
     21  C1'      -27.3910   17.3980  -23.3990 C.3   1501  ATP1501     0.3186
     22  N9       -26.4670   16.6450  -22.5120 N.pl3 1501  ATP1501    -0.1439
     23  C8       -25.5880   17.1890  -21.6360 C.3   1501  ATP1501     0.3377
     24  N7       -24.8670   16.2130  -21.0210 N.2   1501  ATP1501    -0.2095
     25  C5       -25.2620   15.0140  -21.4960 C.2   1501  ATP1501     0.2526
     26  C6       -24.9430   13.5850  -21.2620 C.2   1501  ATP1501     0.4393
     27  N6       -24.0110   13.1700  -20.3820 N.pl3 1501  ATP1501     0.2180
     28  N1       -25.6280   12.6690  -21.9590 N.2   1501  ATP1501     0.0021
     29  C2       -26.5640   12.9940  -22.8670 C.3   1501  ATP1501     0.5254
     30  N3       -26.9010   14.2590  -23.1220 N.2   1501  ATP1501    -0.0055
     31  C4       -26.3180   15.3020  -22.4810 C.2   1501  ATP1501     0.3518
@<TRIPOS>BOND
     1    16    21    1
     2    16    15    1
     3    20    19    1
     4    21    19    1
     5    21    22    1
     6    15    14    1
     7    15    17    1
     8    30    29    1
     9    30    31    2
    10    14    13    1
    11    29    28    1
    12    19    17    1
    13    22    31    1
    14    22    23    1
    15    31    25    1
    16    13     9    1
    17    17    18    1
    18    28    26    2
    19     7     5    2
    20    23    24    1
    21    25    26    1
    22    25    24    2
    23    12     9    1
    24    12     5    1
    25    26    27    1
    26     9    10    2
    27     9    11    1
    28     5     6    1
    29     5     8    1
    30     8     1    1
    31     2     1    2
    32     1     4    1
    33     1     3    1
