@<TRIPOS>MOLECULE
3e7f_6PG_A_1.pdb
 17 16 0 0 0
SMALL
GASTEIGER

@<TRIPOS>ATOM
      1  C1         3.4220   13.1190    3.5380 C.2   843  6PG843      0.3973
      2  C2         2.1190   12.4040    3.2890 C.3   843  6PG843      0.2865
      3  C3         1.2600   12.2760    4.6040 C.3   843  6PG843      0.2260
      4  C4         0.7730   10.8400    5.0360 C.3   843  6PG843      0.2179
      5  C5        -0.7460   10.7760    5.3270 C.3   843  6PG843      0.2147
      6  C6        -1.0500   10.7290    6.8760 C.3   843  6PG843      0.1892
      7  O1A        3.9500   13.1150    4.6590 O.co2 843  6PG843     -0.2427
      8  O1         3.9540   13.7640    2.4480 O.co2 843  6PG843     -0.2427
      9  O2         1.4910   13.0730    2.1550 O.3   843  6PG843     -0.2080
     10  O3         0.2460   13.2730    4.7780 O.3   843  6PG843     -0.2169
     11  O4         1.1790    9.7300    4.1920 O.3   843  6PG843     -0.2175
     12  O5        -1.4810   11.7760    4.5810 O.3   843  6PG843     -0.2176
     13  O6        -1.4950   12.0020    7.4420 O.3   843  6PG843     -0.2674
     14  P         -3.1060   12.0170    7.7770 P.3   843  6PG843      0.5327
     15  O1P       -3.4640   10.8580    8.6480 O.3   843  6PG843     -0.1145
     16  O2P       -3.4980   13.4070    8.5150 O.3   843  6PG843     -0.1145
     17  O3P       -3.9650   12.1150    6.3900 O.2   843  6PG843     -0.2224
@<TRIPOS>BOND
     1     9     2    1
     2     8     1   ar
     3     2     1    1
     4     2     3    1
     5     1     7   ar
     6    11     4    1
     7    12     5    1
     8     3    10    1
     9     3     4    1
    10     4     5    1
    11     5     6    1
    12    17    14    2
    13     6    13    1
    14    13    14    1
    15    14    16    1
    16    14    15    1
