@<TRIPOS>MOLECULE
3e7g_HEM_A_1.pdb
 43 50 0 0 0
SMALL
GASTEIGER

@<TRIPOS>ATOM
      1 FE         57.7600   20.8280   86.6830 Fe    901  HEM901      0.0000
      2  CHA       59.2220   18.9420   84.2040 C.2   901  HEM901      0.0000
      3  CHB       59.0690   23.6490   85.2170 C.2   901  HEM901      0.0000
      4  CHC       55.3300   22.8130   88.1660 C.2   901  HEM901      0.0000
      5  CHD       56.1630   18.0430   87.7790 C.2   901  HEM901      0.0000
      6  NA        58.8610   21.2050   84.9590 N.ar  901  HEM901      0.0000
      7  C1A       59.4010   20.3160   84.0970 C.ar  901  HEM901      0.0000
      8  C2A       60.2590   20.9880   83.1230 C.ar  901  HEM901      0.0000
      9  C3A       60.2560   22.3120   83.4370 C.ar  901  HEM901      0.0000
     10  C4A       59.3900   22.4380   84.6040 C.ar  901  HEM901      0.0000
     11  CMA       60.9750   23.4870   82.7390 C.3   901  HEM901      0.0000
     12  CAA       60.9620   20.3360   81.9670 C.3   901  HEM901      0.0000
     13  CBA       59.9250   19.9170   80.9400 C.3   901  HEM901      0.0000
     14  CGA       60.5530   19.3340   79.6930 C.2   901  HEM901      0.0000
     15  O1A       59.8550   18.6190   78.9300 O.co2 901  HEM901      0.0000
     16  O2A       61.7530   19.5930   79.4700 O.co2 901  HEM901      0.0000
     17  NB        57.3020   22.8330   86.7240 N.2   901  HEM901      0.0000
     18  C1B       58.1050   23.8300   86.1890 C.2   901  HEM901      0.0000
     19  C2B       57.6700   25.1490   86.6370 C.2   901  HEM901      0.0000
     20  C3B       56.6250   24.9450   87.4440 C.2   901  HEM901      0.0000
     21  C4B       56.3570   23.4830   87.4950 C.2   901  HEM901      0.0000
     22  CMB       58.2440   26.5070   86.2060 C.3   901  HEM901      0.0000
     23  CAB       56.0060   26.0400   88.0290 C.2   901  HEM901      0.0000
     24  CBB       55.1220   26.0370   89.0620 C.2   901  HEM901      0.0000
     25  NC        55.9910   20.4800   87.6820 N.ar  901  HEM901      0.0000
     26  C1C       55.1420   21.4190   88.2380 C.ar  901  HEM901      0.0000
     27  C2C       54.1310   20.7550   89.0080 C.ar  901  HEM901      0.0000
     28  C3C       54.4050   19.3870   88.9670 C.ar  901  HEM901      0.0000
     29  C4C       55.5760   19.2610   88.1360 C.ar  901  HEM901      0.0000
     30  CMC       52.9220   21.4390   89.6630 C.3   901  HEM901      0.0000
     31  CAC       53.7600   18.2630   89.5550 C.3   901  HEM901      0.0000
     32  CBC       52.6290   18.1620   90.3400 C.3   901  HEM901      0.0000
     33  ND        57.6950   18.8770   86.1330 N.2   901  HEM901      0.0000
     34  C1D       57.1680   17.8800   86.8360 C.2   901  HEM901      0.0000
     35  C2D       57.5910   16.5990   86.3270 C.2   901  HEM901      0.0000
     36  C3D       58.3880   16.8370   85.2720 C.2   901  HEM901      0.0000
     37  C4D       58.4410   18.2660   85.1690 C.2   901  HEM901      0.0000
     38  CMD       57.1930   15.2300   86.8900 C.3   901  HEM901      0.0000
     39  CAD       59.1150   15.8110   84.3650 C.3   901  HEM901      0.0000
     40  CBD       58.2730   15.7110   83.1010 C.3   901  HEM901      0.0000
     41  CGD       58.8370   14.7290   82.0900 C.2   901  HEM901      0.0000
     42  O1D       58.2990   14.6790   80.9650 O.co2 901  HEM901      0.0000
     43  O2D       59.8120   14.0130   82.4110 O.co2 901  HEM901      0.0000
@<TRIPOS>BOND
     1    15    14   ar
     2    16    14   ar
     3    14    13    1
     4    13    12    1
     5    42    41   ar
     6    12     8    1
     7    41    43   ar
     8    41    40    1
     9    11     9    1
    10    40    39    1
    11     8     9   ar
    12     8     7   ar
    13     9    10   ar
    14     7     2    2
    15     7     6   ar
    16     2    37    1
    17    39    36    1
    18    10     6   ar
    19    10     3    2
    20     6     1    1
    21    37    36    1
    22    37    33    2
    23     3    18    1
    24    36    35    2
    25    33     1    1
    26    33    34    1
    27    18    19    1
    28    18    17    2
    29    22    19    1
    30    35    34    1
    31    35    38    1
    32    19    20    2
    33     1    17    1
    34     1    25    1
    35    17    21    1
    36    34     5    2
    37    20    21    1
    38    20    23    1
    39    21     4    2
    40    25    29   ar
    41    25    26   ar
    42     5    29    1
    43    23    24    2
    44    29    28   ar
    45     4    26    1
    46    26    27   ar
    47    28    27   ar
    48    28    31    1
    49    27    30    1
    50    31    32    1
