@<TRIPOS>MOLECULE
3e7g_H4B_A_1.pdb
 17 18 0 0 0
SMALL
GASTEIGER

@<TRIPOS>ATOM
      1  N1        65.9260   18.4220   79.3730 N.2   902  H4B902     -0.2672
      2  C2        64.6860   18.9200   79.3430 C.1   902  H4B902      0.2609
      3  N2        64.3500   19.8940   80.1910 N.pl3 902  H4B902     -0.0220
      4  N3        63.7740   18.4700   78.4780 N.2   902  H4B902     -0.2466
      5  C4        64.0850   17.5080   77.6130 C.1   902  H4B902      0.2569
      6  O4        63.2460   16.9810   76.8830 O.2   902  H4B902     -0.2052
      7  C4A       65.4170   17.0730   77.5080 C.2   902  H4B902      0.2989
      8  C8A       66.3540   17.6600   78.3740 C.1   902  H4B902      0.1401
      9  N5        65.7820   16.1580   76.6230 N.2   902  H4B902     -0.3830
     10  N8        67.6630   17.4520   78.1930 N.2   902  H4B902     -0.1992
     11  C6        67.1880   15.9620   76.3390 C.2   902  H4B902      0.1466
     12  C7        68.1170   16.4720   77.3240 C.3   902  H4B902      0.1940
     13  C9        67.4410   14.7700   75.3840 C.3   902  H4B902      0.2313
     14  O9        67.7020   15.2690   74.0680 O.3   902  H4B902     -0.2130
     15  C10       68.5760   13.8300   75.8050 C.3   902  H4B902      0.1888
     16  C11       68.9960   12.9450   74.6330 C.3   902  H4B902      0.0387
     17  O10       68.1150   13.0080   76.8870 O.3   902  H4B902     -0.2200
@<TRIPOS>BOND
     1    14    13    1
     2    16    15    1
     3    13    15    1
     4    13    11    1
     5    15    17    1
     6    11     9    2
     7    11    12    1
     8     9     7    2
     9     6     5    2
    10    12    10    1
    11     7     5    1
    12     7     8    1
    13     5     4    2
    14    10     8    2
    15     8     1    2
    16     4     2    2
    17     2     1    2
    18     2     3    1
