@<TRIPOS>MOLECULE
3e7g_AT2_A_1.pdb
 19 20 0 0 0
SMALL
GASTEIGER

@<TRIPOS>ATOM
      1  C1        54.0980   21.0140   84.5840 C.3   906  AT2906      0.0312
      2  C2        54.9740   21.8150   83.6620 C.ar  906  AT2906     -0.0175
      3  C3        55.4480   23.0660   84.0670 C.ar  906  AT2906      0.0165
      4  C4        56.2850   23.8240   83.1930 C.ar  906  AT2906      0.1000
      5  C6        56.1410   22.0670   81.5240 C.ar  906  AT2906      0.1471
      6  C7        55.3000   21.3080   82.4130 C.ar  906  AT2906      0.0315
      7  C9        56.0300   20.3740   79.6690 C.3   906  AT2906      0.0975
      8  C10       54.5160   20.5060   79.3000 C.3   906  AT2906      0.0433
      9  C11       54.2620   21.5690   78.1920 C.3   906  AT2906      0.0985
     10  N5        56.6300   23.3240   81.9380 N.ar  906  AT2906     -0.2277
     11  N8        56.4770   21.6150   80.2640 N.pl3 906  AT2906     -0.2220
     12  N12       55.0410   21.1960   76.9950 N.am  906  AT2906     -0.2459
     13  C13       56.4980   21.1340   77.2630 C.3   906  AT2906      0.0985
     14  C14       56.8140   20.1260   78.3780 C.3   906  AT2906      0.0433
     15  C15       54.4920   20.9300   75.8080 C.2   906  AT2906      0.4049
     16  O16       53.2290   21.0040   75.6620 O.2   906  AT2906     -0.2262
     17  O17       55.3490   20.5750   74.8560 O.3   906  AT2906     -0.4345
     18  C18       54.8280   20.2480   73.5740 C.3   906  AT2906      0.2102
     19  C19       56.0460   19.8100   72.7690 C.3   906  AT2906      0.0513
@<TRIPOS>BOND
     1    19    18    1
     2    18    17    1
     3    17    15    1
     4    16    15    2
     5    15    12   am
     6    12    13    1
     7    12     9    1
     8    13    14    1
     9     9     8    1
    10    14     7    1
    11     8     7    1
    12     7    11    1
    13    11     5    1
    14     5    10   ar
    15     5     6   ar
    16    10     4   ar
    17     6     2   ar
    18     4     3   ar
    19     2     3   ar
    20     2     1    1
