@<TRIPOS>MOLECULE
3e7i_H4B_A_1.pdb
 17 18 0 0 0
SMALL
GASTEIGER

@<TRIPOS>ATOM
      1  N1       113.7550  112.2170   32.0020 N.2   902  H4B902     -0.2683
      2  C2       114.9930  112.7100   32.2170 C.1   902  H4B902      0.2608
      3  N2       115.8280  113.0700   31.2510 N.pl3 902  H4B902     -0.0220
      4  N3       115.4320  112.8550   33.4800 N.2   902  H4B902     -0.2474
      5  C4       114.7140  112.5360   34.5680 C.1   902  H4B902      0.2441
      6  O4       115.2380  112.7160   35.6500 O.2   902  H4B902     -0.2063
      7  C4A      113.4000  112.0080   34.4260 C.2   902  H4B902      0.2463
      8  C8A      112.9740  111.8740   33.0420 C.1   902  H4B902      0.1270
      9  N5       112.5340  111.6160   35.4080 N.2   902  H4B902     -0.2460
     10  N8       111.7430  111.3870   32.7680 N.2   902  H4B902     -0.2054
     11  C6       111.5260  110.6060   35.0210 C.3   902  H4B902      0.1627
     12  C7       110.8350  111.0270   33.7750 C.3   902  H4B902      0.1643
     13  C9       110.6940  110.2560   36.2940 C.3   902  H4B902      0.2063
     14  O9       110.2300  111.4740   36.8850 O.3   902  H4B902     -0.2183
     15  C10      109.4530  109.3900   36.0470 C.3   902  H4B902      0.1842
     16  C11      108.4740  108.9200   37.1050 C.3   902  H4B902      0.0383
     17  O10      109.8810  108.2250   35.3070 O.3   902  H4B902     -0.2204
@<TRIPOS>BOND
     1     3     2    1
     2     1     2    2
     3     1     8    2
     4     2     4    2
     5    10     8    2
     6    10    12    1
     7     8     7    1
     8     4     5    2
     9    12    11    1
    10     7     5    1
    11     7     9    2
    12     5     6    2
    13    11     9    1
    14    11    13    1
    15    17    15    1
    16    15    13    1
    17    15    16    1
    18    13    14    1
