@<TRIPOS>MOLECULE
3e7i_B2_A_1.pdb
 17 19 0 0 0
SMALL
GASTEIGER

@<TRIPOS>ATOM
      1  C1       125.5320  111.8950   31.3950 C.2   906  B2906       0.0155
      2  C2       126.5460  112.0020   30.4300 C.2   906  B2906       0.0032
      3  C3       126.7540  113.1970   29.7160 C.2   906  B2906       0.0262
      4  C4       125.9360  114.3100   29.9450 C.2   906  B2906       0.1349
      5  C4A      124.8960  114.2130   30.9220 C.3   906  B2906       0.2032
      6  C5       124.0120  115.3040   31.1970 C.2   906  B2906       0.4005
      7  N6       123.0630  115.1370   32.1350 N.2   906  B2906      -0.0342
      8  C7       123.2660  114.1950   33.2730 C.3   906  B2906       0.3471
      9  N8       123.9250  112.9650   32.7610 N.2   906  B2906      -0.2233
     10  C8A      124.7040  112.9890   31.6700 C.2   906  B2906       0.0763
     11  C9       124.1510  114.8970   34.3580 C.ar  906  B2906       0.0798
     12  C10      123.7740  116.0150   35.0200 C.ar  906  B2906       0.0090
     13  C11      124.7200  116.3870   35.8760 C.ar  906  B2906       0.0074
     14  C12      125.8200  115.6070   35.9120 C.ar  906  B2906       0.0353
     15  S13      125.6760  114.3450   34.8230 S.2   906  B2906      -0.0845
     16  N14      124.0950  116.4690   30.5480 N.pl3 906  B2906       0.2115
     17  F15      126.1230  115.4150   29.2780 F     906  B2906      -0.2079
@<TRIPOS>BOND
     1    17     4    1
     2     3     4    2
     3     3     2    1
     4     4     5    1
     5     2     1    2
     6    16     6    1
     7     5     6    1
     8     5    10    1
     9     6     7    2
    10     1    10    1
    11    10     9    2
    12     7     8    1
    13     9     8    1
    14     8    11    1
    15    11    15   ar
    16    11    12   ar
    17    15    14   ar
    18    12    13   ar
    19    13    14   ar
