@<TRIPOS>MOLECULE
3e7i_HEM_A_1.pdb
 43 50 0 0 0
SMALL
GASTEIGER

@<TRIPOS>ATOM
      1 FE        124.4680  111.5690   27.4090 Fe    901  HEM901      0.0000
      2  CHA      122.0040  110.8390   29.6390 C.2   901  HEM901      0.0000
      3  CHB      123.1910  114.8070   27.1190 C.2   901  HEM901      0.0000
      4  CHC      127.4950  112.7960   26.1070 C.2   901  HEM901      0.0000
      5  CHD      126.0800  108.6700   28.2870 C.2   901  HEM901      0.0000
      6  NA       122.9170  112.6310   28.2780 N.ar  901  HEM901      0.0000
      7  C1A      121.9810  112.1440   29.1320 C.ar  901  HEM901      0.0000
      8  C2A      120.9480  113.1660   29.4180 C.ar  901  HEM901      0.0000
      9  C3A      121.2930  114.2680   28.6920 C.ar  901  HEM901      0.0000
     10  C4A      122.5100  113.9310   27.9790 C.ar  901  HEM901      0.0000
     11  CMA      120.5180  115.6030   28.6510 C.3   901  HEM901      0.0000
     12  CAA      119.7540  113.0890   30.3870 C.3   901  HEM901      0.0000
     13  CBA      120.2470  113.2760   31.8240 C.3   901  HEM901      0.0000
     14  CGA      119.1210  113.2920   32.8390 C.2   901  HEM901      0.0000
     15  O1A      119.3700  113.5770   34.0360 O.co2 901  HEM901      0.0000
     16  O2A      117.9790  113.0160   32.4260 O.co2 901  HEM901      0.0000
     17  NB       125.1850  113.3900   26.6360 N.2   901  HEM901      0.0000
     18  C1B      124.4210  114.5440   26.4830 C.2   901  HEM901      0.0000
     19  C2B      125.1250  115.5400   25.7660 C.2   901  HEM901      0.0000
     20  C3B      126.3710  115.0670   25.4720 C.2   901  HEM901      0.0000
     21  C4B      126.4030  113.6800   26.0540 C.2   901  HEM901      0.0000
     22  CMB      124.5410  116.8960   25.4220 C.3   901  HEM901      0.0000
     23  CAB      127.3290  115.8500   24.7880 C.3   901  HEM901      0.0000
     24  CBB      128.5920  115.4700   24.3380 C.3   901  HEM901      0.0000
     25  NC       126.4160  110.8800   27.2400 N.ar  901  HEM901      0.0000
     26  C1C      127.5220  111.5110   26.6750 C.ar  901  HEM901      0.0000
     27  C2C      128.6910  110.6160   26.7380 C.ar  901  HEM901      0.0000
     28  C3C      128.2730  109.4370   27.3160 C.ar  901  HEM901      0.0000
     29  C4C      126.8620  109.6150   27.6190 C.ar  901  HEM901      0.0000
     30  CMC      130.0800  110.9460   26.2860 C.3   901  HEM901      0.0000
     31  CAC      128.9980  108.3100   27.6520 C.3   901  HEM901      0.0000
     32  CBC      130.3320  108.1350   27.3220 C.3   901  HEM901      0.0000
     33  ND       124.0190  109.9830   28.5590 N.2   901  HEM901      0.0000
     34  C1D      124.7670  108.8240   28.7270 C.2   901  HEM901      0.0000
     35  C2D      124.1060  107.8930   29.6570 C.2   901  HEM901      0.0000
     36  C3D      123.0200  108.5660   30.0380 C.2   901  HEM901      0.0000
     37  C4D      122.9470  109.8530   29.3760 C.2   901  HEM901      0.0000
     38  CMD      124.4100  106.4940   30.1710 C.3   901  HEM901      0.0000
     39  CAD      122.1030  108.0210   31.0550 C.3   901  HEM901      0.0000
     40  CBD      122.4600  108.6090   32.3700 C.3   901  HEM901      0.0000
     41  CGD      121.4700  108.2060   33.4090 C.2   901  HEM901      0.0000
     42  O1D      121.5240  108.7440   34.5260 O.co2 901  HEM901      0.0000
     43  O2D      120.6290  107.3390   33.1040 O.co2 901  HEM901      0.0000
@<TRIPOS>BOND
     1    24    23    1
     2    23    20    1
     3    22    19    1
     4    20    19    2
     5    20    21    1
     6    19    18    1
     7    21     4    2
     8    21    17    1
     9     4    26    1
    10    30    27    1
    11    18    17    2
    12    18     3    1
    13    17     1    1
    14    26    27   ar
    15    26    25   ar
    16    27    28   ar
    17     3    10    2
    18    25     1    1
    19    25    29   ar
    20    28    29   ar
    21    28    31    1
    22    32    31    1
    23     1     6    1
    24     1    33    1
    25    29     5    1
    26    10     6   ar
    27    10     9   ar
    28     6     7   ar
    29     5    34    2
    30    33    34    1
    31    33    37    2
    32    11     9    1
    33     9     8   ar
    34    34    35    1
    35     7     8   ar
    36     7     2    2
    37    37     2    1
    38    37    36    1
    39     8    12    1
    40    35    36    2
    41    35    38    1
    42    36    39    1
    43    12    13    1
    44    39    40    1
    45    13    14    1
    46    40    41    1
    47    16    14   ar
    48    14    15   ar
    49    43    41   ar
    50    41    42   ar
