@<TRIPOS>MOLECULE
3e7j_GCU_A_1.pdb
 12 12 0 0 0
SMALL
GASTEIGER

@<TRIPOS>ATOM
      1  C1        -1.0090   -8.9290   46.1920 C.3   775  GCU775      0.1783
      2  C2        -1.1450  -10.3670   46.7000 C.3   775  GCU775      0.2141
      3  C3        -0.0340  -10.7190   47.6800 C.3   775  GCU775      0.2178
      4  C4         1.3090  -10.4100   47.0360 C.3   775  GCU775      0.2227
      5  C5         1.3020   -8.9400   46.6480 C.3   775  GCU775      0.2512
      6  C6         2.6540   -8.4990   46.1080 C.2   775  GCU775      0.3940
      7  O2        -2.3930  -10.5320   47.3310 O.3   775  GCU775     -0.2176
      8  O3        -0.1220  -12.0770   48.0460 O.3   775  GCU775     -0.2175
      9  O4         2.3500  -10.6260   47.9510 O.3   775  GCU775     -0.2171
     10  O5         0.2960   -8.7080   45.6860 O.3   775  GCU775     -0.3403
     11  O6A        2.8660   -8.6410   44.8850 O.co2 775  GCU775     -0.2429
     12  O6B        3.4770   -8.0080   46.9140 O.co2 775  GCU775     -0.2429
@<TRIPOS>BOND
     1    11     6   ar
     2    10     1    1
     3    10     5    1
     4     6     5    1
     5     6    12   ar
     6     1     2    1
     7     5     4    1
     8     2     7    1
     9     2     3    1
    10     4     3    1
    11     4     9    1
    12     3     8    1
