@<TRIPOS>MOLECULE
3e7m_AT2_A_1.pdb
 19 20 0 0 0
SMALL
GASTEIGER

@<TRIPOS>ATOM
      1  C1       127.1830  112.4840   31.6360 C.3   906  AT2906      0.0312
      2  C2       126.1740  113.6050   31.7580 C.ar  906  AT2906     -0.0175
      3  C3       126.0380  114.5380   30.7130 C.ar  906  AT2906      0.0165
      4  C4       125.0830  115.5930   30.8230 C.ar  906  AT2906      0.1000
      5  C6       124.4180  114.7750   33.0190 C.ar  906  AT2906      0.1471
      6  C7       125.3830  113.7100   32.9000 C.ar  906  AT2906      0.0315
      7  C9       123.6720  114.0840   35.3290 C.3   906  AT2906      0.0975
      8  C10      124.9280  114.5020   36.1640 C.3   906  AT2906      0.0433
      9  C11      124.8220  115.9430   36.7160 C.3   906  AT2906      0.0985
     10  N5       124.2770  115.7070   31.9650 N.ar  906  AT2906     -0.2277
     11  N8       123.6230  114.9330   34.1420 N.pl3 906  AT2906     -0.2220
     12  N12      123.5990  116.0500   37.5170 N.am  906  AT2906     -0.2459
     13  C13      122.3680  115.7590   36.7270 C.3   906  AT2906      0.0985
     14  C14      122.4290  114.3390   36.1820 C.3   906  AT2906      0.0433
     15  C15      123.5740  116.3630   38.8230 C.2   906  AT2906      0.4049
     16  O16      124.6620  116.6040   39.4550 O.2   906  AT2906     -0.2262
     17  O17      122.3580  116.3820   39.3630 O.3   906  AT2906     -0.4345
     18  C18      122.2560  116.6910   40.7350 C.3   906  AT2906      0.2102
     19  C19      120.7700  116.5940   41.0540 C.3   906  AT2906      0.0513
@<TRIPOS>BOND
     1     3     4   ar
     2     3     2   ar
     3     4    10   ar
     4     1     2    1
     5     2     6   ar
     6    10     5   ar
     7     6     5   ar
     8     5    11    1
     9    11     7    1
    10     7     8    1
    11     7    14    1
    12     8     9    1
    13    14    13    1
    14     9    12    1
    15    13    12    1
    16    12    15   am
    17    15    17    1
    18    15    16    2
    19    17    18    1
    20    18    19    1
