@<TRIPOS>MOLECULE
3e7m_HEM_A_1.pdb
 43 50 0 0 0
SMALL
GASTEIGER

@<TRIPOS>ATOM
      1  CHA      121.8160  110.7700   31.0000 C.2   901  HEM901      0.0000
      2  CHB      122.8840  114.7120   28.2830 C.2   901  HEM901      0.0000
      3  CHC      127.2860  112.8390   27.4340 C.2   901  HEM901      0.0000
      4  CHD      125.9580  108.6920   29.5890 C.2   901  HEM901      0.0000
      5  C1A      121.7840  112.0650   30.4470 C.ar  901  HEM901      0.0000
      6  C2A      120.7870  113.0810   30.7490 C.ar  901  HEM901      0.0000
      7  C3A      121.0800  114.1480   29.9580 C.ar  901  HEM901      0.0000
      8  C4A      122.2500  113.8320   29.1860 C.ar  901  HEM901      0.0000
      9  CMA      120.2990  115.4510   29.9150 C.3   901  HEM901      0.0000
     10  CAA      119.6990  113.0530   31.8190 C.3   901  HEM901      0.0000
     11  CBA      120.2730  113.0400   33.2340 C.3   901  HEM901      0.0000
     12  CGA      119.1970  113.0170   34.3080 C.2   901  HEM901      0.0000
     13  O1A      119.5150  112.6580   35.4640 O.co2 901  HEM901      0.0000
     14  O2A      118.0370  113.3670   34.0060 O.co2 901  HEM901      0.0000
     15  C1B      124.1160  114.4740   27.6450 C.2   901  HEM901      0.0000
     16  C2B      124.8710  115.5160   26.9680 C.2   901  HEM901      0.0000
     17  C3B      126.1330  115.0290   26.7350 C.2   901  HEM901      0.0000
     18  C4B      126.1480  113.6660   27.2890 C.2   901  HEM901      0.0000
     19  CMB      124.3710  116.9340   26.6490 C.3   901  HEM901      0.0000
     20  CAB      127.1680  115.7860   26.1750 C.3   901  HEM901      0.0000
     21  CBB      128.1980  115.3390   25.3680 C.3   901  HEM901      0.0000
     22  C1C      127.3520  111.5810   28.0450 C.ar  901  HEM901      0.0000
     23  C2C      128.5390  110.7470   28.1300 C.ar  901  HEM901      0.0000
     24  C3C      128.1490  109.5330   28.6610 C.ar  901  HEM901      0.0000
     25  C4C      126.7270  109.6600   28.9360 C.ar  901  HEM901      0.0000
     26  CMC      129.9490  111.2030   27.7000 C.3   901  HEM901      0.0000
     27  CAC      128.9070  108.3660   28.9200 C.3   901  HEM901      0.0000
     28  CBC      130.1480  108.0300   28.3840 C.3   901  HEM901      0.0000
     29  C1D      124.6470  108.8430   30.0740 C.2   901  HEM901      0.0000
     30  C2D      123.9410  107.8590   30.8540 C.2   901  HEM901      0.0000
     31  C3D      122.8250  108.4500   31.3080 C.2   901  HEM901      0.0000
     32  C4D      122.8100  109.8050   30.7660 C.2   901  HEM901      0.0000
     33  CMD      124.3750  106.4100   31.0800 C.3   901  HEM901      0.0000
     34  CAD      121.8150  107.8870   32.2880 C.3   901  HEM901      0.0000
     35  CBD      122.0970  108.3780   33.7100 C.3   901  HEM901      0.0000
     36  CGD      121.0900  107.8590   34.7100 C.2   901  HEM901      0.0000
     37  O1D      121.0260  108.4010   35.8290 O.co2 901  HEM901      0.0000
     38  O2D      120.3600  106.9030   34.3800 O.co2 901  HEM901      0.0000
     39  NA       122.6910  112.5510   29.5220 N.ar  901  HEM901      0.0000
     40  NB       124.8920  113.3500   27.8080 N.2   901  HEM901      0.0000
     41  NC       126.2610  110.9150   28.5730 N.ar  901  HEM901      0.0000
     42  ND       123.9340  110.0140   30.0030 N.2   901  HEM901      0.0000
     43 FE        124.3240  111.6110   28.7690 Fe    901  HEM901      0.0000
@<TRIPOS>BOND
     1    21    20    1
     2    20    17    1
     3    19    16    1
     4    17    16    2
     5    17    18    1
     6    16    15    1
     7    18     3    2
     8    18    40    1
     9     3    22    1
    10    15    40    2
    11    15     2    1
    12    26    23    1
    13    40    43    1
    14    22    23   ar
    15    22    41   ar
    16    23    24   ar
    17     2     8    2
    18    28    27    1
    19    41    43    1
    20    41    25   ar
    21    24    27    1
    22    24    25   ar
    23    43    39    1
    24    43    42    1
    25    25     4    1
    26     8    39   ar
    27     8     7   ar
    28    39     5   ar
    29     4    29    2
    30     9     7    1
    31     7     6   ar
    32    42    29    1
    33    42    32    2
    34    29    30    1
    35     5     6   ar
    36     5     1    2
    37     6    10    1
    38    32     1    1
    39    32    31    1
    40    30    33    1
    41    30    31    2
    42    31    34    1
    43    10    11    1
    44    34    35    1
    45    11    12    1
    46    35    36    1
    47    14    12   ar
    48    12    13   ar
    49    38    36   ar
    50    36    37   ar
