@<TRIPOS>MOLECULE
3e7m_H4B_A_1.pdb
 17 18 0 0 0
SMALL
GASTEIGER

@<TRIPOS>ATOM
      1  N1       113.8290  112.1420   32.7780 N.2   902  H4B902     -0.2672
      2  C2       115.1010  112.4860   33.0330 C.1   902  H4B902      0.2609
      3  N2       115.8790  112.8690   32.0280 N.pl3 902  H4B902     -0.0220
      4  N3       115.6030  112.4470   34.3000 N.2   902  H4B902     -0.2466
      5  C4       114.8320  112.0510   35.3490 C.1   902  H4B902      0.2569
      6  O4       115.2670  111.9910   36.5190 O.2   902  H4B902     -0.2052
      7  C4A      113.4800  111.6710   35.1350 C.2   902  H4B902      0.2989
      8  C8A      112.9970  111.7430   33.7670 C.1   902  H4B902      0.1401
      9  N5       112.6830  111.2120   36.1330 N.2   902  H4B902     -0.3830
     10  N8       111.6980  111.4330   33.4920 N.2   902  H4B902     -0.1992
     11  C6       111.3960  110.5470   35.7570 C.2   902  H4B902      0.1466
     12  C7       110.7830  111.0950   34.5270 C.3   902  H4B902      0.1940
     13  C9       110.5430  110.1510   36.9800 C.3   902  H4B902      0.2313
     14  O9       109.8860  111.3090   37.4750 O.3   902  H4B902     -0.2130
     15  C10      109.4780  109.0780   36.5920 C.3   902  H4B902      0.1888
     16  C11      108.6140  108.6660   37.7870 C.3   902  H4B902      0.0387
     17  O10      110.1350  107.9130   36.0760 O.3   902  H4B902     -0.2200
@<TRIPOS>BOND
     1     3     2    1
     2     1     2    2
     3     1     8    2
     4     2     4    2
     5    10     8    2
     6    10    12    1
     7     8     7    1
     8     4     5    2
     9    12    11    1
    10     7     5    1
    11     7     9    2
    12     5     6    2
    13    11     9    2
    14    11    13    1
    15    17    15    1
    16    15    13    1
    17    15    16    1
    18    13    14    1
