@<TRIPOS>MOLECULE
3e7o_35F_A_1.pdb
 28 32 0 0 0
SMALL
GASTEIGER

@<TRIPOS>ATOM
      1  C4       -27.9820  -32.4050   24.3930 C.2     1  35F1        0.0125
      2  C5       -28.6620  -31.8940   23.2910 C.2     1  35F1        0.0357
      3  C6       -28.1140  -30.8840   22.5090 C.2     1  35F1        0.0864
      4  C10      -30.9050  -33.2190   23.2570 C.ar    1  35F1        0.0207
      5  C13      -32.9450  -34.9080   24.1430 C.ar    1  35F1        0.0166
      6  C15      -30.5890  -34.3500   24.0150 C.ar    1  35F1        0.0016
      7  C17      -25.9470  -32.3870   25.8510 C.1     1  35F1        0.0578
      8  C20      -25.3510  -33.5340   27.6250 C.2     1  35F1        0.2317
      9  C22      -35.6190  -33.5560   23.8200 C.2     1  35F1        0.3037
     10  C24      -36.7680  -33.0560   23.3660 C.ar    1  35F1        0.2005
     11  C26      -38.1870  -32.0340   22.1410 C.ar    1  35F1        0.0440
     12  O23      -35.6250  -34.1210   24.9110 O.2     1  35F1       -0.2646
     13  O28      -38.0510  -33.2050   23.9920 O.2     1  35F1       -0.4457
     14  C27      -38.9110  -32.4730   23.0820 C.ar    1  35F1        0.1798
     15  C25      -36.9580  -32.3400   22.2520 C.ar    1  35F1        0.0455
     16  N16      -34.5290  -33.4250   23.0470 N.am    1  35F1       -0.1728
     17  C12      -33.2600  -33.7670   23.3990 C.ar    1  35F1        0.0738
     18  C11      -32.2360  -32.9370   22.9610 C.ar    1  35F1        0.0182
     19  C14      -31.6110  -35.1930   24.4530 C.ar    1  35F1        0.0014
     20  C9       -29.9000  -32.2260   22.7580 C.2     1  35F1        0.1040
     21  N8       -30.0920  -31.4250   21.6840 N.2     1  35F1       -0.1483
     22  N7       -28.9820  -30.5980   21.5310 N.2     1  35F1       -0.1520
     23  C3       -26.8580  -30.3710   22.8140 C.3     1  35F1        0.0743
     24  C2       -26.1710  -30.8730   23.9100 C.2     1  35F1       -0.0097
     25  C1       -26.7300  -31.8810   24.6920 C.2     1  35F1        0.0604
     26  N21      -26.3270  -33.3640   26.7050 N.2     1  35F1       -0.1679
     27  N19      -24.3410  -32.6730   27.3470 N.2     1  35F1       -0.1156
     28  N18      -24.7220  -31.9390   26.2120 N.2     1  35F1       -0.0920
@<TRIPOS>BOND
     1    22    21    1
     2    22     3    2
     3    21    20    2
     4    11    15   ar
     5    11    14   ar
     6    15    10   ar
     7     3    23    1
     8     3     2    1
     9    20     4    1
    10    20     2    1
    11    23    24    1
    12    18     4   ar
    13    18    17   ar
    14    16    17    1
    15    16     9   am
    16    14    13   ar
    17     4     6   ar
    18     2     1    2
    19    10     9    1
    20    10    13   ar
    21    17     5   ar
    22     9    12    2
    23    24    25    2
    24     6    19   ar
    25     5    19   ar
    26     1    25    1
    27    25     7    1
    28     7    28    2
    29     7    26    2
    30    28    27    1
    31    26     8    1
    32    27     8    2
