@<TRIPOS>MOLECULE
3e7s_HEC_A_1.pdb
 43 50 0 0 0
SMALL
GASTEIGER

@<TRIPOS>ATOM
      1 FE          4.5520   43.2070   11.8610 Fe    901  HEC901      0.0000
      2  CHA        4.6920   45.3750   14.4390 C.2   901  HEC901      0.0000
      3  CHB        2.5670   41.0760   13.6600 C.2   901  HEC901      0.0000
      4  CHC        4.0330   41.3450    9.0390 C.2   901  HEC901      0.0000
      5  CHD        6.3690   45.5260    9.8770 C.2   901  HEC901      0.0000
      6  NA         3.7560   43.2380   13.6960 N.2   901  HEC901      0.0000
      7  C1A        3.9020   44.2160   14.6290 C.2   901  HEC901      0.0000
      8  C2A        3.1200   43.8730   15.8580 C.2   901  HEC901      0.0000
      9  C3A        2.5230   42.6340   15.6280 C.2   901  HEC901      0.0000
     10  C4A        2.9320   42.2600   14.2910 C.2   901  HEC901      0.0000
     11  CMA        1.5950   41.7980   16.6310 C.3   901  HEC901      0.0000
     12  CAA        3.0070   44.7050   17.1520 C.3   901  HEC901      0.0000
     13  CBA        1.7590   45.5870   17.2260 C.3   901  HEC901      0.0000
     14  CGA        1.4990   46.2350   18.5920 C.2   901  HEC901      0.0000
     15  O1A        1.1410   47.4450   18.6300 O.co2 901  HEC901      0.0000
     16  O2A        1.6520   45.5460   19.6380 O.co2 901  HEC901      0.0000
     17  NB         3.6380   41.4770   11.4590 N.ar  901  HEC901      0.0000
     18  C1B        2.9200   40.6800   12.3230 C.ar  901  HEC901      0.0000
     19  C2B        2.3690   39.5200   11.7010 C.ar  901  HEC901      0.0000
     20  C3B        2.7160   39.6070   10.3900 C.ar  901  HEC901      0.0000
     21  C4B        3.5060   40.8470   10.2520 C.ar  901  HEC901      0.0000
     22  CMB        1.5010   38.4240   12.4180 C.3   901  HEC901      0.0000
     23  CAB        2.3100   38.5900    9.2070 C.3   901  HEC901      0.0000
     24  CBB        3.3040   37.9900    8.2690 C.3   901  HEC901      0.0000
     25  NC         5.0960   43.4060    9.8930 N.2   901  HEC901      0.0000
     26  C1C        4.7640   42.5130    8.8630 C.2   901  HEC901      0.0000
     27  C2C        5.2550   42.9480    7.5560 C.2   901  HEC901      0.0000
     28  C3C        5.9440   44.1160    7.7920 C.2   901  HEC901      0.0000
     29  C4C        5.8220   44.3950    9.2470 C.2   901  HEC901      0.0000
     30  CMC        5.0210   42.2020    6.1980 C.3   901  HEC901      0.0000
     31  CAC        6.7150   45.0410    6.7870 C.3   901  HEC901      0.0000
     32  CBC        7.5900   44.5890    5.6450 C.3   901  HEC901      0.0000
     33  ND         5.4590   45.0680   12.1100 N.ar  901  HEC901      0.0000
     34  C1D        6.1950   45.8650   11.2250 C.ar  901  HEC901      0.0000
     35  C2D        6.7360   47.0740   11.8640 C.ar  901  HEC901      0.0000
     36  C3D        6.2570   47.0240   13.1540 C.ar  901  HEC901      0.0000
     37  C4D        5.4360   45.7950   13.2760 C.ar  901  HEC901      0.0000
     38  CMD        7.6250   48.1850   11.2540 C.3   901  HEC901      0.0000
     39  CAD        6.5080   48.0440   14.3090 C.3   901  HEC901      0.0000
     40  CBD        5.4770   49.1300   14.2220 C.3   901  HEC901      0.0000
     41  CGD        5.8260   50.3910   15.0420 C.2   901  HEC901      0.0000
     42  O1D        4.9900   51.3520   15.0110 O.co2 901  HEC901      0.0000
     43  O2D        6.9530   50.4580   15.7270 O.co2 901  HEC901      0.0000
@<TRIPOS>BOND
     1    32    31    1
     2    30    27    1
     3    31    28    1
     4    27    28    2
     5    27    26    1
     6    28    29    1
     7    24    23    1
     8    26     4    2
     9    26    25    1
    10     4    21    1
    11    23    20    1
    12    29     5    1
    13    29    25    2
    14     5    34    2
    15    25     1    1
    16    21    20   ar
    17    21    17   ar
    18    20    19   ar
    19    34    35   ar
    20    34    33   ar
    21    38    35    1
    22    17     1    1
    23    17    18   ar
    24    19    18   ar
    25    19    22    1
    26     1    33    1
    27     1     6    1
    28    35    36   ar
    29    33    37   ar
    30    18     3    1
    31    36    37   ar
    32    36    39    1
    33    37     2    2
    34     3    10    2
    35     6    10    1
    36     6     7    2
    37    40    39    1
    38    40    41    1
    39    10     9    1
    40     2     7    1
    41     7     8    1
    42    42    41   ar
    43    41    43   ar
    44     9     8    2
    45     9    11    1
    46     8    12    1
    47    12    13    1
    48    13    14    1
    49    14    15   ar
    50    14    16   ar
