@<TRIPOS>MOLECULE
3e7s_AT2_A_1.pdb
 19 20 0 0 0
SMALL
GASTEIGER

@<TRIPOS>ATOM
      1  C1         1.7990   44.5820    8.8260 C.3   904  AT2904      0.0312
      2  C2         1.0470   44.1900   10.0550 C.ar  904  AT2904     -0.0175
      3  C3         0.6350   42.8620   10.2810 C.ar  904  AT2904      0.0165
      4  C4        -0.1190   42.5290   11.5340 C.ar  904  AT2904      0.1000
      5  C6         0.0400   44.9840   12.1960 C.ar  904  AT2904      0.1471
      6  C7         0.7770   45.2480   10.9540 C.ar  904  AT2904      0.0315
      7  C9        -0.1220   47.2630   13.2220 C.3   904  AT2904      0.0975
      8  C10       -1.3670   47.7870   14.0400 C.3   904  AT2904      0.0433
      9  C11       -1.2970   49.3720   13.7350 C.3   904  AT2904      0.0985
     10  N5        -0.3760   43.6380   12.4430 N.ar  904  AT2904     -0.2277
     11  N8        -0.3490   45.8390   13.1800 N.pl3 904  AT2904     -0.2220
     12  N12        0.0310   49.8980   14.2710 N.am  904  AT2904     -0.2459
     13  C13        1.2940   49.2430   13.6710 C.3   904  AT2904      0.0985
     14  C14        1.2210   47.7350   13.8650 C.3   904  AT2904      0.0433
     15  C15        0.0570   50.8880   15.1580 C.2   904  AT2904      0.4049
     16  O16       -1.0390   51.3470   15.5710 O.2   904  AT2904     -0.2262
     17  O17        1.2550   51.3690   15.5050 O.3   904  AT2904     -0.4345
     18  C18        1.3720   52.5360   16.4130 C.3   904  AT2904      0.2102
     19  C19        2.7550   53.0130   16.6280 C.3   904  AT2904      0.0513
@<TRIPOS>BOND
     1     1     2    1
     2     2     3   ar
     3     2     6   ar
     4     3     4   ar
     5     6     5   ar
     6     4    10   ar
     7     5    10   ar
     8     5    11    1
     9    11     7    1
    10     7    14    1
    11     7     8    1
    12    13    14    1
    13    13    12    1
    14     9     8    1
    15     9    12    1
    16    12    15   am
    17    15    17    1
    18    15    16    2
    19    17    18    1
    20    18    19    1
