@<TRIPOS>MOLECULE
3e7t_B14_A_1.pdb
 28 31 0 0 0
SMALL
GASTEIGER

@<TRIPOS>ATOM
      1  C1       125.3370  111.8580   32.5830 C.2   906  B14906      0.1543
      2  C2       126.3740  111.8100   31.6610 C.2   906  B14906      0.0329
      3  C3       126.8560  112.9910   31.0580 C.2   906  B14906      0.0285
      4  C4       126.2810  114.2380   31.3530 C.2   906  B14906      0.1350
      5  C4A      125.1800  114.2930   32.2660 C.3   906  B14906      0.2054
      6  C5       124.5050  115.4900   32.6430 C.2   906  B14906      0.4000
      7  N6       123.8500  115.5220   33.8270 N.2   906  B14906     -0.0463
      8  C7       123.7790  114.4020   34.7930 C.3   906  B14906      0.2606
      9  N8       123.7870  113.2090   33.8960 N.2   906  B14906     -0.2304
     10  C8A      124.7270  113.1030   32.9340 C.2   906  B14906      0.1031
     11  F9       126.7530  115.3130   30.7920 F     906  B14906     -0.2079
     12  F10      124.8960  110.7790   33.1440 F     906  B14906     -0.2029
     13  C11      125.0360  114.4160   35.7120 C.3   906  B14906      0.0947
     14  C12      124.9760  115.6340   36.6330 C.3   906  B14906      0.1002
     15  N13      123.7540  115.4750   37.4690 N.am  906  B14906     -0.2756
     16  C14      122.6570  115.8020   36.5090 C.3   906  B14906      0.1002
     17  C15      122.4800  114.5500   35.6260 C.3   906  B14906      0.0947
     18  C16      123.7690  116.0920   38.7180 C.2   906  B14906      0.2505
     19  O17      124.7600  116.7290   39.1070 O.2   906  B14906     -0.2699
     20  N18      124.4620  116.5490   31.8660 N.pl3 906  B14906      0.2115
     21  C19      122.6340  115.9760   39.5960 C.ar  906  B14906      0.0727
     22  C20      122.2710  117.0580   40.4700 C.ar  906  B14906      0.1030
     23  N21      121.1430  116.8880   41.2880 N.ar  906  B14906     -0.2465
     24  C22      120.3870  115.7120   41.2670 C.ar  906  B14906      0.0782
     25  C23      120.7340  114.6610   40.4260 C.ar  906  B14906      0.0164
     26  C24      121.8550  114.7850   39.5920 C.ar  906  B14906      0.0073
     27  C25      119.3020  115.5990   42.0750 C.3   906  B14906      0.1547
     28  N26      118.2260  115.4910   42.8440 N.3   906  B14906     -0.1245
@<TRIPOS>BOND
     1    11     4    1
     2     3     4    2
     3     3     2    1
     4     4     5    1
     5     2     1    2
     6    20     6    1
     7     5     6    1
     8     5    10    1
     9     1    10    1
    10     1    12    1
    11     6     7    2
    12    10     9    2
    13     7     8    1
    14     9     8    1
    15     8    17    1
    16     8    13    1
    17    17    16    1
    18    13    14    1
    19    16    15    1
    20    14    15    1
    21    15    18   am
    22    18    19    2
    23    18    21    1
    24    26    21   ar
    25    26    25   ar
    26    21    22   ar
    27    25    24   ar
    28    22    23   ar
    29    24    23   ar
    30    24    27    1
    31    27    28    1
