@<TRIPOS>MOLECULE
3e7t_HEM_A_1.pdb
 43 50 0 0 0
SMALL
GASTEIGER

@<TRIPOS>ATOM
      1 FE        124.8460  111.5900   28.7300 Fe    901  HEM901      0.0000
      2  CHA      122.2000  110.7950   30.7810 C.2   901  HEM901      0.0000
      3  CHB      123.6970  114.7800   28.4580 C.2   901  HEM901      0.0000
      4  CHC      127.8910  112.7250   27.4550 C.2   901  HEM901      0.0000
      5  CHD      126.3560  108.6120   29.5710 C.2   901  HEM901      0.0000
      6  NA       123.2940  112.6250   29.5460 N.ar  901  HEM901      0.0000
      7  C1A      122.2670  112.1480   30.3440 C.ar  901  HEM901      0.0000
      8  C2A      121.2640  113.2420   30.6220 C.ar  901  HEM901      0.0000
      9  C3A      121.7010  114.3310   29.9220 C.ar  901  HEM901      0.0000
     10  C4A      122.9580  113.9380   29.2610 C.ar  901  HEM901      0.0000
     11  CMA      120.9800  115.6690   29.8190 C.3   901  HEM901      0.0000
     12  CAA      120.0390  113.2690   31.5390 C.3   901  HEM901      0.0000
     13  CBA      120.4370  112.9860   32.9640 C.3   901  HEM901      0.0000
     14  CGA      119.2890  113.1270   33.9470 C.2   901  HEM901      0.0000
     15  O1A      119.4860  112.8000   35.1430 O.co2 901  HEM901      0.0000
     16  O2A      118.1960  113.5740   33.5310 O.co2 901  HEM901      0.0000
     17  NB       125.5910  113.3900   27.9780 N.2   901  HEM901      0.0000
     18  C1B      124.8840  114.5510   27.8440 C.2   901  HEM901      0.0000
     19  C2B      125.6170  115.5410   27.0930 C.2   901  HEM901      0.0000
     20  C3B      126.8230  115.0010   26.7770 C.2   901  HEM901      0.0000
     21  C4B      126.8200  113.6460   27.3710 C.2   901  HEM901      0.0000
     22  CMB      125.1620  116.9610   26.7890 C.3   901  HEM901      0.0000
     23  CAB      127.7840  115.7400   26.0980 C.3   901  HEM901      0.0000
     24  CBB      128.9560  115.3380   25.4850 C.3   901  HEM901      0.0000
     25  NC       126.7600  110.7900   28.4780 N.ar  901  HEM901      0.0000
     26  C1C      127.8830  111.4210   28.0080 C.ar  901  HEM901      0.0000
     27  C2C      129.0460  110.5490   28.1440 C.ar  901  HEM901      0.0000
     28  C3C      128.6020  109.3510   28.6850 C.ar  901  HEM901      0.0000
     29  C4C      127.1770  109.5380   28.8850 C.ar  901  HEM901      0.0000
     30  CMC      130.4750  110.9260   27.7160 C.3   901  HEM901      0.0000
     31  CAC      129.3370  108.1910   29.0230 C.3   901  HEM901      0.0000
     32  CBC      130.4840  107.7130   28.3750 C.3   901  HEM901      0.0000
     33  ND       124.3030  109.9320   29.8360 N.2   901  HEM901      0.0000
     34  C1D      125.0350  108.7660   30.0170 C.2   901  HEM901      0.0000
     35  C2D      124.2990  107.7980   30.8380 C.2   901  HEM901      0.0000
     36  C3D      123.1350  108.3920   31.1700 C.2   901  HEM901      0.0000
     37  C4D      123.1430  109.7470   30.5420 C.2   901  HEM901      0.0000
     38  CMD      124.6880  106.4000   31.3030 C.3   901  HEM901      0.0000
     39  CAD      122.1230  107.8060   32.1500 C.3   901  HEM901      0.0000
     40  CBD      122.3960  108.3970   33.5310 C.3   901  HEM901      0.0000
     41  CGD      121.3480  108.0010   34.5360 C.2   901  HEM901      0.0000
     42  O1D      121.3380  108.5660   35.6520 O.co2 901  HEM901      0.0000
     43  O2D      120.5250  107.1190   34.2110 O.co2 901  HEM901      0.0000
@<TRIPOS>BOND
     1    24    23    1
     2    23    20    1
     3    20    19    2
     4    20    21    1
     5    22    19    1
     6    19    18    1
     7    21     4    2
     8    21    17    1
     9     4    26    1
    10    30    27    1
    11    18    17    2
    12    18     3    1
    13    17     1    1
    14    26    27   ar
    15    26    25   ar
    16    27    28   ar
    17    32    31    1
    18     3    10    2
    19    25     1    1
    20    25    29   ar
    21    28    29   ar
    22    28    31    1
    23     1     6    1
    24     1    33    1
    25    29     5    1
    26    10     6   ar
    27    10     9   ar
    28     6     7   ar
    29     5    34    2
    30    11     9    1
    31    33    34    1
    32    33    37    2
    33     9     8   ar
    34    34    35    1
    35     7     8   ar
    36     7     2    2
    37    37     2    1
    38    37    36    1
    39     8    12    1
    40    35    36    2
    41    35    38    1
    42    36    39    1
    43    12    13    1
    44    39    40    1
    45    13    14    1
    46    16    14   ar
    47    40    41    1
    48    14    15   ar
    49    43    41   ar
    50    41    42   ar
