@<TRIPOS>MOLECULE
3e7t_HBI_A_1.pdb
 17 18 0 0 0
SMALL
GASTEIGER

@<TRIPOS>ATOM
      1  N1       114.0660  112.1230   32.9720 N.2   902  HBI902     -0.2672
      2  N2       116.0320  112.9760   32.1590 N.pl3 902  HBI902     -0.0220
      3  C2       115.3210  112.5300   33.1890 C.1   902  HBI902      0.2609
      4  N3       115.8750  112.4950   34.4090 N.2   902  HBI902     -0.2466
      5  C4       115.1760  112.0470   35.4500 C.1   902  HBI902      0.2569
      6  O4       115.6770  111.8660   36.5620 O.2   902  HBI902     -0.2052
      7  C4A      113.8120  111.7610   35.2910 C.2   902  HBI902      0.2989
      8  C8A      113.3320  111.6530   33.9750 C.1   902  HBI902      0.1401
      9  N8       112.1520  111.0830   33.7390 N.2   902  HBI902     -0.1992
     10  C7       111.1810  111.2040   34.7100 C.3   902  HBI902      0.1940
     11  C6       111.5820  111.4060   36.1000 C.2   902  HBI902      0.1466
     12  N5       113.0020  111.6100   36.3300 N.2   902  HBI902     -0.3830
     13  C9       110.9330  110.5980   37.2340 C.3   902  HBI902      0.2313
     14  O9       110.7590  111.4450   38.3770 O.3   902  HBI902     -0.2130
     15  C10      109.5800  109.9500   36.8500 C.3   902  HBI902      0.1888
     16  O10      109.8050  108.8900   35.9090 O.3   902  HBI902     -0.2200
     17  C11      108.8880  109.3820   38.0800 C.3   902  HBI902      0.0387
@<TRIPOS>BOND
     1     2     3    1
     2     1     3    2
     3     1     8    2
     4     3     4    2
     5     9     8    2
     6     9    10    1
     7     8     7    1
     8     4     5    2
     9    10    11    1
    10     7     5    1
    11     7    12    2
    12     5     6    2
    13    16    15    1
    14    11    12    2
    15    11    13    1
    16    15    13    1
    17    15    17    1
    18    13    14    1
