@<TRIPOS>MOLECULE
3e7v_DZO_A_1.pdb
 24 27 0 0 0
SMALL
GASTEIGER

@<TRIPOS>ATOM
      1  C4         8.4750  -15.9840  -11.9420 C.2     1  DZO1        0.1083
      2  C3        11.9370  -13.2790  -12.8980 C.2     1  DZO1        0.2064
      3  C2         9.1570  -15.1060  -11.2040 C.2     1  DZO1        0.0638
      4  C1        10.1550  -14.5820  -12.0350 C.2     1  DZO1        0.2073
      5  C10       12.4710  -11.5110  -10.5180 C.ar    1  DZO1        0.0280
      6  C12       12.7870  -10.5840   -9.5350 C.ar    1  DZO1        0.0590
      7 CL1        11.9610  -10.6160   -8.0210 Cl      1  DZO1       -0.0822
      8  C17       13.7600   -9.6180   -9.7640 C.ar    1  DZO1        0.0115
      9  C15       14.4140   -9.5600  -10.9870 C.ar    1  DZO1        0.0022
     10  C16       14.1060  -10.4860  -11.9780 C.ar    1  DZO1        0.0166
     11  C9        13.1300  -11.4720  -11.7640 C.ar    1  DZO1        0.0739
     12  N4        12.9100  -12.3420  -12.7840 N.pl3   1  DZO1       -0.1835
     13  C5        11.8150  -13.9230  -14.1290 C.2     1  DZO1        0.0675
     14  C7        10.8440  -14.9120  -14.3120 C.2     1  DZO1        0.0936
     15  N1        11.1010  -13.6110  -11.8940 N.2     1  DZO1       -0.3683
     16  N2         9.9840  -15.2420  -13.2540 N.pl3   1  DZO1       -0.1703
     17  N3         9.0040  -16.0230  -13.1690 N.pl3   1  DZO1       -0.1392
     18  C6         8.9210  -14.6560   -9.8980 C.ar    1  DZO1        0.0065
     19  C8         7.6030  -14.5000   -9.4590 C.ar    1  DZO1        0.0182
     20  C13        9.9540  -14.2400   -9.0610 C.ar    1  DZO1        0.0003
     21  C14        9.7020  -13.7430   -7.7910 C.ar    1  DZO1        0.0014
     22  C18        8.3940  -13.6390   -7.3590 C.ar    1  DZO1        0.0181
     23  C11        7.3240  -13.9790   -8.1930 C.ar    1  DZO1        0.0891
     24  N5         6.0560  -13.8350   -7.7410 N.pl3   1  DZO1       -0.1281
@<TRIPOS>BOND
     1    14    13    2
     2    14    16    1
     3    13     2    1
     4    16    17    1
     5    16     4    1
     6    17     1    1
     7     2    12    1
     8     2    15    2
     9    12    11    1
    10     4    15    2
    11     4     3    1
    12    10    11   ar
    13    10     9   ar
    14     1     3    2
    15    11     5   ar
    16     3    18    1
    17     9     8   ar
    18     5     6   ar
    19    18    19   ar
    20    18    20   ar
    21     8     6   ar
    22     6     7    1
    23    19    23   ar
    24    20    21   ar
    25    23    24    1
    26    23    22   ar
    27    21    22   ar
