@<TRIPOS>MOLECULE
3e7w_AMP_A_1.pdb
 23 25 0 0 0
SMALL
GASTEIGER

@<TRIPOS>ATOM
      1  P         15.6460   25.0570   39.4270 P.3   513  AMP513      0.5327
      2  O1P       15.4650   24.6450   40.8390 O.3   513  AMP513     -0.1145
      3  O2P       17.1980   25.1890   39.0170 O.2   513  AMP513     -0.2224
      4  O3P       14.9740   26.4890   39.1380 O.3   513  AMP513     -0.1145
      5  O5'       14.9900   24.0150   38.3920 O.3   513  AMP513     -0.2675
      6  C5'       13.6740   23.5340   38.6720 C.3   513  AMP513      0.1860
      7  C4'       13.3140   22.2980   37.8470 C.3   513  AMP513      0.1823
      8  O4'       14.1420   21.1650   38.1600 O.3   513  AMP513     -0.3135
      9  C3'       11.9010   21.8670   38.2380 C.3   513  AMP513      0.2184
     10  O3'       10.9700   22.6570   37.4940 O.3   513  AMP513     -0.2174
     11  C2'       11.9280   20.4460   37.6800 C.3   513  AMP513      0.2570
     12  O2'       11.8640   20.4940   36.2530 O.3   513  AMP513     -0.2130
     13  C1'       13.3140   19.9840   38.1380 C.3   513  AMP513      0.3186
     14  N9        13.2780   19.4570   39.5240 N.pl3 513  AMP513     -0.1439
     15  C8        13.4470   20.1660   40.6400 C.3   513  AMP513      0.3377
     16  N7        13.4370   19.3510   41.6920 N.2   513  AMP513     -0.2095
     17  C5        13.2610   18.1100   41.2470 C.2   513  AMP513      0.2526
     18  C6        13.1710   16.8640   41.8550 C.2   513  AMP513      0.4393
     19  N6        13.3190   16.7380   43.1710 N.pl3 513  AMP513      0.2180
     20  N1        12.9660   15.7810   41.0900 N.2   513  AMP513      0.0021
     21  C2        12.8570   15.8850   39.7770 C.3   513  AMP513      0.5254
     22  N3        12.9450   17.0530   39.1640 N.2   513  AMP513     -0.0055
     23  C4        13.1470   18.1800   39.8650 C.2   513  AMP513      0.3518
@<TRIPOS>BOND
     1    12    11    1
     2    10     9    1
     3    11    13    1
     4    11     9    1
     5     7     8    1
     6     7     9    1
     7     7     6    1
     8    13     8    1
     9    13    14    1
    10     5     6    1
    11     5     1    1
    12     3     1    2
    13     4     1    1
    14    22    21    1
    15    22    23    2
    16     1     2    1
    17    14    23    1
    18    14    15    1
    19    21    20    1
    20    23    17    1
    21    15    16    1
    22    20    18    2
    23    17    16    2
    24    17    18    1
    25    18    19    1
