@<TRIPOS>MOLECULE
3e7x_AMP_A_1.pdb
 23 25 0 0 0
SMALL
GASTEIGER

@<TRIPOS>ATOM
      1  P         14.6620   42.8230   26.3950 P.3   512  AMP512      0.5327
      2  O1P       14.5920   43.3600   25.0180 O.2   512  AMP512     -0.2224
      3  O2P       16.1730   42.5010   26.8480 O.3   512  AMP512     -0.1145
      4  O3P       13.8380   41.4460   26.5420 O.3   512  AMP512     -0.1145
      5  O5'       14.0870   43.8420   27.5010 O.3   512  AMP512     -0.2675
      6  C5'       12.7410   44.3090   27.3980 C.3   512  AMP512      0.1860
      7  C4'       12.5170   45.4840   28.3500 C.3   512  AMP512      0.1823
      8  O4'       13.3320   46.6210   28.0180 O.3   512  AMP512     -0.3135
      9  C3'       11.0820   46.0040   28.2750 C.3   512  AMP512      0.2184
     10  O3'       10.2320   45.1430   29.0380 O.3   512  AMP512     -0.2174
     11  C2'       11.3070   47.3180   29.0210 C.3   512  AMP512      0.2570
     12  O2'       11.6120   47.0630   30.3950 O.3   512  AMP512     -0.2130
     13  C1'       12.5650   47.8090   28.2980 C.3   512  AMP512      0.3186
     14  N9        12.2050   48.4350   27.0040 N.pl3 512  AMP512     -0.1439
     15  C8        12.1700   47.8280   25.8190 C.3   512  AMP512      0.3377
     16  N7        11.8820   48.7140   24.8690 N.2   512  AMP512     -0.2095
     17  C5        11.7300   49.9010   25.4490 C.2   512  AMP512      0.2526
     18  C6        11.4530   51.1800   24.9810 C.2   512  AMP512      0.4393
     19  N6        11.3160   51.4110   23.6790 N.pl3 512  AMP512      0.2180
     20  N1        11.3700   52.1900   25.8590 N.2   512  AMP512      0.0021
     21  C2        11.5510   51.9800   27.1520 C.3   512  AMP512      0.5254
     22  N3        11.8250   50.7770   27.6300 N.2   512  AMP512     -0.0055
     23  C4        11.9240   49.7220   26.8120 C.2   512  AMP512      0.3518
@<TRIPOS>BOND
     1    19    18    1
     2    16    17    2
     3    16    15    1
     4    18    17    1
     5    18    20    2
     6     2     1    2
     7    17    23    1
     8    15    14    1
     9    20    21    1
    10     1     4    1
    11     1     3    1
    12     1     5    1
    13    23    14    1
    14    23    22    2
    15    14    13    1
    16    21    22    1
    17     6     5    1
    18     6     7    1
    19     8    13    1
    20     8     7    1
    21     9     7    1
    22     9    11    1
    23     9    10    1
    24    13    11    1
    25    11    12    1
