@<TRIPOS>MOLECULE
3e80_HS2_A_1.pdb
 26 27 0 0 0
SMALL
GASTEIGER

@<TRIPOS>ATOM
      1  O35       37.2670  100.0620   10.0980 O.co2 777  HS2777     -0.2371
      2  C27       36.8350   99.2270    9.2700 C.2   777  HS2777      0.4209
      3  O34       35.7460   99.2420    8.6540 O.co2 777  HS2777     -0.2371
      4  C19       37.6590   98.0950    8.9600 C.2   777  HS2777      0.2189
      5  C24       38.9910   98.1990    9.0990 C.2   777  HS2777      0.0528
      6  C17       39.9410   97.1670    8.5510 C.3   777  HS2777      0.2138
      7  O25       40.4700   97.7480    7.3580 O.3   777  HS2777     -0.2152
      8  C12       39.1620   95.8700    8.3050 C.3   777  HS2777      0.2558
      9  O18       39.0010   95.1420    9.5340 O.3   777  HS2777     -0.2132
     10  C13       37.7670   96.0850    7.6780 C.3   777  HS2777      0.3223
     11  O13       36.9520   96.9120    8.5150 O.2   777  HS2777     -0.4439
     12  O3        37.8420   96.7020    6.3940 O.3   777  HS2777     -0.3158
     13  C1        36.8540   96.1950    5.5040 C.3   777  HS2777      0.1803
     14  C4        35.8730   97.3050    5.1390 C.3   777  HS2777      0.2025
     15  O9        35.0800   97.6550    6.2780 O.3   777  HS2777     -0.2188
     16  C3        34.9730   96.8340    4.0030 C.3   777  HS2777      0.1671
     17  N14       34.1380   97.9000    3.4660 N.3   777  HS2777     -0.1827
     18  C7        32.6970   97.9050    3.6440 C.3   777  HS2777      0.2259
     19  C8        32.1320   98.8320    2.5730 C.3   777  HS2777      0.0555
     20  O7        31.9580   96.6790    3.4880 O.3   777  HS2777     -0.2036
     21  C10       35.6420   96.0920    2.8350 C.3   777  HS2777      0.2878
     22  O15       36.2340   96.9550    1.8430 O.3   777  HS2777     -0.1882
     23  O5        36.6350   95.1680    3.3280 O.3   777  HS2777     -0.3246
     24  C2        37.5900   95.6940    4.2590 C.3   777  HS2777      0.1804
     25  C6        38.6940   94.6950    4.6470 C.3   777  HS2777      0.2141
     26  O11       39.0650   93.9490    3.4880 O.3   777  HS2777     -0.2176
@<TRIPOS>BOND
     1    22    21    1
     2    19    18    1
     3    21    23    1
     4    21    16    1
     5    23    24    1
     6    17    18    1
     7    17    16    1
     8    26    25    1
     9    20    18    1
    10    16    14    1
    11    24    25    1
    12    24    13    1
    13    14    13    1
    14    14    15    1
    15    13    12    1
    16    12    10    1
    17     7     6    1
    18    10     8    1
    19    10    11    1
    20     8     6    1
    21     8     9    1
    22    11     4    1
    23     6     5    1
    24     3     2   ar
    25     4     5    2
    26     4     2    1
    27     2     1   ar
