@<TRIPOS>MOLECULE
3e80_RAM_A_1.pdb
 11 11 0 0 0
SMALL
GASTEIGER

@<TRIPOS>ATOM
      1  C1        58.4460  112.1430   10.1820 C.3   773  RAM773      0.3023
      2  C2        57.9620  112.7510   11.5050 C.3   773  RAM773      0.2434
      3  C3        56.4560  112.6070   11.6400 C.3   773  RAM773      0.2198
      4  C4        56.1260  111.1330   11.5730 C.3   773  RAM773      0.2118
      5  C5        56.5110  110.5990   10.1970 C.3   773  RAM773      0.1509
      6  C6        56.4700  109.0750   10.1930 C.3   773  RAM773      0.0350
      7  O1        58.2580  113.0850    9.1400 O.3   773  RAM773     -0.1869
      8  O2        58.5930  112.1140   12.5970 O.3   773  RAM773     -0.2148
      9  O3        56.0330  113.1280   12.8790 O.3   773  RAM773     -0.2174
     10  O4        54.7430  111.0300   11.7680 O.3   773  RAM773     -0.2177
     11  O5        57.8390  110.9060    9.8350 O.3   773  RAM773     -0.3264
@<TRIPOS>BOND
     1     7     1    1
     2    11     1    1
     3    11     5    1
     4     1     2    1
     5     6     5    1
     6     5     4    1
     7     2     3    1
     8     2     8    1
     9     4     3    1
    10     4    10    1
    11     3     9    1
