@<TRIPOS>MOLECULE
3e81_SLB_A_1.pdb
 21 21 0 0 0
SMALL
GASTEIGER

@<TRIPOS>ATOM
      1  C1       -28.5000   20.2250   -3.4890 C.2   171  SLB171      0.4179
      2  C2       -29.2710   21.0650   -2.4920 C.3   171  SLB171      0.3155
      3  C3       -28.9460   20.6030   -1.0640 C.3   171  SLB171      0.1056
      4  C4       -29.9160   21.2590   -0.0580 C.3   171  SLB171      0.1798
      5  C5       -31.3940   21.2690   -0.5250 C.3   171  SLB171      0.1554
      6  C6       -31.4650   21.7450   -1.9850 C.3   171  SLB171      0.1734
      7  C7       -32.8760   21.7710   -2.6160 C.3   171  SLB171      0.2135
      8  C8       -32.7960   22.6730   -3.8930 C.3   171  SLB171      0.2173
      9  C9       -33.9880   22.5670   -4.8770 C.3   171  SLB171      0.2175
     10  C10      -33.2390   21.8870    1.0960 C.2   171  SLB171      0.2420
     11  C11      -34.0140   22.9660    1.8630 C.3   171  SLB171      0.0964
     12  N5       -32.1020   22.2720    0.2700 N.am  171  SLB171     -0.2020
     13  O1A      -29.0760   19.0090   -3.8510 O.co2 171  SLB171     -0.2401
     14  O1B      -27.6320   20.7100   -4.1410 O.co2 171  SLB171     -0.2401
     15  O2       -28.8850   22.4240   -2.6390 O.3   171  SLB171     -0.1830
     16  O4       -29.7670   20.6190    1.1900 O.3   171  SLB171     -0.2210
     17  O6       -30.6480   20.8910   -2.7920 O.3   171  SLB171     -0.3220
     18  O7       -33.2090   20.4270   -2.9010 O.3   171  SLB171     -0.2176
     19  O8       -32.6600   24.0130   -3.5060 O.3   171  SLB171     -0.2175
     20  O9       -34.0480   23.5830   -5.8810 O.3   171  SLB171     -0.2175
     21  O10      -33.4970   20.7360    1.2450 O.2   171  SLB171     -0.2733
@<TRIPOS>BOND
     1    20     9    1
     2     9     8    1
     3    14     1   ar
     4     8    19    1
     5     8     7    1
     6    13     1   ar
     7     1     2    1
     8    18     7    1
     9    17     2    1
    10    17     6    1
    11    15     2    1
    12     7     6    1
    13     2     3    1
    14     6     5    1
    15     3     4    1
    16     5     4    1
    17     5    12    1
    18     4    16    1
    19    12    10   am
    20    10    21    2
    21    10    11    1
