@<TRIPOS>MOLECULE
3e85_BSU_A_1.pdb
 16 17 0 0 0
SMALL
GASTEIGER

@<TRIPOS>ATOM
      1  N7        20.0150   12.6880   60.7570 N.am  158  BSU158     -0.1607
      2  C8        20.6020   11.5100   60.8660 C.2   158  BSU158      0.3477
      3  N9        19.9630   10.8630   61.8650 N.am  158  BSU158     -0.1607
      4  O11       21.5090   11.0880   60.1930 O.2   158  BSU158     -0.2484
      5  C5        20.1010   13.8410   59.9490 C.ar  158  BSU158      0.0750
      6  C4        19.5200   15.0000   60.3920 C.ar  158  BSU158      0.0167
      7  C3        19.5260   16.1530   59.6680 C.ar  158  BSU158      0.0013
      8  C2        20.1360   16.1310   58.4610 C.ar  158  BSU158      0.0001
      9  C1        20.7300   14.9600   58.0100 C.ar  158  BSU158      0.0013
     10  C6        20.6930   13.7900   58.7530 C.ar  158  BSU158      0.0167
     11  C10       20.0470    9.6360   62.5500 C.ar  158  BSU158      0.0750
     12  C16       19.3300    9.6520   63.7120 C.ar  158  BSU158      0.0167
     13  C15       19.3030    8.5610   64.5240 C.ar  158  BSU158      0.0013
     14  C14       19.9860    7.4360   64.1890 C.ar  158  BSU158      0.0001
     15  C13       20.6990    7.4070   63.0340 C.ar  158  BSU158      0.0013
     16  C12       20.7440    8.5250   62.2070 C.ar  158  BSU158      0.0167
@<TRIPOS>BOND
     1     9     8   ar
     2     9    10   ar
     3     8     7   ar
     4    10     5   ar
     5     7     6   ar
     6     5     6   ar
     7     5     1    1
     8     4     2    2
     9     1     2   am
    10     2     3   am
    11     3    11    1
    12    16    11   ar
    13    16    15   ar
    14    11    12   ar
    15    15    14   ar
    16    12    13   ar
    17    14    13   ar
