@<TRIPOS>MOLECULE
3e87_G95_A_1.pdb
 26 29 0 0 0
SMALL
GASTEIGER

@<TRIPOS>ATOM
      1  C1        36.4090   -9.5340    5.5740 C.3     1  G951        0.1354
      2  C2        35.4420  -10.6930    5.6570 C.3     1  G951        0.1368
      3  C3        35.8400  -12.8920    6.5470 C.2     1  G951        0.2711
      4  C4        35.8220  -13.7090    7.7110 C.ar    1  G951        0.0845
      5  C5        35.7100  -13.4360    9.0570 C.ar    1  G951        0.0116
      6  C9        36.1840  -17.5200   10.8140 C.2     1  G951        0.0226
      7  C10       36.2900  -18.8470   11.1590 C.2     1  G951        0.1096
      8  C8        35.9780  -17.1560    9.5030 C.2     1  G951        0.0170
      9  C7        35.8830  -15.7720    9.0920 C.ar    1  G951        0.0303
     10  C6        35.7490  -14.6210    9.8440 C.ar    1  G951        0.0072
     11  S1        35.9680  -15.3870    7.4240 S.2     1  G951       -0.0823
     12  O1        35.9380  -13.3890    5.4310 O.2     1  G951       -0.2678
     13  N1        36.2420   -8.9350    4.2300 N.3     1  G951       -0.1291
     14  C12       35.7000  -19.6480    6.8660 C.2     1  G951        0.1103
     15  C13       35.6900  -18.3150    7.1870 C.2     1  G951        0.0315
     16  C14       35.8890  -18.1950    8.5880 C.2     1  G951        0.0645
     17  C15       34.0320  -10.2110    5.7220 C.ar    1  G951       -0.0011
     18  N2        35.7440  -11.5420    6.7830 N.am    1  G951       -0.1970
     19  C16       33.1410  -10.6560    4.7720 C.ar    1  G951       -0.0026
     20  C17       31.8340  -10.2320    4.8020 C.ar    1  G951       -0.0003
     21  C18       31.4190   -9.3630    5.7800 C.ar    1  G951       -0.0000
     22  N3        36.2130  -19.8800   10.3200 N.2     1  G951       -0.1922
     23  C19       32.3050   -8.9150    6.7320 C.ar    1  G951       -0.0003
     24  C20       33.6120   -9.3400    6.7040 C.ar    1  G951       -0.0026
     25  C11       36.0100  -19.4840    9.0650 C.1     1  G951        0.0353
     26  N4        35.8970  -20.3480    8.0170 N.2     1  G951       -0.1922
@<TRIPOS>BOND
     1    13     1    1
     2    19    20   ar
     3    19    17   ar
     4    20    21   ar
     5    12     3    2
     6     1     2    1
     7     2    17    1
     8     2    18    1
     9    17    24   ar
    10    21    23   ar
    11     3    18   am
    12     3     4    1
    13    24    23   ar
    14    14    15    2
    15    14    26    1
    16    15    16    1
    17    11     4   ar
    18    11     9   ar
    19     4     5   ar
    20    26    25    2
    21    16    25    1
    22    16     8    2
    23     5    10   ar
    24    25    22    2
    25     9     8    1
    26     9    10   ar
    27     8     6    1
    28    22     7    1
    29     6     7    2
