@<TRIPOS>MOLECULE
3e88_G96_A_1.pdb
 34 37 0 0 0
SMALL
GASTEIGER

@<TRIPOS>ATOM
      1  N1       -22.0460   51.0410  -11.8790 N.ar    1  G961       -0.0428
      2  N3       -22.9050   53.1810   -9.1600 N.pl3   1  G961       -0.1018
      3  C4       -27.3750   43.6210   -6.9840 C.ar    1  G961       -0.0000
      4  C5       -26.4210   43.8850   -7.9670 C.ar    1  G961       -0.0003
      5  C6       -25.0910   43.5310   -7.7570 C.ar    1  G961       -0.0042
      6  C7       -23.0090   44.8490   -5.3080 C.3     1  G961        0.2273
      7  C8       -22.5660   52.6180  -10.3450 C.ar    1  G961        0.2350
      8  C10      -22.6840   46.6600   -6.9420 C.2     1  G961        0.2796
      9  C13      -23.3750   49.8290   -5.5080 C.1     1  G961       -0.0274
     10  C15      -22.4800   48.3340   -8.6580 C.2     1  G961        0.0925
     11  C17      -23.5250   50.6640   -4.6690 C.1     1  G961       -0.0550
     12  C20      -25.3260   51.7560   -3.4060 C.3     1  G961        0.0465
     13  C21      -21.9000   48.1770  -11.0650 C.3     1  G961        0.0981
     14  C22      -23.1220   47.5690  -11.7210 C.3     1  G961        0.0236
     15  C24      -23.2820   42.5300   -6.3250 C.3     1  G961        0.0492
     16  O3       -23.3360   50.9800   -2.3070 O.3     1  G961       -0.2124
     17  C18      -23.8160   51.5600   -3.5250 C.3     1  G961        0.1797
     18  C19      -23.1100   52.8990   -3.7190 C.3     1  G961        0.0465
     19  C12      -23.0670   48.9400   -6.3930 C.2     1  G961        0.2070
     20  N4       -23.0030   47.6290   -6.0410 N.2     1  G961       -0.3565
     21  C14      -22.8070   49.3120   -7.7150 C.2     1  G961        0.1842
     22  N6       -22.7950   50.5030   -8.3460 N.2     1  G961       -0.3803
     23  C16      -22.4680   50.2270   -9.6230 C.2     1  G961        0.2113
     24  N5       -22.2700   48.9140   -9.8470 N.pl3   1  G961       -0.2589
     25  C9       -22.3660   51.2550  -10.5840 C.ar    1  G961        0.2041
     26  O2       -22.0670   52.3780  -12.4200 O.2     1  G961       -0.2400
     27  N2       -22.3980   53.3830  -11.4450 N.ar    1  G961       -0.0297
     28  C11      -22.4190   47.0040   -8.2620 C.2     1  G961        0.0892
     29  O1       -22.6170   45.3310   -6.5950 O.2     1  G961       -0.4501
     30  C23      -22.7060   43.3520   -5.1720 C.3     1  G961        0.1397
     31  N7       -21.2700   43.1580   -5.1450 N.3     1  G961       -0.1286
     32  C1       -24.7220   42.9070   -6.5660 C.ar    1  G961       -0.0206
     33  C3       -27.0040   43.0010   -5.7960 C.ar    1  G961       -0.0003
     34  C2       -25.6750   42.6470   -5.5840 C.ar    1  G961       -0.0042
@<TRIPOS>BOND
     1    26     1   ar
     2    26    27   ar
     3     1    25   ar
     4    14    13    1
     5    27     7   ar
     6    13    24    1
     7    25     7   ar
     8    25    23    1
     9     7     2    1
    10    24    23    1
    11    24    10    1
    12    23    22    2
    13    10    28    2
    14    10    21    1
    15    22    21    2
    16    28     8    1
    17     4     5   ar
    18     4     3   ar
    19     5    32   ar
    20    21    19    1
    21     3    33   ar
    22     8    29    1
    23     8    20    2
    24    29     6    1
    25    32    15    1
    26    32    34   ar
    27    19    20    2
    28    19     9    1
    29    15    30    1
    30    33    34   ar
    31     9    11    3
    32     6    30    1
    33    30    31    1
    34    11    17    1
    35    18    17    1
    36    17    12    1
    37    17    16    1
