@<TRIPOS>MOLECULE
3e8c_G96_A_1.pdb
 34 37 0 0 0
SMALL
GASTEIGER

@<TRIPOS>ATOM
      1  N1        13.6960   -7.5220   23.1810 N.ar  351  G96351     -0.0428
      2  N3        10.9190   -5.4950   22.2570 N.pl3 351  G96351     -0.1018
      3  C4         8.0360  -15.7310   17.5440 C.ar  351  G96351     -0.0000
      4  C5         8.9960  -15.0210   18.2560 C.ar  351  G96351     -0.0003
      5  C6         9.0850  -15.1630   19.6360 C.ar  351  G96351     -0.0042
      6  C7         7.3860  -13.8160   22.0740 C.3   351  G96351      0.2273
      7  C8        12.1410   -5.9860   22.6060 C.ar  351  G96351      0.2350
      8  C10        8.9670  -12.0460   22.5040 C.2   351  G96351      0.2796
      9  C13        7.3580   -9.0570   21.6680 C.1   351  G96351     -0.0274
     10  C15       10.5920  -10.2940   22.7380 C.2   351  G96351      0.0925
     11  C17        6.4130   -8.4160   21.3560 C.1   351  G96351     -0.0550
     12  C20        5.0570   -7.5920   19.4970 C.3   351  G96351      0.0465
     13  C21       12.9910  -10.3030   23.4170 C.3   351  G96351      0.0981
     14  C22       13.7760  -10.7910   22.2180 C.3   351  G96351      0.0236
     15  C24        8.2830  -16.1500   21.8190 C.3   351  G96351      0.0492
     16  O3         4.0350   -8.1920   21.5960 O.3   351  G96351     -0.2124
     17  C18        5.2190   -7.6210   21.0130 C.3   351  G96351      0.1797
     18  C19        5.4220   -6.2150   21.5560 C.3   351  G96351      0.0465
     19  C12        8.3260   -9.8280   22.0330 C.2   351  G96351      0.2070
     20  N4         8.0400  -11.1450   22.1250 N.2   351  G96351     -0.3565
     21  C14        9.6180   -9.3670   22.3390 C.2   351  G96351      0.1842
     22  N6        10.1950   -8.1380   22.3450 N.2   351  G96351     -0.3803
     23  C16       11.4640   -8.3660   22.7380 C.2   351  G96351      0.2113
     24  N5        11.7410   -9.6540   22.9800 N.pl3 351  G96351     -0.2589
     25  C9        12.4020   -7.3290   22.8530 C.ar  351  G96351      0.2041
     26  O2        14.1940   -6.1750   23.1390 O.2   351  G96351     -0.2400
     27  N2        13.2180   -5.1940   22.7750 N.ar  351  G96351     -0.0297
     28  C11       10.2610  -11.6410   22.8170 C.2   351  G96351      0.0892
     29  O1         8.6350  -13.3630   22.5800 O.2   351  G96351     -0.4501
     30  C23        7.1970  -15.2780   22.4490 C.3   351  G96351      0.1397
     31  N7         7.2150  -15.3670   23.9000 N.3   351  G96351     -0.1286
     32  C1         8.2090  -16.0120   20.3120 C.ar  351  G96351     -0.0206
     33  C3         7.1630  -16.5780   18.2150 C.ar  351  G96351     -0.0003
     34  C2         7.2430  -16.7140   19.6000 C.ar  351  G96351     -0.0042
@<TRIPOS>BOND
     1     3    33   ar
     2     3     4   ar
     3    33    34   ar
     4     4     5   ar
     5    12    17    1
     6    34    32   ar
     7     5    32   ar
     8    32    15    1
     9    17    11    1
    10    17    18    1
    11    17    16    1
    12    11     9    3
    13     9    19    1
    14    15    30    1
    15    19    20    2
    16    19    21    1
    17     6    30    1
    18     6    29    1
    19    20     8    2
    20    14    13    1
    21     2     7    1
    22    21    22    2
    23    21    10    1
    24    22    23    2
    25    30    31    1
    26     8    29    1
    27     8    28    1
    28     7    27   ar
    29     7    25   ar
    30    23    25    1
    31    23    24    1
    32    10    28    2
    33    10    24    1
    34    27    26   ar
    35    25     1   ar
    36    24    13    1
    37    26     1   ar
