@<TRIPOS>MOLECULE
3e8d_G98_A_1.pdb
 34 37 0 0 0
SMALL
GASTEIGER

@<TRIPOS>ATOM
      1  N1        30.0240  -23.5210   -6.0190 N.2     1  G981       -0.3565
      2  N3        32.4000  -22.3260   -8.5640 N.2     1  G981       -0.3803
      3  C4        32.2170  -22.7750   -9.8180 C.2     1  G981        0.2113
      4  C5        31.4190  -22.8940   -7.8340 C.2     1  G981        0.1842
      5  C6        30.6540  -23.6870   -8.6970 C.2     1  G981        0.0925
      6  C7        30.6230  -24.3110  -11.1110 C.3     1  G981        0.0981
      7  C8        29.5490  -23.5040  -11.8000 C.3     1  G981        0.0236
      8  C10       34.1690  -21.5100  -10.6990 C.ar    1  G981        0.2350
      9  C13       32.9710  -20.7350   -3.7140 C.3     1  G981        0.1797
     10  C15       34.4930  -20.7830   -3.8210 C.3     1  G981        0.0465
     11  C17       26.3650  -26.4920   -5.9730 C.3     1  G981        0.0688
     12  C20       26.0350  -24.9530   -9.0340 C.ar    1  G981       -0.0008
     13  C21       25.1890  -24.0750   -9.6990 C.ar    1  G981       -0.0002
     14  C22       24.6190  -23.0040   -9.0180 C.ar    1  G981       -0.0000
     15  C24       25.7330  -23.6850   -7.0000 C.ar    1  G981       -0.0008
     16  O2        32.5850  -21.2980   -2.4540 O.3     1  G981       -0.2124
     17  C14       32.4780  -19.2920   -3.7690 C.3     1  G981        0.0465
     18  C12       32.3550  -21.5140   -4.8090 C.1     1  G981       -0.0550
     19  C11       31.7600  -22.1090   -5.6440 C.1     1  G981       -0.0274
     20  C3        31.0870  -22.8250   -6.4800 C.2     1  G981        0.2070
     21  C1        29.2620  -24.2950   -6.8270 C.2     1  G981        0.2797
     22  O3        28.2070  -24.9660   -6.2530 O.2     1  G981       -0.4508
     23  C16       27.2010  -25.6910   -6.9650 C.3     1  G981        0.1923
     24  C19       26.3070  -24.7560   -7.6830 C.ar    1  G981        0.0173
     25  C23       24.8870  -22.8050   -7.6680 C.ar    1  G981       -0.0002
     26  C18       27.0980  -27.7560   -5.5400 C.3     1  G981        0.1134
     27  N7        26.5430  -28.2370   -4.2850 N.3     1  G981       -0.1312
     28  C2        29.5690  -24.3930   -8.1840 C.2     1  G981        0.0892
     29  N2        31.1610  -23.6030   -9.9400 N.pl3   1  G981       -0.2589
     30  C9        33.0770  -22.3650  -10.8530 C.ar    1  G981        0.2041
     31  N6        34.5690  -20.9240   -9.5440 N.pl3   1  G981       -0.1018
     32  N5        34.8330  -21.2840  -11.8490 N.ar    1  G981       -0.0297
     33  O1        34.0610  -22.0820  -12.7590 O.2     1  G981       -0.2400
     34  N4        32.9570  -22.7640  -12.1360 N.ar    1  G981       -0.0428
@<TRIPOS>BOND
     1    33    34   ar
     2    33    32   ar
     3    34    30   ar
     4    32     8   ar
     5     7     6    1
     6     6    29    1
     7    30     8   ar
     8    30     3    1
     9     8    31    1
    10    29     3    1
    11    29     5    1
    12     3     2    2
    13    13    12   ar
    14    13    14   ar
    15    12    24   ar
    16    14    25   ar
    17     5    28    2
    18     5     4    1
    19     2     4    2
    20    28    21    1
    21     4    20    1
    22    24    15   ar
    23    24    23    1
    24    25    15   ar
    25    23    22    1
    26    23    11    1
    27    21    22    1
    28    21     1    2
    29    20     1    2
    30    20    19    1
    31    11    26    1
    32    19    18    3
    33    26    27    1
    34    18     9    1
    35    10     9    1
    36    17     9    1
    37     9    16    1
