@<TRIPOS>MOLECULE
3e8e_G98_A_1.pdb
 34 37 0 0 0
SMALL
GASTEIGER

@<TRIPOS>ATOM
      1  N1         7.9410  -11.6490   22.0150 N.2   351  G98351     -0.3565
      2  N3        10.1310   -8.6530   22.0860 N.2   351  G98351     -0.3803
      3  C4        11.4000   -8.8640   22.4670 C.2   351  G98351      0.2113
      4  C5         9.5470   -9.8760   22.1290 C.2   351  G98351      0.1842
      5  C6        10.5150  -10.7920   22.5390 C.2   351  G98351      0.0925
      6  C7        12.9210  -10.7860   23.1850 C.3   351  G98351      0.0981
      7  C8        13.5260  -11.5830   22.0530 C.3   351  G98351      0.0236
      8  C10       12.2220   -6.4040   22.3140 C.ar  351  G98351      0.2350
      9  C13        5.1930   -8.0880   20.9060 C.3   351  G98351      0.1797
     10  C15        5.1980   -7.7480   19.4230 C.3   351  G98351      0.0465
     11  C17        9.6610  -16.0250   22.6820 C.3   351  G98351      0.0688
     12  C20        7.2450  -15.9520   20.6660 C.ar  351  G98351     -0.0008
     13  C21        6.6240  -16.4390   19.5180 C.ar  351  G98351     -0.0002
     14  C22        7.2720  -16.3750   18.2890 C.ar  351  G98351     -0.0000
     15  C24        9.1760  -15.3320   19.3510 C.ar  351  G98351     -0.0008
     16  O2         3.9900   -8.8000   21.2450 O.3   351  G98351     -0.2124
     17  C14        5.2830   -6.8210   21.7510 C.3   351  G98351      0.0465
     18  C12        6.3630   -8.9150   21.2160 C.1   351  G98351     -0.0550
     19  C11        7.2930   -9.5780   21.5020 C.1   351  G98351     -0.0274
     20  C3         8.2500  -10.3410   21.8690 C.2   351  G98351      0.2070
     21  C1         8.8600  -12.5550   22.4020 C.2   351  G98351      0.2797
     22  O3         8.4930  -13.8770   22.5140 O.2   351  G98351     -0.4508
     23  C16        9.2410  -14.8610   21.7840 C.3   351  G98351      0.1923
     24  C19        8.5270  -15.3890   20.5870 C.ar  351  G98351      0.0173
     25  C23        8.5460  -15.8200   18.2140 C.ar  351  G98351     -0.0002
     26  C18        8.5290  -16.7030   23.4360 C.3   351  G98351      0.1134
     27  N7         7.5600  -15.7210   23.8860 N.3   351  G98351     -0.1312
     28  C2        10.1690  -12.1370   22.6720 C.2   351  G98351      0.0892
     29  N2        11.6750  -10.1440   22.7350 N.pl3 351  G98351     -0.2589
     30  C9        12.4240   -7.7720   22.5140 C.ar  351  G98351      0.2041
     31  N6        11.0270   -5.7770   22.1100 N.pl3 351  G98351     -0.1018
     32  N5        13.3740   -5.6960   22.3800 N.ar  351  G98351     -0.0297
     33  O1        14.3190   -6.7580   22.6050 O.2   351  G98351     -0.2400
     34  N4        13.7350   -8.0510   22.6680 N.ar  351  G98351     -0.0428
@<TRIPOS>BOND
     1    25    14   ar
     2    25    15   ar
     3    14    13   ar
     4    15    24   ar
     5    10     9    1
     6    13    12   ar
     7    24    12   ar
     8    24    23    1
     9     9    18    1
    10     9    16    1
    11     9    17    1
    12    18    19    3
    13    19    20    1
    14    23    22    1
    15    23    11    1
    16    20     1    2
    17    20     4    1
    18     1    21    2
    19     7     6    1
    20     2     4    2
    21     2     3    2
    22    31     8    1
    23     4     5    1
    24     8    32   ar
    25     8    30   ar
    26    32    33   ar
    27    21    22    1
    28    21    28    1
    29     3    30    1
    30     3    29    1
    31    30    34   ar
    32     5    28    2
    33     5    29    1
    34    33    34   ar
    35    11    26    1
    36    29     6    1
    37    26    27    1
