@<TRIPOS>MOLECULE
3e8n_VRA_A_1.pdb
 31 33 0 0 0
SMALL
GASTEIGER

@<TRIPOS>ATOM
      1  C1        34.3400   28.4550   42.8530 C.ar  1001  VRA1001     0.1556
      2  C2        33.9640   27.6190   41.7010 C.ar  1001  VRA1001     0.0980
      3  C3        35.0170   26.7800   41.0330 C.ar  1001  VRA1001     0.0192
      4  C4        36.3140   26.7470   41.4720 C.ar  1001  VRA1001     0.0073
      5  C5        36.6820   27.5860   42.6230 C.ar  1001  VRA1001     0.0324
      6  C6        35.7010   28.4170   43.3120 C.ar  1001  VRA1001     0.0368
      7  N7        32.5690   27.7130   41.2860 N.pl3 1001  VRA1001    -0.2064
      8  C8        31.9180   26.8200   40.3340 C.ar  1001  VRA1001     0.1198
      9  C9        31.1680   27.4140   39.2350 C.ar  1001  VRA1001     0.1419
     10  C10       30.5010   26.5550   38.2800 C.ar  1001  VRA1001     0.1590
     11  C11       30.5930   25.1100   38.4110 C.ar  1001  VRA1001     0.0703
     12  C12       31.3470   24.5320   39.5030 C.ar  1001  VRA1001     0.1718
     13  C13       31.9980   25.3660   40.4520 C.ar  1001  VRA1001     0.1840
     14  I14       38.7220   27.5710   43.3100 I     1001  VRA1001    -0.0424
     15  F15       33.4180   29.2410   43.4820 F     1001  VRA1001    -0.2028
     16  F16       32.7030   24.7620   41.4790 F     1001  VRA1001    -0.2004
     17  F17       31.4410   23.1710   39.6250 F     1001  VRA1001    -0.2016
     18  N18       31.0760   28.8420   39.0550 N.pl3 1001  VRA1001    -0.0963
     19  S19       30.1930   29.8390   39.9810 S.O2  1001  VRA1001     0.0700
     20  O20       30.6300   31.3320   39.6600 O.2   1001  VRA1001    -0.1530
     21  O21       30.4530   29.5450   41.4980 O.2   1001  VRA1001    -0.1530
     22  C22       28.4240   29.6110   39.6080 C.3   1001  VRA1001     0.1331
     23  C23       27.7540   28.4420   40.3080 C.3   1001  VRA1001     0.0257
     24  C24       27.4760   29.8540   40.7580 C.3   1001  VRA1001     0.0257
     25  C25       27.9190   29.9540   38.1600 C.3   1001  VRA1001     0.0594
     26  C26       28.1580   31.4640   37.8000 C.3   1001  VRA1001     0.1865
     27  C27       27.6620   31.7600   36.3580 C.3   1001  VRA1001     0.2148
     28  O28       28.5810   32.6570   35.6930 O.3   1001  VRA1001    -0.2176
     29  O29       27.4440   32.3130   38.7240 O.3   1001  VRA1001    -0.2203
     30  O30       29.7570   27.1530   37.2030 O.3   1001  VRA1001    -0.4699
     31  C31       28.5150   26.4590   36.9720 C.3   1001  VRA1001     0.2525
@<TRIPOS>BOND
     1    28    27    1
     2    27    26    1
     3    31    30    1
     4    30    10    1
     5    26    25    1
     6    26    29    1
     7    25    22    1
     8    10    11   ar
     9    10     9   ar
    10    11    12   ar
    11    18     9    1
    12    18    19    1
    13     9     8   ar
    14    12    17    1
    15    12    13   ar
    16    22    19    1
    17    22    23    1
    18    22    24    1
    19    20    19    2
    20    19    21    2
    21    23    24    1
    22     8    13   ar
    23     8     7    1
    24    13    16    1
    25     3     4   ar
    26     3     2   ar
    27     7     2    1
    28     4     5   ar
    29     2     1   ar
    30     5    14    1
    31     5     6   ar
    32     1     6   ar
    33     1    15    1
