@<TRIPOS>MOLECULE
3e8n_ATP_A_1.pdb
 31 33 0 0 0
SMALL
GASTEIGER

@<TRIPOS>ATOM
      1  PG        28.9490   36.1820   37.3910 P.3   600  ATP600      0.5373
      2  O1G       27.6660   36.8920   37.0380 O.3   600  ATP600     -0.1143
      3  O2G       29.7060   35.6790   36.1840 O.2   600  ATP600     -0.2221
      4  O3G       28.7010   35.1240   38.4050 O.3   600  ATP600     -0.1143
      5  PB        30.9900   37.2220   39.1370 P.3   600  ATP600      0.2277
      6  O1B       32.0120   36.2550   38.6450 O.2   600  ATP600     -0.5168
      7  O2B       31.4040   38.6130   39.4740 O.3   600  ATP600     -0.4368
      8  O3B       29.8220   37.3680   38.0590 O.3   600  ATP600     -0.2258
      9  PA        30.8650   35.7390   41.5890 P.3   600  ATP600      0.2189
     10  O1A       29.7530   35.3550   42.5280 O.3   600  ATP600     -0.4371
     11  O2A       31.7010   34.6350   41.0010 O.2   600  ATP600     -0.5170
     12  O3A       30.2190   36.6030   40.3970 O.3   600  ATP600     -0.2700
     13  O5'       31.8180   36.7490   42.3820 O.3   600  ATP600     -0.3112
     14  C5'       31.3890   38.0500   42.7780 C.3   600  ATP600      0.1813
     15  C4'       32.5780   38.9500   43.1330 C.3   600  ATP600      0.1821
     16  O4'       33.1990   38.4590   44.3330 O.3   600  ATP600     -0.3135
     17  C3'       33.6980   38.9950   42.0770 C.3   600  ATP600      0.2184
     18  O3'       33.5510   40.0550   41.1150 O.3   600  ATP600     -0.2174
     19  C2'       34.9760   39.0930   42.8900 C.3   600  ATP600      0.2570
     20  O2'       35.4880   40.4150   42.9010 O.3   600  ATP600     -0.2130
     21  C1'       34.6220   38.6360   44.2910 C.3   600  ATP600      0.3186
     22  N9        35.3110   37.3530   44.6250 N.pl3 600  ATP600     -0.1439
     23  C8        34.9460   36.1170   44.2210 C.3   600  ATP600      0.3377
     24  N7        35.7980   35.1820   44.7000 N.2   600  ATP600     -0.2095
     25  C5        36.7300   35.7980   45.4180 C.2   600  ATP600      0.2526
     26  C6        37.9470   35.4030   46.2080 C.2   600  ATP600      0.4393
     27  N6        38.3230   34.0980   46.3140 N.pl3 600  ATP600      0.2180
     28  N1        38.6620   36.3900   46.8180 N.2   600  ATP600      0.0021
     29  C2        38.3240   37.6980   46.7380 C.3   600  ATP600      0.5254
     30  N3        37.2320   38.1110   46.0400 N.2   600  ATP600     -0.0055
     31  C4        36.4220   37.2410   45.3690 C.2   600  ATP600      0.3518
@<TRIPOS>BOND
     1     3     1    2
     2     2     1    1
     3     1     8    1
     4     1     4    1
     5     8     5    1
     6     6     5    2
     7     5     7    1
     8     5    12    1
     9    12     9    1
    10    11     9    2
    11    18    17    1
    12     9    13    1
    13     9    10    1
    14    17    19    1
    15    17    15    1
    16    13    14    1
    17    14    15    1
    18    19    20    1
    19    19    21    1
    20    15    16    1
    21    23    22    1
    22    23    24    1
    23    21    16    1
    24    21    22    1
    25    22    31    1
    26    24    25    2
    27    31    25    1
    28    31    30    2
    29    25    26    1
    30    30    29    1
    31    26    27    1
    32    26    28    2
    33    29    28    1
