@<TRIPOS>MOLECULE
3e8r_615_A_1.pdb
 35 39 0 0 0
SMALL
GASTEIGER

@<TRIPOS>ATOM
      1  C7         8.1340    8.2190   28.6130 C.ar  486  615486      0.1390
      2  C27        5.0770    3.3170   31.4650 C.ar  486  615486      0.0001
      3  C17       13.4820    5.7740   30.2850 C.2   486  615486     -0.0041
      4  C1         4.9560    7.3490   24.4140 C.2   486  615486      0.2605
      5  C8         9.0120    7.4780   27.7950 C.ar  486  615486      0.0366
      6  N2         5.7360   11.6830   24.3030 N.am  486  615486     -0.2030
      7  O2         7.6880   10.5900   23.9850 O.2   486  615486     -0.5396
      8  O1         3.7850    7.6780   24.5340 O.2   486  615486     -0.2717
      9  C3         6.4560   10.6400   23.8480 C.2   486  615486      0.0869
     10  C28        6.2520    4.0810   31.3460 C.ar  486  615486      0.0025
     11  C26        5.1380    1.9240   31.3310 C.ar  486  615486      0.0000
     12  N1         9.9050    3.6390   30.8550 N.2   486  615486     -0.4059
     13  C2         7.3150    7.6820   24.3630 C.3   486  615486      0.0354
     14  O3         8.5130    8.4480   29.9020 O.3   486  615486     -0.4706
     15  C4         7.5830    7.8550   25.8490 C.ar  486  615486     -0.0215
     16  C5         6.6790    8.5770   26.6570 C.ar  486  615486     -0.0011
     17  C6         6.9650    8.7670   28.0320 C.ar  486  615486      0.0366
     18  C9         8.7430    7.2910   26.4290 C.ar  486  615486     -0.0011
     19  C10        9.5920    7.9320   30.6490 C.3   486  615486      0.2321
     20  C11        9.7830    6.4370   30.6740 C.2   486  615486      0.0259
     21  C12        8.7160    4.2800   30.9370 C.2   486  615486      0.1308
     22  C13        8.6270    5.6740   30.8560 C.2   486  615486      0.0314
     23  C14       11.0430    4.3500   30.6770 C.2   486  615486      0.1131
     24  C15       11.0380    5.7740   30.5760 C.2   486  615486      0.0253
     25  C16       12.2590    6.4740   30.3830 C.2   486  615486      0.0017
     26  C18       13.4900    4.3720   30.4020 C.2   486  615486     -0.0187
     27  C19       12.2820    3.6720   30.5950 C.3   486  615486      0.0849
     28  C20        7.5000    3.4580   31.0980 C.ar  486  615486      0.0296
     29  C21        5.7290    9.6180   23.0260 C.3   486  615486      0.0543
     30  C22        6.0180    8.2850   23.8760 C.3   486  615486      0.0820
     31  C23        5.5130    8.2540   22.4920 C.3   486  615486      0.0162
     32  O4         6.4780   12.6700   25.0080 O.3   486  615486     -0.4026
     33  N3         5.3990    6.1410   24.7730 N.am  486  615486     -0.0878
     34  C24        7.5380    2.0500   30.9830 C.ar  486  615486      0.0025
     35  C25        6.3650    1.2870   31.1050 C.ar  486  615486      0.0001
@<TRIPOS>BOND
     1    31    29    1
     2    31    30    1
     3    29     9    1
     4    29    30    1
     5     9     7    2
     6     9     6   am
     7    30    13    1
     8    30     4    1
     9     6    32    1
    10    13    15    1
    11     4     8    2
    12     4    33   am
    13    15    18   ar
    14    15    16   ar
    15    18     5   ar
    16    16    17   ar
    17     5     1   ar
    18    17     1   ar
    19     1    14    1
    20    14    19    1
    21     3    25    1
    22     3    26    2
    23    25    24    2
    24    26    27    1
    25    24    20    1
    26    24    23    1
    27    27    23    1
    28    19    20    1
    29    20    22    2
    30    23    12    2
    31    12    21    2
    32    22    21    1
    33    21    28    1
    34    34    28   ar
    35    34    35   ar
    36    28    10   ar
    37    35    11   ar
    38    11     2   ar
    39    10     2   ar
