@<TRIPOS>MOLECULE
3e8r_INN_A_1.pdb
 29 28 0 0 0
SMALL
GASTEIGER

@<TRIPOS>ATOM
      1  C0         5.9740    9.0270   23.8690 C.3     4  INN4        0.0603
      2  C          6.5990   10.4270   23.8930 C.2     4  INN4        0.0873
      3  O          7.6170   10.6960   23.2290 O.2     4  INN4       -0.5395
      4  N          5.9950   11.2920   24.7070 N.am    4  INN4       -0.2030
      5  O4         6.4700   12.6330   24.6380 O.3     4  INN4       -0.4026
      6  C4         5.8930    6.6250   24.6950 C.2     4  INN4        0.2417
      7  O1         4.7030    6.3430   24.8000 O.2     4  INN4       -0.2733
      8  CA         6.3590    8.0650   25.0310 C.3     4  INN4        0.0845
      9  CB         7.8620    8.1050   25.4460 C.3     4  INN4        0.0095
     10  C1         8.2380    8.2250   26.9490 C.3     4  INN4        0.0005
     11  C2         9.3930    7.3170   27.3210 C.3     4  INN4        0.0000
     12  C3         7.0630    8.0070   27.8990 C.3     4  INN4        0.0000
     13  N1         6.8790    5.7670   24.3130 N.am    4  INN4       -0.1978
     14  C5         6.9130    4.3540   23.8520 C.3     4  INN4        0.1726
     15  C6         6.6460    4.1530   22.3010 C.3     4  INN4        0.0270
     16  C7         5.1600    4.5020   22.4860 C.3     4  INN4        0.0022
     17  C8         6.7060    5.3140   21.2930 C.3     4  INN4        0.0022
     18  C9         6.1910    2.7700   21.7660 C.3     4  INN4        0.0022
     19  C10        6.5330    3.1460   24.7600 C.2     4  INN4        0.2616
     20  O2         7.4230    2.6410   25.4540 O.2     4  INN4       -0.2715
     21  N2         5.2920    2.6010   24.6170 N.am    4  INN4       -0.1963
     22  C11        4.7520    1.3850   25.2510 C.3     4  INN4        0.1728
     23  C13        5.0450    0.2080   24.2700 C.2     4  INN4        0.2613
     24  O3         4.6390    0.2980   23.1120 O.2     4  INN4       -0.2715
     25  C12        5.5300    1.1500   26.5640 C.3     4  INN4        0.0334
     26  N4         6.5780   -2.8970   21.6220 N.3     4  INN4       -0.1294
     27  C15        5.9960   -1.8220   22.3930 C.3     4  INN4        0.1327
     28  C14        6.3020   -1.9630   23.8970 C.3     4  INN4        0.1356
     29  N3         5.8030   -0.8400   24.7100 N.am    4  INN4       -0.2024
@<TRIPOS>BOND
     1    17    15    1
     2    26    27    1
     3    18    15    1
     4    15    16    1
     5    15    14    1
     6    27    28    1
     7    24    23    2
     8     3     2    2
     9    14    13    1
    10    14    19    1
    11     1     2    1
    12     1     8    1
    13     2     4   am
    14    28    29    1
    15    23    29   am
    16    23    22    1
    17    13     6   am
    18    21    19   am
    19    21    22    1
    20     5     4    1
    21     6     7    2
    22     6     8    1
    23    19    20    2
    24     8     9    1
    25    22    25    1
    26     9    10    1
    27    10    11    1
    28    10    12    1
