@<TRIPOS>MOLECULE
3e8s_SAH_A_1.pdb
 26 28 0 0 0
SMALL
GASTEIGER

@<TRIPOS>ATOM
      1  N         64.1650   21.7800   10.6560 N.3   300  SAH300     -0.1208
      2  CA        63.8040   22.6920    9.5560 C.3   300  SAH300      0.1952
      3  CB        64.9870   22.9690    8.6060 C.3   300  SAH300      0.0422
      4  CG        65.5480   21.7920    7.8210 C.3   300  SAH300      0.0597
      5  SD        66.7440   22.2670    6.5320 S.3   300  SAH300     -0.1375
      6  C         62.6100   22.2870    8.7270 C.2   300  SAH300      0.3819
      7  O         62.1960   23.0490    7.8310 O.co2 300  SAH300     -0.2441
      8  OXT       62.0260   21.2280    8.8940 O.co2 300  SAH300     -0.2441
      9  C5'       68.3030   21.9750    7.4720 C.3   300  SAH300      0.0899
     10  C4'       68.6290   23.0410    8.5240 C.3   300  SAH300      0.1630
     11  O4'       69.8070   22.6760    9.2230 O.3   300  SAH300     -0.3153
     12  C3'       68.8630   24.4690    7.9760 C.3   300  SAH300      0.2168
     13  O3'       68.0270   25.4110    8.6320 O.3   300  SAH300     -0.2175
     14  C2'       70.3360   24.7180    8.2630 C.3   300  SAH300      0.2569
     15  O2'       70.7350   26.0580    8.4350 O.3   300  SAH300     -0.2130
     16  C1'       70.5990   23.8180    9.4740 C.3   300  SAH300      0.3185
     17  N9        72.0090   23.4280    9.6030 N.pl3 300  SAH300     -0.1439
     18  C8        72.7040   22.5630    8.7460 C.3   300  SAH300      0.3377
     19  N7        73.9630   22.4100    9.1990 N.2   300  SAH300     -0.2095
     20  C5        74.0800   23.1780   10.3430 C.2   300  SAH300      0.2526
     21  C6        75.1590   23.3790   11.1790 C.2   300  SAH300      0.4393
     22  N6        76.3620   22.7690   10.9620 N.pl3 300  SAH300      0.2180
     23  N1        74.9780   24.1670   12.2780 N.2   300  SAH300      0.0021
     24  C2        73.7610   24.7910   12.5090 C.3   300  SAH300      0.5254
     25  N3        72.6730   24.5850   11.7010 N.2   300  SAH300     -0.0055
     26  C4        72.8580   23.7990   10.6090 C.2   300  SAH300      0.3518
@<TRIPOS>BOND
     1     5     9    1
     2     5     4    1
     3     9    10    1
     4     4     3    1
     5     7     6   ar
     6    12    14    1
     7    12    10    1
     8    12    13    1
     9    14    15    1
    10    14    16    1
    11    10    11    1
    12     3     2    1
    13     6     8   ar
    14     6     2    1
    15    18    19    1
    16    18    17    1
    17    19    20    2
    18    11    16    1
    19    16    17    1
    20     2     1    1
    21    17    26    1
    22    20    26    1
    23    20    21    1
    24    26    25    2
    25    22    21    1
    26    21    23    2
    27    25    24    1
    28    23    24    1
