@<TRIPOS>MOLECULE
3e8x_NAP_A_1.pdb
 48 52 0 0 0
SMALL
GASTEIGER

@<TRIPOS>ATOM
      1  PA        47.6200   26.0480   23.3090 P.3   500  NAP500      0.2189
      2  O1A       47.3310   27.4500   23.8550 O.3   500  NAP500     -0.4371
      3  O2A       49.0030   25.7130   22.7940 O.2   500  NAP500     -0.5170
      4  O5B       46.4640   25.7460   22.2160 O.3   500  NAP500     -0.3112
      5  C5B       45.2920   26.5640   22.0450 C.3   500  NAP500      0.1813
      6  C4B       44.8700   26.7110   20.5840 C.3   500  NAP500      0.1820
      7  O4B       43.5710   27.3300   20.5860 O.3   500  NAP500     -0.3136
      8  C3B       45.7840   27.6050   19.7080 C.3   500  NAP500      0.2157
      9  O3B       46.3230   26.9400   18.5510 O.3   500  NAP500     -0.2175
     10  C2B       44.8790   28.7300   19.2330 C.3   500  NAP500      0.2314
     11  O2B       45.0900   29.2030   17.8800 O.3   500  NAP500     -0.2630
     12  C1B       43.4940   28.0790   19.3780 C.3   500  NAP500      0.3158
     13  N9A       42.4410   29.1260   19.3520 N.pl3 500  NAP500     -0.1439
     14  C8A       42.4020   30.2430   20.0950 C.3   500  NAP500      0.3377
     15  N7A       41.3160   30.9590   19.7440 N.2   500  NAP500     -0.2095
     16  C5A       40.6760   30.2720   18.7760 C.2   500  NAP500      0.2526
     17  C6A       39.5150   30.4970   18.0290 C.2   500  NAP500      0.4393
     18  N6A       38.7800   31.6090   18.2370 N.pl3 500  NAP500      0.2180
     19  N1A       39.1280   29.6180   17.0760 N.2   500  NAP500      0.0021
     20  C2A       39.8540   28.5200   16.8600 C.3   500  NAP500      0.5254
     21  N3A       40.9800   28.2680   17.5580 N.2   500  NAP500     -0.0055
     22  C4A       41.4060   29.1260   18.5230 C.2   500  NAP500      0.3518
     23  O3        47.2680   24.9940   24.5110 O.3   500  NAP500     -0.2703
     24  PN        47.9010   23.5120   24.7770 P.3   500  NAP500      0.2189
     25  O1N       49.1240   23.7170   25.6280 O.3   500  NAP500     -0.4371
     26  O2N       47.8410   22.7830   23.4530 O.2   500  NAP500     -0.5170
     27  O5D       46.9070   22.8350   25.8400 O.3   500  NAP500     -0.3112
     28  C5D       45.6560   22.2930   25.4340 C.3   500  NAP500      0.1813
     29  C4D       44.6360   22.6450   26.5020 C.3   500  NAP500      0.1799
     30  O4D       44.9630   22.0470   27.7570 O.3   500  NAP500     -0.3327
     31  C3D       44.5860   24.1450   26.7540 C.3   500  NAP500      0.2158
     32  O3D       43.7090   24.7490   25.7910 O.3   500  NAP500     -0.2175
     33  C2D       44.1950   24.2590   28.2310 C.3   500  NAP500      0.2309
     34  O2D       42.8520   24.6500   28.4190 O.3   500  NAP500     -0.2158
     35  C1D       44.3900   22.8390   28.8130 C.3   500  NAP500      0.2263
     36  N1N       45.2200   22.7420   30.0540 N.pl3 500  NAP500     -0.2787
     37  C2N       46.3780   23.4280   30.2130 C.3   500  NAP500      0.1244
     38  C3N       47.1320   23.2870   31.3980 C.2   500  NAP500      0.0544
     39  C7N       48.4500   23.9980   31.6120 C.2   500  NAP500      0.2818
     40  O7N       49.2150   23.5800   32.5010 O.2   500  NAP500     -0.2670
     41  N7N       48.7740   25.0160   30.7970 N.am  500  NAP500     -0.0839
     42  C4N       46.6730   22.4340   32.4040 C.2   500  NAP500      0.0033
     43  C5N       45.4900   21.7410   32.2120 C.2   500  NAP500      0.0157
     44  C6N       44.7930   21.9150   31.0280 C.2   500  NAP500      0.0633
     45  P2B       46.3980   30.0430   17.3650 P.3   500  NAP500      0.5328
     46  O1X       47.4210   29.0150   16.9620 O.3   500  NAP500     -0.1145
     47  O2X       45.8740   30.8310   16.1680 O.2   500  NAP500     -0.2224
     48  O3X       46.8170   30.8360   18.5850 O.3   500  NAP500     -0.1145
@<TRIPOS>BOND
     1    47    45    2
     2    20    19    1
     3    20    21    1
     4    46    45    1
     5    19    17    2
     6    45    11    1
     7    45    48    1
     8    21    22    2
     9    11    10    1
    10    17    18    1
    11    17    16    1
    12    22    16    1
    13    22    13    1
    14     9     8    1
    15    16    15    2
    16    10    12    1
    17    10     8    1
    18    13    12    1
    19    13    14    1
    20    12     7    1
    21     8     6    1
    22    15    14    1
    23     6     7    1
    24     6     5    1
    25     5     4    1
    26     4     1    1
    27     3     1    2
    28     1     2    1
    29     1    23    1
    30    26    24    2
    31    23    24    1
    32    24    25    1
    33    24    27    1
    34    28    27    1
    35    28    29    1
    36    32    31    1
    37    29    31    1
    38    29    30    1
    39    31    33    1
    40    30    35    1
    41    33    34    1
    42    33    35    1
    43    35    36    1
    44    36    37    1
    45    36    44    1
    46    37    38    1
    47    41    39   am
    48    44    43    2
    49    38    39    1
    50    38    42    2
    51    39    40    2
    52    43    42    1
