@<TRIPOS>MOLECULE
3e90_NKK_B_1.pdb
 41 42 0 0 0
SMALL
GASTEIGER

@<TRIPOS>ATOM
      1  CAW       16.9910   58.7350   -0.5730 C.3   195  NKK195      0.2036
      2  CBJ       15.1660   51.4250    0.1540 C.ar  195  NKK195      0.0046
      3  CBI       15.4690   50.5030   -0.8410 C.ar  195  NKK195      0.0001
      4  CBL       15.0810   50.7400   -2.1550 C.ar  195  NKK195      0.0000
      5  CBM       15.3920   49.8190   -3.1490 C.ar  195  NKK195      0.0000
      6  CBO       16.0880   48.6570   -2.8340 C.ar  195  NKK195      0.0000
      7  CBN       16.4790   48.4200   -1.5210 C.ar  195  NKK195      0.0000
      8  CBH       16.1710   49.3440   -0.5280 C.ar  195  NKK195      0.0000
      9  CBG       16.5720   49.1130    0.7830 C.ar  195  NKK195      0.0001
     10  CBF       16.2720   50.0370    1.7770 C.ar  195  NKK195      0.0046
     11  CBK       15.5660   51.1940    1.4660 C.ar  195  NKK195      0.0551
     12  CAA       15.2060   52.1840    2.5740 C.2   195  NKK195      0.2652
     13  OAB       14.2570   52.9580    2.4540 O.2   195  NKK195     -0.2684
     14  N         15.9570   52.0940    3.6690 N.am  195  NKK195     -0.1940
     15  CA        15.7630   52.9680    4.8340 C.3   195  NKK195      0.1730
     16  CB        16.4950   52.3530    6.0280 C.3   195  NKK195      0.0312
     17  CG        15.8570   50.9950    6.3250 C.3   195  NKK195      0.0038
     18  CD        16.6260   50.1950    7.3780 C.3   195  NKK195      0.0206
     19  CE        16.6660   50.9100    8.7290 C.3   195  NKK195      0.1093
     20  NZ        17.3890   50.0580    9.6840 N.3   195  NKK195     -0.1314
     21  C         16.2880   54.3670    4.5010 C.2   195  NKK195      0.2616
     22  O         15.9460   55.3560    5.1470 O.2   195  NKK195     -0.2715
     23  NAL       17.1210   54.4160    3.4670 N.am  195  NKK195     -0.1963
     24  CAM       17.6880   55.6800    2.9750 C.3   195  NKK195      0.1728
     25  CAP       19.2180   55.6610    3.0160 C.3   195  NKK195      0.0311
     26  CAQ       19.7770   55.6920    4.4410 C.3   195  NKK195      0.0038
     27  CAR       21.3060   55.7440    4.4180 C.3   195  NKK195      0.0206
     28  CAS       21.8950   55.7890    5.8290 C.3   195  NKK195      0.1093
     29  NAT       21.4030   56.9860    6.5240 N.3   195  NKK195     -0.1314
     30  CAN       17.2370   55.8540    1.5250 C.2   195  NKK195      0.2612
     31  OAO       17.2280   54.9030    0.7460 O.2   195  NKK195     -0.2715
     32  NAU       16.8380   57.0820    1.2050 N.am  195  NKK195     -0.2031
     33  CAV       16.3850   57.3950   -0.1550 C.3   195  NKK195      0.1283
     34  OAX       16.5940   59.0040   -1.9190 O.3   195  NKK195     -0.2185
     35  CAY       14.8550   57.4420   -0.1720 C.3   195  NKK195      0.0281
     36  CAZ       14.3260   56.1390    0.4320 C.3   195  NKK195      0.0488
     37  CBA       12.8010   56.0220    0.4560 C.3   195  NKK195      0.2205
     38  NBB       12.4850   54.6830    0.9750 N.pl3 195  NKK195     -0.0865
     39  CBC       11.2300   54.2510    1.0370 C.cat 195  NKK195      0.5346
     40  NBE       10.9830   53.0230    1.4860 N.pl3 195  NKK195      0.1354
     41  NBD       10.2380   55.0370    0.6310 N.pl3 195  NKK195      0.1354
@<TRIPOS>BOND
     1     5     6   ar
     2     5     4   ar
     3     6     7   ar
     4     4     3   ar
     5    34     1    1
     6     7     8   ar
     7     3     8   ar
     8     3     2   ar
     9     1    33    1
    10     8     9   ar
    11    35    33    1
    12    35    36    1
    13    33    32    1
    14     2    11   ar
    15    36    37    1
    16    37    38    1
    17    41    39    1
    18    31    30    2
    19     9    10   ar
    20    38    39    2
    21    39    40    1
    22    32    30   am
    23    11    10   ar
    24    11    12    1
    25    30    24    1
    26    13    12    2
    27    12    14   am
    28    24    25    1
    29    24    23    1
    30    25    26    1
    31    23    21   am
    32    14    15    1
    33    27    26    1
    34    27    28    1
    35    21    15    1
    36    21    22    2
    37    15    16    1
    38    28    29    1
    39    16    17    1
    40    17    18    1
    41    18    19    1
    42    19    20    1
