@<TRIPOS>MOLECULE
3e92_G6A_A_1.pdb
 26 29 0 0 0
SMALL
GASTEIGER

@<TRIPOS>ATOM
      1  C26       48.9010   34.8130   30.4810 C.3   361  G6A361      0.0967
      2  C23       37.1320   26.5140   36.2330 C.3   361  G6A361      0.0234
      3  C22       38.2640   27.1710   36.9540 C.3   361  G6A361      0.0234
      4  C19       38.5190   26.3570   35.7020 C.3   361  G6A361      0.0957
      5  C25       47.5280   34.8470   31.1690 C.ar  361  G6A361      0.2270
      6  O21       46.6350   33.8930   30.9750 O.2   361  G6A361     -0.4195
      7  N24       46.9900   35.7430   32.0320 N.ar  361  G6A361     -0.1114
      8  N20       45.8270   35.3620   32.3690 N.ar  361  G6A361     -0.1072
      9  C18       45.5470   34.1890   31.7290 C.ar  361  G6A361      0.2495
     10  C15       44.3010   33.4070   31.8360 C.ar  361  G6A361      0.0548
     11  C12       43.2130   33.8020   32.6200 C.ar  361  G6A361      0.0047
     12  C6        42.0870   32.9840   32.6390 C.ar  361  G6A361     -0.0002
     13  C10       44.2100   32.2030   31.1160 C.ar  361  G6A361      0.0004
     14  C5        43.0760   31.3710   31.1840 C.ar  361  G6A361     -0.0217
     15  C11       43.0360   30.0670   30.4250 C.3   361  G6A361      0.0310
     16  C2        41.9900   31.7880   31.9470 C.ar  361  G6A361     -0.0043
     17  C1        40.7500   30.9510   32.0470 C.ar  361  G6A361     -0.0041
     18  C3        40.6450   30.0430   33.1170 C.ar  361  G6A361      0.0042
     19  C7        39.5210   29.2010   33.2980 C.ar  361  G6A361      0.0550
     20  C13       39.5490   28.2860   34.4810 C.2   361  G6A361      0.2647
     21  O17       40.4020   28.4830   35.3640 O.2   361  G6A361     -0.2684
     22  N16       38.5850   27.2970   34.6010 N.am  361  G6A361     -0.2034
     23  C14       38.4600   29.3230   32.3610 C.ar  361  G6A361      0.0042
     24  C8        38.5450   30.2290   31.3010 C.ar  361  G6A361     -0.0041
     25  C4        39.6930   31.0460   31.1330 C.ar  361  G6A361     -0.0218
     26  C9        39.7830   32.0540   29.9890 C.3   361  G6A361      0.0310
@<TRIPOS>BOND
     1    26    25    1
     2    15    14    1
     3     1     5    1
     4     6     5   ar
     5     6     9   ar
     6    13    14   ar
     7    13    10   ar
     8    25    24   ar
     9    25    17   ar
    10     5     7   ar
    11    14    16   ar
    12    24    23   ar
    13     9    10    1
    14     9     8   ar
    15    10    11   ar
    16    16    17    1
    17    16    12   ar
    18     7     8   ar
    19    17    18   ar
    20    23    19   ar
    21    11    12   ar
    22    18    19   ar
    23    19    20    1
    24    20    22   am
    25    20    21    2
    26    22     4    1
    27     4     2    1
    28     4     3    1
    29     2     3    1
