@<TRIPOS>MOLECULE
3e93_19B_A_1.pdb
 37 42 0 0 0
SMALL
GASTEIGER

@<TRIPOS>ATOM
      1  O25       41.0000   29.8000   36.2000 O.2   361  19B361     -0.2680
      2  C22       40.1650   29.4840   35.3570 C.2   361  19B361      0.2690
      3  N24       39.3020   28.4420   35.5360 N.am  361  19B361     -0.1754
      4  C26       39.2780   27.5910   36.6470 C.ar  361  19B361      0.0749
      5  C27       39.5450   27.9960   37.9890 C.ar  361  19B361      0.0311
      6  C29       39.5250   27.0920   39.0830 C.ar  361  19B361      0.0493
      7  C32       39.2210   25.7450   38.7730 C.ar  361  19B361      0.0146
      8  C30       38.9480   25.3350   37.4620 C.ar  361  19B361      0.0026
      9  C28       38.9790   26.2530   36.4030 C.ar  361  19B361      0.0167
     10  N31       39.8530   27.4950   40.3960 N.pl3 361  19B361     -0.3027
     11  C33       40.4560   28.8390   40.5990 C.3   361  19B361      0.1231
     12  C35       40.3240   29.3880   42.0340 C.3   361  19B361      0.1636
     13  O37       40.7020   28.3600   42.9180 O.3   361  19B361     -0.3501
     14  C36       39.7690   27.2960   42.9390 C.3   361  19B361      0.1636
     15  C34       39.7280   26.5750   41.5720 C.3   361  19B361      0.1231
     16  C19       40.0370   30.3310   34.1470 C.ar  361  19B361      0.0554
     17  C23       38.8300   30.5450   33.4680 C.ar  361  19B361      0.0043
     18  C20       38.8000   31.3890   32.3550 C.ar  361  19B361     -0.0041
     19  C18       39.9600   32.0220   31.9080 C.ar  361  19B361     -0.0218
     20  C21       39.8990   32.9340   30.6860 C.3   361  19B361      0.0310
     21  C15       41.1550   31.8060   32.5980 C.ar  361  19B361     -0.0037
     22  C17       41.2020   30.9790   33.7030 C.ar  361  19B361      0.0043
     23  C12       42.3860   32.4650   32.1310 C.ar  361  19B361      0.0028
     24  C9        43.2440   31.7670   31.2830 C.ar  361  19B361      0.0002
     25  C4        44.4020   32.3910   30.8140 C.ar  361  19B361      0.0044
     26  C1        44.6680   33.7200   31.2190 C.ar  361  19B361      0.0538
     27  C3        43.8040   34.3760   32.0510 C.ar  361  19B361      0.1765
     28  O8        44.3090   35.6250   32.2690 O.2   361  19B361     -0.3537
     29  C7        42.6640   33.7780   32.5110 C.ar  361  19B361      0.0402
     30  C2        45.7300   34.5770   30.9160 C.ar  361  19B361      0.1003
     31  N6        45.4450   35.7350   31.5930 N.ar  361  19B361     -0.0814
     32  C5        46.9380   34.2910   30.0510 C.3   361  19B361      0.0465
     33  C10       47.9210   33.3110   30.7360 C.3   361  19B361      0.0249
     34  C13       48.9430   32.8140   29.7150 C.3   361  19B361      0.0891
     35  N16       49.7120   33.9080   29.1010 N.3   361  19B361     -0.2180
     36  C14       48.9620   35.1390   28.7590 C.3   361  19B361      0.0891
     37  C11       47.7790   35.5290   29.6890 C.3   361  19B361      0.0249
@<TRIPOS>BOND
     1    36    35    1
     2    36    37    1
     3    35    34    1
     4    37    32    1
     5    34    33    1
     6    32    33    1
     7    32    30    1
     8    20    19    1
     9    25    26   ar
    10    25    24   ar
    11    30    26   ar
    12    30    31   ar
    13    26    27   ar
    14    24    23   ar
    15    31    28   ar
    16    19    18   ar
    17    19    21   ar
    18    27    28   ar
    19    27    29   ar
    20    23    29   ar
    21    23    21    1
    22    18    17   ar
    23    21    22   ar
    24    17    16   ar
    25    22    16   ar
    26    16     2    1
    27     2     3   am
    28     2     1    2
    29     3     4    1
    30     9     4   ar
    31     9     8   ar
    32     4     5   ar
    33     8     7   ar
    34     5     6   ar
    35     7     6   ar
    36     6    10    1
    37    10    11    1
    38    10    15    1
    39    11    12    1
    40    15    14    1
    41    12    13    1
    42    13    14    1
