@<TRIPOS>MOLECULE
3e94_TBY_A_1.pdb
 13 12 0 0 0
SMALL
GASTEIGER

@<TRIPOS>ATOM
      1  C11       -1.6390  -16.9900   33.1480 C.3     1  TBY1        0.0000
      2  C10       -0.7800  -16.2050   32.1620 C.3     1  TBY1        0.0000
      3 SN1        -0.3960  -17.3490   30.3980 Sn      1  TBY1        0.0000
      4  C2         1.3060  -18.5950   30.7660 C.3     1  TBY1        0.0000
      5  C3         1.4820  -18.7730   32.2670 C.3     1  TBY1        0.0000
      6  C4         0.4910  -19.8290   32.7500 C.3     1  TBY1        0.0000
      7  C5         0.6090  -20.0130   34.2430 C.3     1  TBY1        0.0000
      8  C6        -2.4420  -17.9290   30.0810 C.3     1  TBY1        0.0000
      9  C7        -2.7340  -18.1140   28.6000 C.3     1  TBY1        0.0000
     10  C8        -3.8880  -17.2390   28.1370 C.3     1  TBY1        0.0000
     11  C9        -3.4320  -16.4350   26.9480 C.3     1  TBY1        0.0000
     12  C12       -2.1100  -16.1090   34.2860 C.3     1  TBY1        0.0000
     13  C13       -3.0910  -16.8480   35.1640 C.3     1  TBY1        0.0000
@<TRIPOS>BOND
     1    11    10    1
     2    10     9    1
     3     9     8    1
     4     8     3    1
     5     3     4    1
     6     3     2    1
     7     4     5    1
     8     2     1    1
     9     5     6    1
    10     6     7    1
    11     1    12    1
    12    12    13    1
