@<TRIPOS>MOLECULE
3e9b_S2C_A_1.pdb
 13 12 0 0 0
SMALL
GASTEIGER

@<TRIPOS>ATOM
      1  OXT       44.6620  -21.3000    6.8660 O.co2 502  S2C502      0.0000
      2  N         44.7610  -20.0780    3.3850 N.3   502  S2C502      0.0000
      3  CA        44.4370  -19.9960    4.8330 C.3   502  S2C502      0.0000
      4  C         44.9070  -21.3080    5.5550 C.2   502  S2C502      0.0000
      5  O         45.4760  -22.3020    4.9990 O.co2 502  S2C502      0.0000
      6  CB        42.9230  -19.7160    4.8050 C.3   502  S2C502      0.0000
      7  SG        42.0060  -20.4190    6.1730 S.3   502  S2C502      0.0000
      8  CD        40.3840  -19.8300    5.6600 C.3   502  S2C502      0.0000
      9  CE        39.4900  -21.0280    5.3680 C.3   502  S2C502      0.0000
     10  B         38.0410  -20.7100    4.9010 B     502  S2C502      0.0000
     11  O1        37.9900  -20.1840    3.5580 O.3   502  S2C502      0.0000
     12  O2        37.2580  -21.9110    4.9200 O.3   502  S2C502      0.0000
     13  O3        37.3570  -19.7500    5.7760 O.3   502  S2C502      0.0000
@<TRIPOS>BOND
     1     2     3    1
     2    11    10    1
     3     6     3    1
     4     6     7    1
     5     3     4    1
     6    10    12    1
     7    10     9    1
     8    10    13    1
     9     5     4   ar
    10     9     8    1
    11     4     1   ar
    12     8     7    1
