@<TRIPOS>MOLECULE
3e9h_KAA_A_1.pdb
 32 34 0 0 0
SMALL
GASTEIGER

@<TRIPOS>ATOM
      1  NZ        64.8430  -69.9910   18.2400 N.3   2002  KAA2002    -0.1314
      2  CE        64.0810  -71.0990   17.6400 C.3   2002  KAA2002     0.1093
      3  CD        63.0500  -71.6520   18.6350 C.3   2002  KAA2002     0.0206
      4  CG        63.7320  -72.2000   19.8940 C.3   2002  KAA2002     0.0035
      5  CB        62.7420  -72.7220   20.9390 C.3   2002  KAA2002     0.0285
      6  CA        61.8320  -71.6480   21.5450 C.3   2002  KAA2002     0.1709
      7  N         62.6210  -70.8160   22.4620 N.3   2002  KAA2002    -0.1230
      8  C         60.7660  -72.4000   22.3480 C.2   2002  KAA2002     0.2798
      9  O         60.7320  -72.3210   23.5740 O.2   2002  KAA2002    -0.2701
     10  N8        59.7400  -72.8250   21.6180 N.am  2002  KAA2002    -0.0577
     11  S1        58.6040  -73.7910   22.2650 S.3   2002  KAA2002     0.0852
     12  O1S       57.7440  -72.9160   23.1250 O.3   2002  KAA2002    -0.0508
     13  O2S       57.7850  -74.4570   21.2020 O.3   2002  KAA2002    -0.0508
     14  O5'       59.1630  -74.7450   23.1820 O.3   2002  KAA2002    -0.2230
     15  C5'       59.9080  -75.8670   22.6780 C.3   2002  KAA2002     0.2064
     16  C4'       59.2320  -77.2300   22.8540 C.3   2002  KAA2002     0.1842
     17  O4'       59.1960  -77.6220   24.2290 O.3   2002  KAA2002    -0.3135
     18  C3'       57.8010  -77.3940   22.3390 C.3   2002  KAA2002     0.2185
     19  O3'       57.8480  -77.6920   20.9410 O.3   2002  KAA2002    -0.2174
     20  C2'       57.3610  -78.6540   23.0910 C.3   2002  KAA2002     0.2570
     21  O2'       57.7530  -79.8570   22.4210 O.3   2002  KAA2002    -0.2130
     22  C1'       58.1100  -78.5470   24.4200 C.3   2002  KAA2002     0.3186
     23  N9        57.2860  -78.0090   25.5280 N.pl3 2002  KAA2002    -0.1439
     24  C8        56.8560  -76.7560   25.6530 C.3   2002  KAA2002     0.3377
     25  N7        56.1920  -76.6310   26.8010 N.2   2002  KAA2002    -0.2095
     26  C5        56.1930  -77.8140   27.4100 C.2   2002  KAA2002     0.2526
     27  C4        56.8960  -78.6930   26.6010 C.2   2002  KAA2002     0.3518
     28  N3        57.0450  -79.9690   26.9910 N.2   2002  KAA2002    -0.0055
     29  C2        56.5320  -80.4060   28.1300 C.3   2002  KAA2002     0.5254
     30  N1        55.8500  -79.5900   28.9190 N.2   2002  KAA2002     0.0021
     31  C6        55.6580  -78.3010   28.5980 C.2   2002  KAA2002     0.4393
     32  N6        54.9410  -77.5080   29.3910 N.pl3 2002  KAA2002     0.2180
@<TRIPOS>BOND
     1     2     1    1
     2     2     3    1
     3     3     4    1
     4     4     5    1
     5     5     6    1
     6    19    18    1
     7    13    11    1
     8     6     8    1
     9     6     7    1
    10    10    11    1
    11    10     8   am
    12    11    12    1
    13    11    14    1
    14    18    16    1
    15    18    20    1
    16     8     9    2
    17    21    20    1
    18    15    16    1
    19    15    14    1
    20    16    17    1
    21    20    22    1
    22    17    22    1
    23    22    23    1
    24    23    24    1
    25    23    27    1
    26    24    25    1
    27    27    28    2
    28    27    26    1
    29    25    26    2
    30    28    29    1
    31    26    31    1
    32    29    30    1
    33    31    30    2
    34    31    32    1
