@<TRIPOS>MOLECULE
3e9i_XAH_A_1.pdb
 33 35 0 0 0
SMALL
GASTEIGER

@<TRIPOS>ATOM
      1  N1        64.2030  -73.4430   18.1720 N.3   1001  XAH1001    -0.1314
      2  C2        63.4370  -74.5700   17.6200 C.3   1001  XAH1001     0.1093
      3  C3        62.3550  -75.0020   18.6140 C.3   1001  XAH1001     0.0206
      4  C4        62.9540  -75.5590   19.9080 C.3   1001  XAH1001     0.0035
      5  C5        61.8650  -75.9390   20.9160 C.3   1001  XAH1001     0.0286
      6  C6        61.1230  -74.7010   21.4260 C.3   1001  XAH1001     0.1716
      7  N7        62.0770  -73.8450   22.1450 N.3   1001  XAH1001    -0.1230
      8  C8        59.9970  -75.0750   22.3930 C.2   1001  XAH1001     0.2849
      9  O9        59.9690  -74.5900   23.5210 O.2   1001  XAH1001    -0.2695
     10  N10       59.0870  -75.9450   21.9620 N.am  1001  XAH1001    -0.0554
     11  O11       58.0850  -76.2490   22.8320 O.3   1001  XAH1001    -0.1976
     12  P12       57.0800  -77.3790   22.2840 P.3   1001  XAH1001     0.2391
     13  O13       55.7530  -77.0850   22.8690 O.3   1001  XAH1001    -0.4360
     14  O14       57.1950  -77.4990   20.8140 O.2   1001  XAH1001    -0.5160
     15  O15       57.6650  -78.7120   22.9730 O.3   1001  XAH1001    -0.3102
     16  C16       58.5860  -79.5580   22.2790 C.3   1001  XAH1001     0.1814
     17  C17       58.2740  -81.0200   22.6020 C.3   1001  XAH1001     0.1821
     18  O18       58.3940  -81.2900   24.0080 O.3   1001  XAH1001    -0.3135
     19  C19       56.8090  -81.3070   22.2780 C.3   1001  XAH1001     0.2184
     20  O20       56.7000  -81.5850   20.8790 O.3   1001  XAH1001    -0.2174
     21  C21       56.6310  -82.5950   23.0790 C.3   1001  XAH1001     0.2570
     22  O22       57.2690  -83.6890   22.4130 O.3   1001  XAH1001    -0.2130
     23  C23       57.3930  -82.2620   24.3650 C.3   1001  XAH1001     0.3186
     24  N24       56.5420  -81.6380   25.4050 N.pl3 1001  XAH1001    -0.1439
     25  C25       56.1160  -80.3770   25.4220 C.3   1001  XAH1001     0.3377
     26  N26       55.4550  -80.1410   26.5540 N.2   1001  XAH1001    -0.2095
     27  C27       55.4570  -81.2640   27.2660 C.2   1001  XAH1001     0.2526
     28  C28       56.1450  -82.2210   26.5330 C.2   1001  XAH1001     0.3518
     29  N29       56.2910  -83.4560   27.0330 N.2   1001  XAH1001    -0.0055
     30  C30       55.7890  -83.7740   28.2140 C.3   1001  XAH1001     0.5254
     31  N31       55.1320  -82.8860   28.9390 N.2   1001  XAH1001     0.0021
     32  C32       54.9460  -81.6290   28.5060 C.2   1001  XAH1001     0.4393
     33  N33       54.3010  -80.7440   29.2620 N.pl3 1001  XAH1001     0.2180
@<TRIPOS>BOND
     1     2     1    1
     2     2     3    1
     3     3     4    1
     4     4     5    1
     5    14    12    2
     6    20    19    1
     7     5     6    1
     8     6     7    1
     9     6     8    1
    10    10     8   am
    11    10    11    1
    12    19    17    1
    13    19    21    1
    14    16    17    1
    15    16    15    1
    16    12    11    1
    17    12    13    1
    18    12    15    1
    19     8     9    2
    20    22    21    1
    21    17    18    1
    22    21    23    1
    23    18    23    1
    24    23    24    1
    25    24    25    1
    26    24    28    1
    27    25    26    1
    28    28    29    2
    29    28    27    1
    30    26    27    2
    31    29    30    1
    32    27    32    1
    33    30    31    1
    34    32    31    2
    35    32    33    1
