@<TRIPOS>MOLECULE
3e9j_UQ1_C_1.pdb
 18 18 0 0 0
SMALL
GASTEIGER

@<TRIPOS>ATOM
      1  C1       -19.4160   29.8120  -15.8710 C.2   501  UQ1501      0.2285
      2  O1       -20.1340   30.8260  -15.9970 O.2   501  UQ1501     -0.2835
      3  C2       -19.1040   29.3410  -14.4910 C.2   501  UQ1501      0.2140
      4  O2       -19.6260   30.0340  -13.4220 O.2   501  UQ1501     -0.4652
      5  CM2      -19.0470   31.2800  -13.0060 C.3   501  UQ1501      0.2528
      6  C3       -18.2360   28.1300  -14.2870 C.2   501  UQ1501      0.2140
      7  O3       -17.9490   27.6820  -13.0050 O.2   501  UQ1501     -0.4652
      8  CM3      -17.6430   28.5690  -11.9020 C.3   501  UQ1501      0.2528
      9  C4       -17.6860   27.4010  -15.4970 C.2   501  UQ1501      0.2282
     10  O4       -16.9630   26.3720  -15.3810 O.2   501  UQ1501     -0.2836
     11  C5       -17.9990   27.8880  -16.8800 C.2   501  UQ1501      0.0198
     12  CM5      -17.4310   27.1290  -18.0610 C.3   501  UQ1501      0.0343
     13  C6       -18.8750   29.0940  -17.0730 C.2   501  UQ1501      0.0235
     14  C7       -19.2000   29.5810  -18.4770 C.3   501  UQ1501      0.0548
     15  C8       -20.6940   29.8640  -18.6320 C.2   501  UQ1501     -0.0298
     16  C9       -21.4600   29.2440  -19.5500 C.2   501  UQ1501     -0.0475
     17  C10      -22.9300   29.5780  -19.6520 C.3   501  UQ1501      0.0260
     18  C11      -20.8570   28.2210  -20.4740 C.3   501  UQ1501      0.0260
@<TRIPOS>BOND
     1    18    16    1
     2    17    16    1
     3    16    15    2
     4    15    14    1
     5    14    13    1
     6    12    11    1
     7    13    11    2
     8    13     1    1
     9    11     9    1
    10     2     1    2
    11     1     3    1
    12     9    10    2
    13     9     6    1
    14     3     6    2
    15     3     4    1
    16     6     7    1
    17     4     5    1
    18     7     8    1
