@<TRIPOS>MOLECULE
3e9k_PLP_A_1.pdb
 15 15 0 0 0
SMALL
GASTEIGER

@<TRIPOS>ATOM
      1  N1         3.1120   -6.1630   14.2360 N.ar  466  PLP466     -0.2452
      2  C2         3.7940   -5.4840   15.2260 C.ar  466  PLP466      0.0978
      3  C2A        4.8010   -6.2060   16.0710 C.3   466  PLP466      0.0555
      4  C3         3.5490   -4.1330   15.4420 C.ar  466  PLP466      0.2049
      5  O3         4.1440   -3.4890   16.4940 O.3   466  PLP466     -0.2857
      6  C4         2.6160   -3.4660   14.6580 C.ar  466  PLP466      0.0182
      7  C4A        2.3140   -2.0190   14.9160 C.3   466  PLP466      0.0342
      8  C5         1.9310   -4.1530   13.6630 C.ar  466  PLP466      0.0261
      9  C6         2.1840   -5.5040   13.4550 C.ar  466  PLP466      0.0965
     10  C5A        0.9170   -3.4320   12.8050 C.3   466  PLP466      0.1815
     11  O4P        0.5520   -4.2530   11.7180 O.3   466  PLP466     -0.2653
     12  P          0.2250   -3.6060   10.2810 P.3   466  PLP466      0.5329
     13  O1P        0.4190   -4.6440    9.2010 O.2   466  PLP466     -0.2224
     14  O2P        1.1420   -2.4330   10.0300 O.3   466  PLP466     -0.1145
     15  O3P       -1.2110   -3.1380   10.2840 O.3   466  PLP466     -0.1145
@<TRIPOS>BOND
     1    13    12    2
     2    14    12    1
     3    12    15    1
     4    12    11    1
     5    11    10    1
     6    10     8    1
     7     9     8   ar
     8     9     1   ar
     9     8     6   ar
    10     1     2   ar
    11     6     7    1
    12     6     4   ar
    13     2     4   ar
    14     2     3    1
    15     4     5    1
