@<TRIPOS>MOLECULE
3e9k_3XH_A_1.pdb
 14 14 0 0 0
SMALL
GASTEIGER

@<TRIPOS>ATOM
      1  O11        1.3820    0.9400   18.9050 O.co2 467  3XH467     -0.2437
      2  C10        1.4870   -0.3000   18.8220 C.2   467  3XH467      0.3865
      3  O12        2.2700   -0.9770   19.5150 O.co2 467  3XH467     -0.2437
      4  C9         0.6260   -1.0460   17.8410 C.3   467  3XH467      0.2288
      5  N8        -0.4780   -0.2560   17.3220 N.am  467  3XH467     -0.1894
      6  C7        -0.5410    0.3300   16.1290 C.2   467  3XH467      0.2654
      7  O14        0.3660    0.2460   15.3200 O.2   467  3XH467     -0.2684
      8  C6        -1.7840    1.0740   15.7550 C.ar  467  3XH467      0.0582
      9  C5        -2.5350    1.7840   16.6970 C.ar  467  3XH467      0.0048
     10  C4        -3.7040    2.4410   16.3040 C.ar  467  3XH467      0.0034
     11  C3        -4.1250    2.3780   14.9780 C.ar  467  3XH467      0.0420
     12  C2        -3.3740    1.6610   14.0420 C.ar  467  3XH467      0.1959
     13  O13       -3.7580    1.5780   12.7450 O.3   467  3XH467     -0.2866
     14  C1        -2.2090    1.0080   14.4310 C.ar  467  3XH467      0.0466
@<TRIPOS>BOND
     1    13    12    1
     2    12    14   ar
     3    12    11   ar
     4    14     8   ar
     5    11    10   ar
     6     7     6    2
     7     8     6    1
     8     8     9   ar
     9     6     5   am
    10    10     9   ar
    11     5     4    1
    12     4     2    1
    13     2     1   ar
    14     2     3   ar
