@<TRIPOS>MOLECULE
3e9r_ADE_B_1.pdb
 10 11 0 0 0
SMALL
GASTEIGER

@<TRIPOS>ATOM
      1  N9        15.0130   31.2690   41.7330 N.2   288  ADE288     -0.1914
      2  C8        14.0160   32.0030   42.3220 C.3   288  ADE288      0.2618
      3  N7        12.9870   32.2130   41.5320 N.2   288  ADE288     -0.2267
      4  C5        13.3440   31.5680   40.3440 C.2   288  ADE288      0.2303
      5  C6        12.6780   31.4190   39.1080 C.2   288  ADE288      0.4393
      6  N6        11.4670   31.9380   38.8760 N.pl3 288  ADE288      0.2185
      7  N1        13.3000   30.7280   38.1330 N.2   288  ADE288     -0.0265
      8  C2        14.5260   30.2000   38.3680 C.3   288  ADE288      0.4008
      9  N3        15.2490   30.2900   39.4880 N.2   288  ADE288     -0.1640
     10  C4        14.5890   30.9800   40.4480 C.1   288  ADE288      0.0579
@<TRIPOS>BOND
     1     7     8    1
     2     7     5    2
     3     8     9    1
     4     6     5    1
     5     5     4    1
     6     9    10    2
     7     4    10    1
     8     4     3    2
     9    10     1    2
    10     3     2    1
    11     1     2    1
