@<TRIPOS>MOLECULE
3e9s_TTT_A_1.pdb
 23 25 0 0 0
SMALL
GASTEIGER

@<TRIPOS>ATOM
      1  C1       -29.9910   21.1070   29.9270 C.2   317  TTT317      0.2648
      2  C3       -28.5330   21.4130   29.8040 C.ar  317  TTT317      0.0524
      3  C8       -33.7440   21.9080   31.0440 C.ar  317  TTT317     -0.0024
      4  C9       -33.7210   24.5430   29.8610 C.ar  317  TTT317     -0.0003
      5  C10      -27.5970   20.2630   29.4840 C.ar  317  TTT317     -0.0173
      6  C11      -34.4760   23.1010   31.6940 C.ar  317  TTT317     -0.0003
      7  C12      -34.4300   24.3800   31.0660 C.ar  317  TTT317     -0.0000
      8  C13      -28.0170   22.7250   29.9800 C.ar  317  TTT317      0.0223
      9  C14      -33.7870   20.6250   31.6670 C.ar  317  TTT317     -0.0003
     10  C16      -28.1340   18.8500   29.2880 C.3   317  TTT317      0.0312
     11  C19      -26.6190   22.9310   29.8520 C.ar  317  TTT317      0.0892
     12  C20      -34.5130   20.4590   32.8940 C.ar  317  TTT317     -0.0000
     13  C21      -25.7210   21.8600   29.5540 C.ar  317  TTT317      0.0177
     14  C22      -35.2050   21.5710   33.5120 C.ar  317  TTT317     -0.0000
     15  O7       -30.3230   20.5890   30.9850 O.2   317  TTT317     -0.2684
     16  C17      -26.2130   20.5340   29.3710 C.ar  317  TTT317     -0.0027
     17  N01      -26.1210   24.1640   30.0160 N.pl3 317  TTT317     -0.1281
     18  N2       -30.8560   21.3610   28.9450 N.am  317  TTT317     -0.1989
     19  C6       -32.2750   21.0260   29.0640 C.3   317  TTT317      0.1178
     20  C01      -32.9030   20.7250   27.6910 C.3   317  TTT317      0.0283
     21  C5       -33.0030   22.1580   29.7480 C.ar  317  TTT317     -0.0026
     22  C18      -35.1990   22.8790   32.9390 C.ar  317  TTT317     -0.0000
     23  C4       -33.0300   23.4780   29.2200 C.ar  317  TTT317     -0.0026
@<TRIPOS>BOND
     1    20    19    1
     2    18    19    1
     3    18     1   am
     4    19    21    1
     5    23    21   ar
     6    23     4   ar
     7    10     5    1
     8    16     5   ar
     9    16    13   ar
    10     5     2   ar
    11    13    11   ar
    12    21     3   ar
    13     2     1    1
    14     2     8   ar
    15    11     8   ar
    16    11    17    1
    17     4     7   ar
    18     1    15    2
    19     3     9   ar
    20     3     6   ar
    21     7     6   ar
    22     9    12   ar
    23     6    22   ar
    24    12    14   ar
    25    22    14   ar
