@<TRIPOS>MOLECULE
3e9x_NIM_A_1.pdb
 21 22 0 0 0
SMALL
GASTEIGER

@<TRIPOS>ATOM
      1  O4         6.5110   16.2080   13.0720 O.2     1  NIM1       -0.1261
      2  N2         5.8620   16.6280   14.0560 N.pl3   1  NIM1        0.0578
      3  O3         4.6010   16.6240   13.9960 O.2     1  NIM1       -0.1261
      4  C5         6.5730   17.1480   15.3570 C.ar    1  NIM1        0.1460
      5  C4         7.9910   17.1800   15.4880 C.ar    1  NIM1        0.0257
      6  C3         8.6260   17.6630   16.7130 C.ar    1  NIM1        0.0228
      7  C2         7.8590   18.1190   17.8330 C.ar    1  NIM1        0.1251
      8  N1         8.5180   18.5950   19.0630 N.pl3   1  NIM1       -0.0975
      9  S1         9.7880   19.7800   19.0850 S.O2    1  NIM1        0.0751
     10  O1        10.0520   20.0020   20.5090 O.2     1  NIM1       -0.1528
     11  O2        10.8810   19.1810   18.2540 O.2     1  NIM1       -0.1528
     12  C1         9.0510   21.2550   18.2490 C.3     1  NIM1        0.2016
     13  C6         5.7930   17.6090   16.4690 C.ar    1  NIM1        0.0629
     14  C7         6.3760   18.0930   17.7050 C.ar    1  NIM1        0.1635
     15  O5         5.5240   18.5440   18.7990 O.3     1  NIM1       -0.4521
     16  C8         4.1190   18.9310   18.7370 C.ar    1  NIM1        0.1454
     17  C13        3.1260   18.1330   18.0380 C.ar    1  NIM1        0.0375
     18  C12        1.7520   18.5470   17.9670 C.ar    1  NIM1        0.0031
     19  C11        1.3390   19.7670   18.5880 C.ar    1  NIM1        0.0002
     20  C10        2.2990   20.5820   19.3020 C.ar    1  NIM1        0.0031
     21  C9         3.6790   20.1660   19.3760 C.ar    1  NIM1        0.0375
@<TRIPOS>BOND
     1     1     2    2
     2     3     2    2
     3     2     4    1
     4     4     5   ar
     5     4    13   ar
     6     5     6   ar
     7    13    14   ar
     8     6     7   ar
     9    14     7   ar
    10    14    15    1
    11     7     8    1
    12    18    17   ar
    13    18    19   ar
    14    17    16   ar
    15    12     9    1
    16    11     9    2
    17    19    20   ar
    18    16    15    1
    19    16    21   ar
    20     8     9    1
    21     9    10    2
    22    20    21   ar
