@<TRIPOS>MOLECULE
3e9x_MAN_A_1.pdb
 11 11 0 0 0
SMALL
GASTEIGER

@<TRIPOS>ATOM
      1  C1        21.2080    9.0360   -3.2740 C.3     9  MAN9        0.1777
      2  C2        20.8140   10.4890   -3.2230 C.3     9  MAN9        0.2141
      3  C3        21.4700   11.2980   -4.3640 C.3     9  MAN9        0.2173
      4  C4        22.7960   10.7170   -4.9390 C.3     9  MAN9        0.2142
      5  C5        23.0130    9.2210   -4.6550 C.3     9  MAN9        0.1810
      6  C6        24.4210    8.7040   -4.8280 C.3     9  MAN9        0.2141
      7  O2        21.1630   11.0280   -1.9540 O.3     9  MAN9       -0.2176
      8  O3        21.7060   12.6250   -3.9050 O.3     9  MAN9       -0.2175
      9  O4        22.7720   10.8990   -6.3400 O.3     9  MAN9       -0.2176
     10  O5        22.5960    8.9080   -3.3350 O.3     9  MAN9       -0.3481
     11  O6        24.5840    8.1440   -6.1220 O.3     9  MAN9       -0.2176
@<TRIPOS>BOND
     1     9     4    1
     2    11     6    1
     3     4     5    1
     4     4     3    1
     5     6     5    1
     6     5    10    1
     7     3     8    1
     8     3     2    1
     9    10     1    1
    10     1     2    1
    11     2     7    1
