@<TRIPOS>MOLECULE
3e9y_TDM_A_1.pdb
 29 30 0 0 0
SMALL
GASTEIGER

@<TRIPOS>ATOM
      1  O1A       70.6710   51.8330   42.5240 O.3   700  TDM700     -0.4370
      2  PA        69.7410   52.9400   42.8620 P.3   700  TDM700      0.2230
      3  O2A       70.3160   54.3240   42.3390 O.2   700  TDM700     -0.5169
      4  O3A       69.5540   53.1510   44.4560 O.3   700  TDM700     -0.2261
      5  PB        69.3080   51.9550   45.5050 P.3   700  TDM700      0.5373
      6  O2B       70.1280   52.1130   46.7310 O.3   700  TDM700     -0.1143
      7  O3B       67.7310   51.9330   45.8450 O.3   700  TDM700     -0.1143
      8  O1B       69.5920   50.5490   44.7660 O.2   700  TDM700     -0.2221
      9  O7        68.2840   52.8080   42.1950 O.3   700  TDM700     -0.3134
     10  C7        67.1850   53.6400   42.5940 C.3   700  TDM700      0.1544
     11  C6        65.9140   52.8000   42.5450 C.3   700  TDM700      0.0664
     12  C5        64.6300   53.6320   42.4800 C.2   700  TDM700      0.0205
     13  S1        63.9370   54.2760   43.9180 S.3   700  TDM700     -0.0726
     14  C2        62.5910   55.0180   43.1600 C.2   700  TDM700      0.1170
     15  C27       61.6270   55.7140   43.7880 C.2   700  TDM700      0.1931
     16  C29       61.6600   55.8930   45.3100 C.3   700  TDM700      0.0792
     17  O28       60.4780   56.3430   42.9980 O.2   700  TDM700     -0.2895
     18  N3        62.7370   54.7240   41.6540 N.pl3 700  TDM700     -0.2786
     19  C4        63.8360   53.9840   41.3720 C.2   700  TDM700      0.0320
     20  CM4       64.2060   53.5490   39.9470 C.3   700  TDM700      0.0476
     21  C7'       61.7920   55.2200   40.6260 C.3   700  TDM700      0.1279
     22  C5'       62.4510   56.4230   39.9070 C.2   700  TDM700      0.0657
     23  C4'       62.9140   57.5960   40.5210 C.2   700  TDM700      0.2292
     24  N4'       62.8020   57.7890   41.8310 N.pl3 700  TDM700     -0.0925
     25  N3'       63.4830   58.5670   39.7820 N.2   700  TDM700     -0.3368
     26  C2'       63.6220   58.4290   38.4530 C.1   700  TDM700      0.0663
     27  CM2       64.2730   59.5520   37.6380 C.3   700  TDM700      0.1291
     28  N1'       63.1880   57.3090   37.8430 N.2   700  TDM700     -0.1861
     29  C6'       62.6190   56.3270   38.5240 C.2   700  TDM700      0.1115
@<TRIPOS>BOND
     1    27    26    1
     2    28    26    2
     3    28    29    1
     4    26    25    2
     5    29    22    2
     6    25    23    2
     7    22    23    1
     8    22    21    1
     9    20    19    1
    10    23    24    1
    11    21    18    1
    12    19    18    1
    13    19    12    2
    14    18    14    1
    15     9    10    1
    16     9     2    1
    17     3     2    2
    18    12    11    1
    19    12    13    1
    20     1     2    1
    21    11    10    1
    22     2     4    1
    23    17    15    1
    24    14    15    2
    25    14    13    1
    26    15    16    1
    27     4     5    1
    28     8     5    2
    29     5     7    1
    30     5     6    1
