@<TRIPOS>MOLECULE
3e9y_1MS_A_1.pdb
 23 24 0 0 0
SMALL
GASTEIGER

@<TRIPOS>ATOM
      1  O8        53.6260   57.0500   43.7300 O.2   695  1MS695     -0.1261
      2  N7        52.9150   56.3260   44.7330 N.pl3 695  1MS695      0.0590
      3  O9        52.7740   54.9370   44.5410 O.2   695  1MS695     -0.1261
      4  C1        52.4200   56.9880   45.7900 C.ar  695  1MS695      0.1617
      5  C6        52.6450   58.3600   45.8200 C.ar  695  1MS695      0.0255
      6  C5        52.1970   59.1860   46.8450 C.ar  695  1MS695      0.0018
      7  C4        51.4780   58.7530   47.9590 C.ar  695  1MS695      0.0015
      8  C3        51.1720   57.2480   48.0320 C.ar  695  1MS695      0.0220
      9  C2        51.7130   56.4170   46.8570 C.ar  695  1MS695      0.1495
     10  S10       51.3340   54.6970   46.9730 S.O2  695  1MS695      0.0983
     11  O11       50.9220   54.3840   48.3720 O.2   695  1MS695     -0.1481
     12  O12       50.1800   54.4030   46.0670 O.2   695  1MS695     -0.1481
     13  N13       52.5850   53.6820   46.5720 N.am  695  1MS695     -0.0392
     14  C14       53.8060   53.9310   47.0590 C.2   695  1MS695      0.3745
     15  O15       54.0020   54.7130   47.9890 O.2   695  1MS695     -0.2463
     16  N16       54.7840   53.2510   46.4430 N.am  695  1MS695     -0.0796
     17  C18       56.0970   53.3050   46.7150 C.1   695  1MS695      0.1732
     18  N17       56.6200   54.1700   47.6090 N.2   695  1MS695     -0.1682
     19  C23       57.9210   54.2190   47.8710 C.2   695  1MS695      0.1141
     20  C22       58.8150   53.3690   47.2250 C.2   695  1MS695      0.0500
     21  C20       58.3280   52.4590   46.2950 C.2   695  1MS695      0.1237
     22  C21       59.1930   51.5980   45.6310 C.3   695  1MS695      0.0675
     23  N19       56.9530   52.4210   46.0330 N.2   695  1MS695     -0.3405
@<TRIPOS>BOND
     1     1     2    2
     2     3     2    2
     3     2     4    1
     4    22    21    1
     5     4     5   ar
     6     4     9   ar
     7     5     6   ar
     8    23    21    2
     9    23    17    2
    10    12    10    2
    11    21    20    1
    12    16    17    1
    13    16    14   am
    14    13    10    1
    15    13    14   am
    16    17    18    2
    17     6     7   ar
    18     9    10    1
    19     9     8   ar
    20    10    11    2
    21    14    15    2
    22    20    19    2
    23    18    19    1
    24     7     8   ar
