@<TRIPOS>MOLECULE
3e9z_6GU_A_1.pdb
 11 12 0 0 0
SMALL
GASTEIGER

@<TRIPOS>ATOM
      1 CL6       -12.9860    2.6510  -31.3490 Cl    704  6GU704     -0.0449
      2  N1       -15.0630    4.3550  -30.5040 N.2   704  6GU704     -0.3112
      3  C2       -16.4150    4.6130  -29.8990 C.1   704  6GU704      0.2513
      4  N2       -16.9410    5.9560  -29.7540 N.pl3 704  6GU704     -0.0226
      5  N3       -17.2580    3.4990  -29.4330 N.2   704  6GU704     -0.2694
      6  C4       -16.7780    2.1290  -29.5560 C.1   704  6GU704      0.1198
      7  C5       -15.4470    1.8630  -30.1470 C.2   704  6GU704      0.1940
      8  C6       -14.5780    2.9930  -30.6340 C.2   704  6GU704      0.2303
      9  N7       -15.2600    0.4380  -30.1340 N.2   704  6GU704     -0.2293
     10  C8       -16.4640   -0.1920  -29.5460 C.3   704  6GU704      0.2627
     11  N9       -17.4010    0.8640  -29.1910 N.2   704  6GU704     -0.1807
@<TRIPOS>BOND
     1     1     8    1
     2     8     2    2
     3     8     7    1
     4     2     3    2
     5     7     9    2
     6     7     6    1
     7     9    10    1
     8     3     4    1
     9     3     5    2
    10     6     5    2
    11     6    11    2
    12    10    11    1
