@<TRIPOS>MOLECULE
3ea2_INS_A_1.pdb
 12 12 0 0 0
SMALL
GASTEIGER

@<TRIPOS>ATOM
      1  C1         3.5950   82.4590   48.7030 C.3   801  INS801      0.2175
      2  C2         4.7890   81.8920   47.9820 C.3   801  INS801      0.2175
      3  C3         5.3850   80.6760   48.8370 C.3   801  INS801      0.2175
      4  C4         4.2970   79.5770   49.0550 C.3   801  INS801      0.2175
      5  C5         3.1320   80.2350   49.8290 C.3   801  INS801      0.2175
      6  C6         2.5330   81.4320   48.9690 C.3   801  INS801      0.2175
      7  O1         3.0480   83.5510   47.9240 O.3   801  INS801     -0.2175
      8  O2         4.4050   81.4320   46.6550 O.3   801  INS801     -0.2175
      9  O3         6.5180   80.1230   48.1350 O.3   801  INS801     -0.2175
     10  O4         4.8260   78.4960   49.8180 O.3   801  INS801     -0.2175
     11  O5         2.1220   79.2660   50.0650 O.3   801  INS801     -0.2175
     12  O6         1.4450   82.0510   49.6750 O.3   801  INS801     -0.2175
@<TRIPOS>BOND
     1     8     2    1
     2     7     1    1
     3     2     1    1
     4     2     3    1
     5     9     3    1
     6     1     6    1
     7     3     4    1
     8     6    12    1
     9     6     5    1
    10     4    10    1
    11     4     5    1
    12     5    11    1
