@<TRIPOS>MOLECULE
3ea4_TDM_A_1.pdb
 29 30 0 0 0
SMALL
GASTEIGER

@<TRIPOS>ATOM
      1  O1A       70.3840   51.6300   42.2890 O.3   698  TDM698     -0.4370
      2  PA        69.5180   52.7930   42.6220 P.3   698  TDM698      0.2230
      3  O2A       70.1840   54.1210   42.0740 O.2   698  TDM698     -0.5169
      4  O3A       69.3470   53.0380   44.1890 O.3   698  TDM698     -0.2261
      5  PB        69.0370   51.8890   45.2500 P.3   698  TDM698      0.5373
      6  O2B       69.7870   52.1390   46.5000 O.3   698  TDM698     -0.1143
      7  O3B       67.4420   51.8890   45.5110 O.3   698  TDM698     -0.1143
      8  O1B       69.4080   50.4510   44.6050 O.2   698  TDM698     -0.2221
      9  O7        68.0260   52.6950   42.0210 O.3   698  TDM698     -0.3134
     10  C7        66.9340   53.5130   42.4660 C.3   698  TDM698      0.1544
     11  C6        65.6610   52.6800   42.3540 C.3   698  TDM698      0.0664
     12  C5        64.3760   53.5070   42.2300 C.2   698  TDM698      0.0205
     13  S1        63.6090   54.1390   43.6400 S.3   698  TDM698     -0.0726
     14  C2        62.2910   54.8750   42.8110 C.2   698  TDM698      0.1170
     15  C27       61.2860   55.5590   43.3810 C.2   698  TDM698      0.1931
     16  C29       61.2250   55.7460   44.9030 C.3   698  TDM698      0.0792
     17  O28       60.1650   56.1770   42.4860 O.2   698  TDM698     -0.2895
     18  N3        62.5090   54.5940   41.3090 N.pl3 698  TDM698     -0.2786
     19  C4        63.6280   53.8560   41.0820 C.2   698  TDM698      0.0320
     20  CM4       64.0680   53.4310   39.6740 C.3   698  TDM698      0.0476
     21  C7'       61.6040   55.0850   40.2360 C.3   698  TDM698      0.1279
     22  C5'       62.2410   56.3250   39.5440 C.2   698  TDM698      0.0657
     23  C4'       62.6150   57.5240   40.1780 C.2   698  TDM698      0.2292
     24  N4'       62.4390   57.7140   41.4820 N.pl3 698  TDM698     -0.0925
     25  N3'       63.1730   58.5210   39.4620 N.2   698  TDM698     -0.3368
     26  C2'       63.3810   58.3920   38.1380 C.1   698  TDM698      0.0663
     27  CM2       64.0150   59.5530   37.3700 C.3   698  TDM698      0.1291
     28  N1'       63.0330   57.2560   37.4980 N.2   698  TDM698     -0.1861
     29  C6'       62.4810   56.2450   38.1640 C.2   698  TDM698      0.1115
@<TRIPOS>BOND
     1    27    26    1
     2    28    26    2
     3    28    29    1
     4    26    25    2
     5    29    22    2
     6    25    23    2
     7    22    23    1
     8    22    21    1
     9    20    19    1
    10    23    24    1
    11    21    18    1
    12    19    18    1
    13    19    12    2
    14    18    14    1
    15     9    10    1
    16     9     2    1
    17     3     2    2
    18    12    11    1
    19    12    13    1
    20     1     2    1
    21    11    10    1
    22    17    15    1
    23     2     4    1
    24    14    15    2
    25    14    13    1
    26    15    16    1
    27     4     5    1
    28     8     5    2
    29     5     7    1
    30     5     6    1
