@<TRIPOS>MOLECULE
3ea4_2SM_A_1.pdb
 24 25 0 0 0
SMALL
GASTEIGER

@<TRIPOS>ATOM
      1  C24       54.8830   56.9570   44.1580 C.3   695  2SM695      0.2560
      2  O23       53.4910   57.3140   43.9530 O.3   695  2SM695     -0.4413
      3  C22       52.7540   56.5490   44.7780 C.2   695  2SM695      0.3426
      4  O25       52.6860   55.3630   44.4880 O.2   695  2SM695     -0.2448
      5  C4        52.0630   57.1350   46.0220 C.ar  695  2SM695      0.0945
      6  C3        52.1870   58.5110   46.2760 C.ar  695  2SM695      0.0078
      7  C2        51.5730   59.0980   47.3890 C.ar  695  2SM695      0.0003
      8  C1        50.8230   58.3200   48.2730 C.ar  695  2SM695      0.0014
      9  C6        50.6880   56.9510   48.0430 C.ar  695  2SM695      0.0205
     10  C5        51.3070   56.3680   46.9250 C.ar  695  2SM695      0.1334
     11  S7        51.0610   54.6180   46.7590 S.O2  695  2SM695      0.0969
     12  O18       49.9430   54.3520   45.9050 O.2   695  2SM695     -0.1482
     13  O17       50.7750   54.0740   48.1220 O.2   695  2SM695     -0.1482
     14  N8        52.3690   53.7780   46.1780 N.am  695  2SM695     -0.0392
     15  C9        53.5970   54.0060   46.6690 C.2   695  2SM695      0.3745
     16  O20       53.8490   54.8120   47.5620 O.2   695  2SM695     -0.2463
     17  N10       54.5890   53.2920   46.0910 N.am  695  2SM695     -0.0796
     18  C11       55.8950   53.3420   46.3910 C.1   695  2SM695      0.1732
     19  N12       56.7700   52.5090   45.6910 N.2   695  2SM695     -0.3405
     20  C13       58.1380   52.5260   45.9670 C.2   695  2SM695      0.1237
     21  C28       59.0570   51.6020   45.1660 C.3   695  2SM695      0.0675
     22  C14       58.7360   53.4420   47.0480 C.2   695  2SM695      0.0500
     23  C15       57.7780   54.2270   47.6940 C.2   695  2SM695      0.1141
     24  N16       56.4090   54.1850   47.3870 N.2   695  2SM695     -0.1682
@<TRIPOS>BOND
     1     2     1    1
     2     2     3    1
     3     4     3    2
     4     3     5    1
     5    21    20    1
     6    19    20    2
     7    19    18    2
     8    12    11    2
     9    20    22    1
    10     5     6   ar
    11     5    10   ar
    12    17    18    1
    13    17    15   am
    14    14    15   am
    15    14    11    1
    16     6     7   ar
    17    18    24    2
    18    15    16    2
    19    11    10    1
    20    11    13    2
    21    10     9   ar
    22    22    23    2
    23    24    23    1
    24     7     8   ar
    25     9     8   ar
