@<TRIPOS>MOLECULE
3ea5_GDP_A_1.pdb
 28 30 0 0 0
SMALL
GASTEIGER

@<TRIPOS>ATOM
      1  PB        40.6270    8.0030  -17.4790 P.3   220  GDP220      0.5373
      2  O1B       40.2700    8.7090  -16.2300 O.3   220  GDP220     -0.1143
      3  O2B       41.9520    8.4790  -18.0330 O.2   220  GDP220     -0.2221
      4  O3B       40.7410    6.5420  -17.1950 O.3   220  GDP220     -0.1143
      5  O3A       39.4020    8.2540  -18.4840 O.3   220  GDP220     -0.2261
      6  PA        39.6070    8.7800  -19.9890 P.3   220  GDP220      0.2231
      7  O1A       40.0470   10.2060  -20.0770 O.3   220  GDP220     -0.4370
      8  O2A       40.5680    7.8740  -20.7020 O.2   220  GDP220     -0.5169
      9  O5'       38.1700    8.5260  -20.6400 O.3   220  GDP220     -0.3111
     10  C5'       36.9880    9.0810  -20.1190 C.3   220  GDP220      0.1813
     11  C4'       35.8110    8.9530  -21.0700 C.3   220  GDP220      0.1799
     12  O4'       34.8910    9.9900  -20.6940 O.3   220  GDP220     -0.3326
     13  C3'       36.1680    9.2210  -22.5210 C.3   220  GDP220      0.2158
     14  O3'       35.2490    8.5640  -23.4010 O.3   220  GDP220     -0.2175
     15  C2'       35.9990   10.7060  -22.6500 C.3   220  GDP220      0.2310
     16  O2'       35.5960   11.0440  -23.9590 O.3   220  GDP220     -0.2158
     17  C1'       34.8660   11.0060  -21.6930 C.3   220  GDP220      0.2293
     18  N9        35.0180   12.2970  -21.0300 N.pl3 220  GDP220     -0.2354
     19  C8        36.1140   12.7610  -20.3810 C.3   220  GDP220      0.2246
     20  N7        35.8690   13.9860  -19.8600 N.2   220  GDP220     -0.2322
     21  C5        34.6210   14.3100  -20.1780 C.2   220  GDP220      0.2182
     22  C6        33.7710   15.4640  -19.9400 C.1   220  GDP220      0.2372
     23  O6        34.1930   16.4450  -19.2860 O.2   220  GDP220     -0.2069
     24  N1        32.5460   15.3920  -20.4340 N.2   220  GDP220     -0.2485
     25  C2        32.0960   14.3320  -21.1390 C.1   220  GDP220      0.2531
     26  N2        30.8610   14.3060  -21.6110 N.pl3 220  GDP220     -0.0226
     27  N3        32.7990   13.2510  -21.3950 N.2   220  GDP220     -0.3074
     28  C4        34.0600   13.1980  -20.9400 C.2   220  GDP220      0.2300
@<TRIPOS>BOND
     1    16    15    1
     2    14    13    1
     3    15    13    1
     4    15    17    1
     5    13    11    1
     6    17    18    1
     7    17    12    1
     8    26    25    1
     9    27    25    2
    10    27    28    2
    11    25    24    2
    12    11    12    1
    13    11    10    1
    14    18    28    1
    15    18    19    1
    16    28    21    1
    17     8     6    2
    18     9    10    1
    19     9     6    1
    20    24    22    2
    21    19    20    1
    22    21    22    1
    23    21    20    2
    24     7     6    1
    25     6     5    1
    26    22    23    2
    27     5     1    1
    28     3     1    2
    29     1     4    1
    30     1     2    1
