@<TRIPOS>MOLECULE
3eah_327_A_1.pdb
 14 15 0 0 0
SMALL
GASTEIGER

@<TRIPOS>ATOM
      1  C1        10.8050   15.8760   56.5350 C.3   864  327864      0.2584
      2  C2        12.7940   17.3490   56.8540 C.2   864  327864      0.4194
      3  C3        12.6910   15.5570   58.7320 C.ar  864  327864      0.1527
      4  C7        11.7220   14.5850   56.6110 C.3   864  327864      0.2582
      5  C8         9.6860   15.6190   55.5940 C.3   864  327864      0.0572
      6  C9         8.5330   16.1690   56.5230 C.3   864  327864      0.0046
      7  C10        7.3900   16.8650   55.7810 C.3   864  327864      0.0001
      8  N1        11.7560   16.9590   56.0140 N.2   864  327864     -0.0584
      9  N2        13.6180   18.2880   56.4270 N.pl3 864  327864      0.2166
     10  C4        12.9920   16.7860   58.2280 C.ar  864  327864      0.1536
     11  S1        13.6960   17.7920   59.4390 S.2   864  327864     -0.0758
     12  C5        13.5450   16.5030   60.5830 C.ar  864  327864      0.0389
     13  C6        13.0200   15.4110   60.1060 C.ar  864  327864      0.0446
     14  O1        12.0970   14.4810   58.0320 O.3   864  327864     -0.4700
@<TRIPOS>BOND
     1     5     6    1
     2     5     1    1
     3     7     6    1
     4     8     1    1
     5     8     2    2
     6     9     2    1
     7     1     4    1
     8     4    14    1
     9     2    10    1
    10    14     3    1
    11    10     3   ar
    12    10    11   ar
    13     3    13   ar
    14    11    12   ar
    15    13    12   ar
