@<TRIPOS>MOLECULE
3eah_HEC_A_1.pdb
 43 50 0 0 0
SMALL
GASTEIGER

@<TRIPOS>ATOM
      1 FE         15.9220   14.2200   57.5430 Fe    861  HEC861      0.0000
      2  CHA       14.6820   12.5680   54.9630 C.2   861  HEC861      0.0000
      3  CHB       16.3960   17.0810   55.6850 C.2   861  HEC861      0.0000
      4  CHC       16.8910   15.9070   60.3600 C.2   861  HEC861      0.0000
      5  CHD       15.2210   11.4330   59.5960 C.2   861  HEC861      0.0000
      6  NA        15.6120   14.7220   55.6870 N.ar  861  HEC861      0.0000
      7  C1A       15.0610   13.9090   54.7450 C.ar  861  HEC861      0.0000
      8  C2A       14.9490   14.6280   53.4560 C.ar  861  HEC861      0.0000
      9  C3A       15.4400   15.8820   53.6620 C.ar  861  HEC861      0.0000
     10  C4A       15.8480   15.9500   55.0550 C.ar  861  HEC861      0.0000
     11  CMA       15.5320   17.0330   52.6270 C.3   861  HEC861      0.0000
     12  CAA       14.3540   14.0850   52.1190 C.3   861  HEC861      0.0000
     13  CBA       12.9350   13.4390   52.2340 C.3   861  HEC861      0.0000
     14  CGA       11.8060   14.2540   51.6510 C.2   861  HEC861      0.0000
     15  O1A       10.6610   14.1190   52.1510 O.co2 861  HEC861      0.0000
     16  O2A       12.0430   15.0140   50.6830 O.co2 861  HEC861      0.0000
     17  NB        16.5560   16.0620   57.9330 N.2   861  HEC861      0.0000
     18  C1B       16.7130   17.1200   57.0430 C.2   861  HEC861      0.0000
     19  C2B       17.2360   18.3260   57.6830 C.2   861  HEC861      0.0000
     20  C3B       17.3760   18.0080   58.9870 C.2   861  HEC861      0.0000
     21  C4B       16.9280   16.6140   59.1420 C.2   861  HEC861      0.0000
     22  CMB       17.5420   19.6750   56.9860 C.3   861  HEC861      0.0000
     23  CAB       17.8610   18.9260   60.1360 C.3   861  HEC861      0.0000
     24  CBB       18.9440   18.4850   61.1080 C.3   861  HEC861      0.0000
     25  NC        16.0360   13.7550   59.5380 N.ar  861  HEC861      0.0000
     26  C1C       16.4500   14.5900   60.5530 C.ar  861  HEC861      0.0000
     27  C2C       16.3820   13.9430   61.8750 C.ar  861  HEC861      0.0000
     28  C3C       15.9180   12.6720   61.6410 C.ar  861  HEC861      0.0000
     29  C4C       15.7240   12.5700   60.2000 C.ar  861  HEC861      0.0000
     30  CMC       16.7430   14.6170   63.2320 C.3   861  HEC861      0.0000
     31  CAC       15.6310   11.5200   62.6160 C.3   861  HEC861      0.0000
     32  CBC       16.1300   11.4010   64.0230 C.3   861  HEC861      0.0000
     33  ND        15.1330   12.3120   57.3320 N.2   861  HEC861      0.0000
     34  C1D       14.9700   11.2990   58.2290 C.2   861  HEC861      0.0000
     35  C2D       14.3980   10.0660   57.5920 C.2   861  HEC861      0.0000
     36  C3D       14.2330   10.3630   56.2230 C.2   861  HEC861      0.0000
     37  C4D       14.6830   11.7970   56.1170 C.2   861  HEC861      0.0000
     38  CMD       14.1050    8.7760   58.3180 C.3   861  HEC861      0.0000
     39  CAD       13.6990    9.4960   55.0640 C.3   861  HEC861      0.0000
     40  CBD       12.3420   10.0560   55.0840 C.3   861  HEC861      0.0000
     41  CGD       11.4440    9.9810   53.8910 C.2   861  HEC861      0.0000
     42  O1D       10.6750   10.8820   53.8920 O.co2 861  HEC861      0.0000
     43  O2D       11.5660    9.0240   52.9880 O.co2 861  HEC861      0.0000
@<TRIPOS>BOND
     1    16    14   ar
     2    14    15   ar
     3    14    13    1
     4    12    13    1
     5    12     8    1
     6    11     9    1
     7    43    41   ar
     8     8     9   ar
     9     8     7   ar
    10     9    10   ar
    11    41    42   ar
    12    41    40    1
    13     7     2    2
    14     7     6   ar
    15     2    37    1
    16    10     3    2
    17    10     6   ar
    18    39    40    1
    19    39    36    1
    20     3    18    1
    21     6     1    1
    22    37    36    1
    23    37    33    2
    24    36    35    2
    25    22    19    1
    26    18    19    1
    27    18    17    2
    28    33     1    1
    29    33    34    1
    30     1    17    1
    31     1    25    1
    32    35    34    1
    33    35    38    1
    34    19    20    2
    35    17    21    1
    36    34     5    2
    37    20    21    1
    38    20    23    1
    39    21     4    2
    40    25    29   ar
    41    25    26   ar
    42     5    29    1
    43    23    24    1
    44    29    28   ar
    45     4    26    1
    46    26    27   ar
    47    28    27   ar
    48    28    31    1
    49    27    30    1
    50    31    32    1
