@<TRIPOS>MOLECULE
3eai_328_A_1.pdb
 25 27 0 0 0
SMALL
GASTEIGER

@<TRIPOS>ATOM
      1  C1       121.7000  116.5380   40.4180 C.ar  905  328905      0.0052
      2  C2       120.5670  116.3240   41.2820 C.ar  905  328905      0.0104
      3  C3       119.9360  115.0250   41.3470 C.ar  905  328905      0.0685
      4  C7       118.8280  114.8040   42.1970 C.1   905  328905      0.1004
      5  C9       126.8470  111.6020   31.5690 C.3   905  328905      0.2525
      6  C10      124.4720  115.5690   36.4610 C.3   905  328905      0.0955
      7  C12      121.9980  115.0610   36.6150 C.3   905  328905      0.0955
      8  C13      122.1740  113.6260   36.1250 C.3   905  328905      0.0432
      9  C14      123.3580  113.5700   35.1600 C.3   905  328905      0.0975
     10  C15      124.6840  114.1490   35.8590 C.3   905  328905      0.0432
     11  C16      123.3770  115.6040   38.6970 C.2   905  328905      0.2490
     12  C19      125.5250  113.6850   31.2890 C.ar  905  328905      0.1431
     13  C20      125.2950  114.8410   30.5180 C.ar  905  328905      0.0577
     14  C21      124.2930  115.7590   30.8900 C.ar  905  328905      0.1035
     15  C24      124.7370  113.4630   32.4480 C.ar  905  328905      0.0726
     16  N25      117.9380  114.6220   42.9020 N.1   905  328905     -0.1908
     17  C6       122.1870  115.4440   39.6290 C.ar  905  328905      0.0536
     18  C5       121.5330  114.1590   39.7190 C.ar  905  328905      0.0052
     19  C4       120.4240  113.9560   40.5670 C.ar  905  328905      0.0104
     20  N17      122.9360  114.2550   33.9260 N.pl3 905  328905     -0.2219
     21  N11      123.2750  115.4180   37.3140 N.am  905  328905     -0.2760
     22  O8       124.4230  115.9000   39.2310 O.2   905  328905     -0.2699
     23  O18      126.5270  112.8140   30.8610 O.3   905  328905     -0.4713
     24  C23      123.7400  114.4140   32.7950 C.ar  905  328905      0.1505
     25  N22      123.5520  115.5220   32.0050 N.ar  905  328905     -0.2275
@<TRIPOS>BOND
     1    13    14   ar
     2    13    12   ar
     3    23    12    1
     4    23     5    1
     5    14    25   ar
     6    12    15   ar
     7    25    24   ar
     8    15    24   ar
     9    24    20    1
    10    20     9    1
    11     9    10    1
    12     9     8    1
    13    10     6    1
    14     8     7    1
    15     6    21    1
    16     7    21    1
    17    21    11   am
    18    11    22    2
    19    11    17    1
    20    17    18   ar
    21    17     1   ar
    22    18    19   ar
    23     1     2   ar
    24    19     3   ar
    25     2     3   ar
    26     3     4    1
    27     4    16    3
