@<TRIPOS>MOLECULE
3eai_H4B_A_1.pdb
 17 18 0 0 0
SMALL
GASTEIGER

@<TRIPOS>ATOM
      1  N1       113.5530  111.7690   32.6060 N.2   902  H4B902     -0.2672
      2  C2       114.7870  112.1120   32.9610 C.1   902  H4B902      0.2609
      3  N2       115.4530  112.4410   31.8620 N.pl3 902  H4B902     -0.0220
      4  N3       115.3090  112.1320   34.1840 N.2   902  H4B902     -0.2466
      5  C4       114.4140  111.7430   35.0880 C.1   902  H4B902      0.2569
      6  O4       114.7060  111.7900   36.2880 O.2   902  H4B902     -0.2052
      7  C4A      113.0950  111.2400   35.0590 C.2   902  H4B902      0.2989
      8  C8A      112.8660  111.3520   33.6670 C.1   902  H4B902      0.1401
      9  N5       112.2120  110.7730   35.9420 N.2   902  H4B902     -0.3830
     10  N8       111.6610  110.9440   33.2710 N.2   902  H4B902     -0.1992
     11  C6       110.8580  110.4750   35.4700 C.2   902  H4B902      0.1466
     12  C7       110.5620  110.6520   34.0480 C.3   902  H4B902      0.1940
     13  C9       110.7560  109.7860   36.8380 C.3   902  H4B902      0.2313
     14  O9       110.0460  110.7890   37.5730 O.3   902  H4B902     -0.2130
     15  C10      109.3990  109.1350   36.5120 C.3   902  H4B902      0.1888
     16  C11      108.4680  108.5950   37.6060 C.3   902  H4B902      0.0387
     17  O10      109.6110  107.7810   36.0910 O.3   902  H4B902     -0.2200
@<TRIPOS>BOND
     1     3     2    1
     2     1     2    2
     3     1     8    2
     4     2     4    2
     5    10     8    2
     6    10    12    1
     7     8     7    1
     8    12    11    1
     9     4     5    2
    10     7     5    1
    11     7     9    2
    12     5     6    2
    13    11     9    2
    14    11    13    1
    15    17    15    1
    16    15    13    1
    17    15    16    1
    18    13    14    1
