@<TRIPOS>MOLECULE
3eai_HEM_A_1.pdb
 43 50 0 0 0
SMALL
GASTEIGER

@<TRIPOS>ATOM
      1  CHA      121.4780  110.5210   30.8650 C.2   901  HEM901      0.0000
      2  CHB      122.5570  114.3260   28.1300 C.2   901  HEM901      0.0000
      3  CHC      126.8920  112.4420   27.3710 C.2   901  HEM901      0.0000
      4  CHD      125.5240  108.3440   29.5330 C.2   901  HEM901      0.0000
      5  C1A      121.4560  111.8010   30.3390 C.ar  901  HEM901      0.0000
      6  C2A      120.4760  112.8260   30.6590 C.ar  901  HEM901      0.0000
      7  C3A      120.7480  113.8700   29.8420 C.ar  901  HEM901      0.0000
      8  C4A      121.9140  113.5040   29.0400 C.ar  901  HEM901      0.0000
      9  CMA      119.9340  115.1760   29.8090 C.3   901  HEM901      0.0000
     10  CAA      119.3820  112.7970   31.7210 C.3   901  HEM901      0.0000
     11  CBA      119.9290  112.7060   33.1420 C.3   901  HEM901      0.0000
     12  CGA      118.8340  112.6090   34.1940 C.2   901  HEM901      0.0000
     13  O1A      119.1340  112.1580   35.3200 O.co2 901  HEM901      0.0000
     14  O2A      117.6760  112.9870   33.9090 O.co2 901  HEM901      0.0000
     15  C1B      123.7740  114.0880   27.5170 C.2   901  HEM901      0.0000
     16  C2B      124.5160  115.0830   26.7550 C.2   901  HEM901      0.0000
     17  C3B      125.7690  114.5950   26.5530 C.2   901  HEM901      0.0000
     18  C4B      125.7900  113.2780   27.2130 C.2   901  HEM901      0.0000
     19  CMB      124.0200  116.4620   26.3080 C.3   901  HEM901      0.0000
     20  CAB      126.7590  115.3370   25.9030 C.3   901  HEM901      0.0000
     21  CBB      127.8830  114.8970   25.2370 C.3   901  HEM901      0.0000
     22  C1C      126.9470  111.2040   27.9810 C.ar  901  HEM901      0.0000
     23  C2C      128.1340  110.3630   28.0440 C.ar  901  HEM901      0.0000
     24  C3C      127.7220  109.1520   28.5800 C.ar  901  HEM901      0.0000
     25  C4C      126.3030  109.2990   28.8670 C.ar  901  HEM901      0.0000
     26  CMC      129.5490  110.7750   27.6040 C.3   901  HEM901      0.0000
     27  CAC      128.4610  107.9970   28.8300 C.3   901  HEM901      0.0000
     28  CBC      129.7440  107.7050   28.3860 C.3   901  HEM901      0.0000
     29  C1D      124.2420  108.5140   29.9990 C.2   901  HEM901      0.0000
     30  C2D      123.5150  107.5570   30.7770 C.2   901  HEM901      0.0000
     31  C3D      122.4000  108.1950   31.1810 C.2   901  HEM901      0.0000
     32  C4D      122.4220  109.5300   30.6340 C.2   901  HEM901      0.0000
     33  CMD      123.8170  106.0890   31.0880 C.3   901  HEM901      0.0000
     34  CAD      121.3820  107.6040   32.1280 C.3   901  HEM901      0.0000
     35  CBD      121.6100  108.1600   33.5080 C.3   901  HEM901      0.0000
     36  CGD      120.7260  107.5070   34.5270 C.2   901  HEM901      0.0000
     37  O1D      120.5690  108.0690   35.6260 O.co2 901  HEM901      0.0000
     38  O2D      120.1870  106.4190   34.2290 O.co2 901  HEM901      0.0000
     39  NA       122.3520  112.2480   29.3820 N.ar  901  HEM901      0.0000
     40  NB       124.5480  112.9870   27.7610 N.2   901  HEM901      0.0000
     41  NC       125.8500  110.5560   28.5080 N.ar  901  HEM901      0.0000
     42  ND       123.5520  109.7010   29.8910 N.2   901  HEM901      0.0000
     43 FE        123.9370  111.2600   28.6300 Fe    901  HEM901      0.0000
@<TRIPOS>BOND
     1    21    20    1
     2    20    17    1
     3    19    16    1
     4    17    16    2
     5    17    18    1
     6    16    15    1
     7    18     3    2
     8    18    40    1
     9     3    22    1
    10    15    40    2
    11    15     2    1
    12    26    23    1
    13    40    43    1
    14    22    23   ar
    15    22    41   ar
    16    23    24   ar
    17     2     8    2
    18    28    27    1
    19    41    43    1
    20    41    25   ar
    21    24    27    1
    22    24    25   ar
    23    43    39    1
    24    43    42    1
    25    25     4    1
    26     8    39   ar
    27     8     7   ar
    28    39     5   ar
    29     4    29    2
    30     9     7    1
    31     7     6   ar
    32    42    29    1
    33    42    32    2
    34    29    30    1
    35     5     6   ar
    36     5     1    2
    37    32     1    1
    38    32    31    1
    39     6    10    1
    40    30    33    1
    41    30    31    2
    42    31    34    1
    43    10    11    1
    44    34    35    1
    45    11    12    1
    46    35    36    1
    47    14    12   ar
    48    12    13   ar
    49    38    36   ar
    50    36    37   ar
