@<TRIPOS>MOLECULE
3ean_NAP_A_1.pdb
 32 34 0 0 0
SMALL
GASTEIGER

@<TRIPOS>ATOM
      1  PA        31.0990   19.4890  132.6730 P.3   601  NAP601      0.2189
      2  O1A       31.6040   20.7170  131.9090 O.2   601  NAP601     -0.5170
      3  O2A       29.6640   19.3570  133.0540 O.3   601  NAP601     -0.4371
      4  O5B       31.9530   19.5420  134.0250 O.3   601  NAP601     -0.3112
      5  C5B       33.2760   19.1120  134.0320 C.3   601  NAP601      0.1813
      6  C4B       33.4780   18.1170  135.1630 C.3   601  NAP601      0.1820
      7  O4B       34.8400   17.6520  135.0980 O.3   601  NAP601     -0.3136
      8  C3B       33.3630   18.7720  136.5300 C.3   601  NAP601      0.2157
      9  O3B       33.3390   17.8060  137.5890 O.3   601  NAP601     -0.2175
     10  C2B       34.6840   19.4980  136.5740 C.3   601  NAP601      0.2314
     11  O2B       35.0180   19.8320  137.9210 O.3   601  NAP601     -0.2630
     12  C1B       35.5880   18.3710  136.1150 C.3   601  NAP601      0.3158
     13  N9A       36.7900   18.9900  135.5290 N.pl3 601  NAP601     -0.1439
     14  C8A       36.8330   19.9920  134.6420 C.3   601  NAP601      0.3377
     15  N7A       38.1130   20.2240  134.3440 N.2   601  NAP601     -0.2095
     16  C5A       38.8760   19.3860  135.0410 C.2   601  NAP601      0.2526
     17  C6A       40.2410   19.1710  135.1290 C.2   601  NAP601      0.4393
     18  N6A       41.0670   19.9130  134.4150 N.pl3 601  NAP601      0.2180
     19  N1A       40.6920   18.1840  135.9290 N.2   601  NAP601      0.0021
     20  C2A       39.8570   17.4060  136.6310 C.3   601  NAP601      0.5254
     21  N3A       38.5400   17.5830  136.5700 N.2   601  NAP601     -0.0055
     22  C4A       38.0330   18.5720  135.7920 C.2   601  NAP601      0.3518
     23  O3        31.5270   17.9770  132.0180 O.3   601  NAP601     -0.2703
     24  PN        30.5880   16.7130  131.3470 P.3   601  NAP601      0.2189
     25  O1N       29.9330   16.0270  132.4780 O.3   601  NAP601     -0.4371
     26  O2N       31.5250   15.9440  130.4780 O.2   601  NAP601     -0.5170
     27  O5D       29.3940   17.5450  130.4370 O.3   601  NAP601     -0.3112
     28  C5D       28.7780   17.1640  129.1720 C.3   601  NAP601      0.1815
     29  P2B       34.8590   21.2960  138.5390 P.3   601  NAP601      0.5328
     30  O1X       33.4870   21.3310  139.3110 O.3   601  NAP601     -0.1145
     31  O2X       36.0110   21.2980  139.6400 O.3   601  NAP601     -0.1145
     32  O3X       34.9750   22.3360  137.5050 O.2   601  NAP601     -0.2224
@<TRIPOS>BOND
     1    28    27    1
     2    27    24    1
     3    26    24    2
     4    24    23    1
     5    24    25    1
     6     2     1    2
     7    23     1    1
     8     1     3    1
     9     1     4    1
    10     4     5    1
    11     5     6    1
    12    15    14    1
    13    15    16    2
    14    18    17    1
    15    14    13    1
    16    16    17    1
    17    16    22    1
    18     7     6    1
    19     7    12    1
    20    17    19    2
    21     6     8    1
    22    13    22    1
    23    13    12    1
    24    22    21    2
    25    19    20    1
    26    12    10    1
    27     8    10    1
    28     8     9    1
    29    21    20    1
    30    10    11    1
    31    32    29    2
    32    11    29    1
    33    29    30    1
    34    29    31    1
