@<TRIPOS>MOLECULE
3eao_NAP_A_1.pdb
 32 34 0 0 0
SMALL
GASTEIGER

@<TRIPOS>ATOM
      1  PA        31.9580   20.0670  131.5310 P.3   601  NAP601      0.2189
      2  O1A       32.3030   21.1590  130.5630 O.2   601  NAP601     -0.5170
      3  O2A       30.5790   19.9850  132.0870 O.3   601  NAP601     -0.4371
      4  O5B       32.9130   20.3510  132.7840 O.3   601  NAP601     -0.3112
      5  C5B       34.2400   19.8730  132.8060 C.3   601  NAP601      0.1813
      6  C4B       34.3820   18.7710  133.8850 C.3   601  NAP601      0.1820
      7  O4B       35.7280   18.2140  133.8160 O.3   601  NAP601     -0.3136
      8  C3B       34.2310   19.2820  135.3240 C.3   601  NAP601      0.2157
      9  O3B       34.0270   18.1830  136.2130 O.3   601  NAP601     -0.2175
     10  C2B       35.6150   19.8670  135.5380 C.3   601  NAP601      0.2314
     11  O2B       35.9030   20.0480  136.9390 O.3   601  NAP601     -0.2630
     12  C1B       36.5040   18.7790  134.9210 C.3   601  NAP601      0.3158
     13  N9A       37.8240   19.2790  134.4380 N.pl3 601  NAP601     -0.1439
     14  C8A       38.0850   20.2370  133.5320 C.3   601  NAP601      0.3377
     15  N7A       39.4090   20.3610  133.3980 N.2   601  NAP601     -0.2095
     16  C5A       39.9820   19.4710  134.2160 C.2   601  NAP601      0.2526
     17  C6A       41.3010   19.1170  134.5220 C.2   601  NAP601      0.4393
     18  N6A       42.3350   19.7300  133.9340 N.pl3 601  NAP601      0.2180
     19  N1A       41.5220   18.1330  135.4320 N.2   601  NAP601      0.0021
     20  C2A       40.5140   17.4970  136.0310 C.3   601  NAP601      0.5254
     21  N3A       39.2500   17.8150  135.7600 N.2   601  NAP601     -0.0055
     22  C4A       38.9680   18.7870  134.8710 C.2   601  NAP601      0.3518
     23  O3        32.4140   18.5400  130.9440 O.3   601  NAP601     -0.2703
     24  PN        31.4930   17.3460  130.1460 P.3   601  NAP601      0.2189
     25  O1N       30.8770   16.5420  131.2300 O.3   601  NAP601     -0.4371
     26  O2N       32.4450   16.6560  129.2360 O.2   601  NAP601     -0.5170
     27  O5D       30.2540   18.1800  129.2790 O.3   601  NAP601     -0.3112
     28  C5D       29.7090   17.8720  127.9530 C.3   601  NAP601      0.1815
     29  P2B       35.9620   21.5580  137.6200 P.3   601  NAP601      0.5328
     30  O1X       34.4950   21.8760  138.2250 O.3   601  NAP601     -0.1145
     31  O2X       37.0130   21.3750  138.8250 O.3   601  NAP601     -0.1145
     32  O3X       36.3270   22.5890  136.6350 O.2   601  NAP601     -0.2224
@<TRIPOS>BOND
     1    28    27    1
     2    26    24    2
     3    27    24    1
     4    24    23    1
     5    24    25    1
     6     2     1    2
     7    23     1    1
     8     1     3    1
     9     1     4    1
    10     4     5    1
    11     5     6    1
    12    15    14    1
    13    15    16    2
    14    14    13    1
    15     7     6    1
    16     7    12    1
    17     6     8    1
    18    18    17    1
    19    16    17    1
    20    16    22    1
    21    13    22    1
    22    13    12    1
    23    17    19    2
    24    22    21    2
    25    12    10    1
    26     8    10    1
    27     8     9    1
    28    19    20    1
    29    10    11    1
    30    21    20    1
    31    32    29    2
    32    11    29    1
    33    29    30    1
    34    29    31    1
