@<TRIPOS>MOLECULE
3eau_NDP_A_1.pdb
 48 52 0 0 0
SMALL
GASTEIGER

@<TRIPOS>ATOM
      1  PA        17.5320   47.7790   21.8100 P.3   1001  NDP1001     0.2189
      2  O1A       17.0490   48.4710   20.5980 O.2   1001  NDP1001    -0.5170
      3  O2A       17.6210   46.3010   21.8310 O.3   1001  NDP1001    -0.4371
      4  O5B       16.6460   48.3100   23.0250 O.3   1001  NDP1001    -0.3112
      5  C5B       16.9320   47.7900   24.3400 C.3   1001  NDP1001     0.1813
      6  C4B       15.9200   48.3850   25.2710 C.3   1001  NDP1001     0.1820
      7  O4B       14.5950   47.8660   24.8600 O.3   1001  NDP1001    -0.3136
      8  C3B       16.0580   47.9850   26.7420 C.3   1001  NDP1001     0.2157
      9  O3B       16.7500   48.9920   27.4430 O.3   1001  NDP1001    -0.2175
     10  C2B       14.6040   47.8120   27.1880 C.3   1001  NDP1001     0.2314
     11  O2B       14.0620   49.0830   27.5140 O.3   1001  NDP1001    -0.2630
     12  C1B       13.9290   47.2330   25.9650 C.3   1001  NDP1001     0.3158
     13  N9A       13.9930   45.7420   25.8340 N.pl3 1001  NDP1001    -0.1439
     14  C8A       15.1150   44.9450   25.6030 C.3   1001  NDP1001     0.3377
     15  N7A       14.8490   43.6610   25.5360 N.2   1001  NDP1001    -0.2095
     16  C5A       13.5040   43.5950   25.7280 C.2   1001  NDP1001     0.2526
     17  C6A       12.6070   42.4920   25.7670 C.2   1001  NDP1001     0.4393
     18  N6A       13.0390   41.2320   25.5960 N.pl3 1001  NDP1001     0.2180
     19  N1A       11.2790   42.7630   25.9860 N.2   1001  NDP1001     0.0021
     20  C2A       10.8480   44.0440   26.1590 C.3   1001  NDP1001     0.5254
     21  N3A       11.6180   45.1670   26.1390 N.2   1001  NDP1001    -0.0055
     22  C4A       12.9480   44.8650   25.9170 C.2   1001  NDP1001     0.3518
     23  O3        18.9810   48.3960   22.1810 O.3   1001  NDP1001    -0.2703
     24  PN        19.6700   49.7390   22.6280 P.3   1001  NDP1001     0.2189
     25  O1N       19.7020   49.8090   24.1120 O.3   1001  NDP1001    -0.4371
     26  O2N       18.9550   50.8260   21.9030 O.2   1001  NDP1001    -0.5170
     27  O5D       21.1420   49.6470   22.0160 O.3   1001  NDP1001    -0.3112
     28  C5D       22.0600   48.6140   22.4230 C.3   1001  NDP1001     0.1813
     29  C4D       23.4490   49.1600   22.5760 C.3   1001  NDP1001     0.1799
     30  O4D       23.9050   49.6600   21.2940 O.3   1001  NDP1001    -0.3327
     31  C3D       23.6130   50.3680   23.5070 C.3   1001  NDP1001     0.2158
     32  O3D       23.6070   50.0560   24.8720 O.3   1001  NDP1001    -0.2175
     33  C2D       24.9060   50.9930   22.9920 C.3   1001  NDP1001     0.2309
     34  O2D       26.0050   50.3230   23.5980 O.3   1001  NDP1001    -0.2158
     35  C1D       24.7810   50.7620   21.4820 C.3   1001  NDP1001     0.2263
     36  N1N       24.2290   51.9360   20.7350 N.pl3 1001  NDP1001    -0.2787
     37  C2N       25.1350   52.6840   19.9950 C.3   1001  NDP1001     0.1244
     38  C3N       24.7030   53.7930   19.2630 C.2   1001  NDP1001     0.0544
     39  C7N       25.6600   54.6320   18.4450 C.2   1001  NDP1001     0.2818
     40  O7N       25.3320   55.7840   18.1140 O.2   1001  NDP1001    -0.2670
     41  N7N       26.8390   54.0840   18.1120 N.am  1001  NDP1001    -0.0839
     42  C4N       23.3140   54.1480   19.2880 C.2   1001  NDP1001     0.0033
     43  C5N       22.4000   53.3780   20.0470 C.2   1001  NDP1001     0.0157
     44  C6N       22.8590   52.2820   20.7640 C.2   1001  NDP1001     0.0633
     45  P2B       12.9070   49.3970   28.5910 P.3   1001  NDP1001     0.5328
     46  O1X       13.3480   50.6310   29.3460 O.3   1001  NDP1001    -0.1145
     47  O2X       11.7060   49.5600   27.6920 O.2   1001  NDP1001    -0.2224
     48  O3X       12.7940   48.1810   29.4930 O.3   1001  NDP1001    -0.1145
@<TRIPOS>BOND
     1    41    39   am
     2    40    39    2
     3    39    38    1
     4    38    42    2
     5    38    37    1
     6    42    43    1
     7    37    36    1
     8    43    44    2
     9     2     1    2
    10    36    44    1
    11    36    35    1
    12    30    35    1
    13    30    29    1
    14    35    33    1
    15     1     3    1
    16     1    23    1
    17     1     4    1
    18    26    24    2
    19    27    28    1
    20    27    24    1
    21    23    24    1
    22    28    29    1
    23    29    31    1
    24    24    25    1
    25    33    31    1
    26    33    34    1
    27     4     5    1
    28    31    32    1
    29     5     6    1
    30     7     6    1
    31     7    12    1
    32     6     8    1
    33    15    14    1
    34    15    16    2
    35    18    17    1
    36    14    13    1
    37    16    17    1
    38    16    22    1
    39    17    19    2
    40    13    22    1
    41    13    12    1
    42    22    21    2
    43    12    10    1
    44    19    20    1
    45    21    20    1
    46     8    10    1
    47     8     9    1
    48    10    11    1
    49    11    45    1
    50    47    45    2
    51    45    46    1
    52    45    48    1
