@<TRIPOS>MOLECULE
3eau_PDN_A_1.pdb
 26 29 0 0 0
SMALL
GASTEIGER

@<TRIPOS>ATOM
      1  C1        24.1470   63.9200   22.9060 C.3   501  PDN501      0.0126
      2  C2        24.1370   65.2610   22.9130 C.3   501  PDN501      0.0695
      3  C3        23.6890   66.0050   21.8810 C.2   501  PDN501      0.1728
      4  C4        22.9650   65.4810   20.9130 C.2   501  PDN501      0.0332
      5  C5        22.6600   64.2100   20.9070 C.2   501  PDN501     -0.0199
      6  C6        21.9580   63.7050   19.8980 C.2   501  PDN501     -0.0088
      7  C7        21.8840   62.4310   19.5200 C.2   501  PDN501     -0.0263
      8  C8        22.5760   61.4210   20.4670 C.3   501  PDN501      0.0293
      9  C9        23.5280   61.9740   21.4410 C.3   501  PDN501      0.0653
     10  C10       23.1860   63.3200   22.0180 C.3   501  PDN501      0.0262
     11  C11       24.0810   60.9550   22.3780 C.2   501  PDN501      0.1510
     12  C12       24.5840   59.6540   21.7560 C.3   501  PDN501      0.0673
     13  C13       23.5670   59.1280   20.9100 C.3   501  PDN501      0.0396
     14  C14       23.0750   60.1390   19.8390 C.3   501  PDN501      0.0076
     15  C15       22.2750   59.3320   18.9260 C.3   501  PDN501      0.0034
     16  C16       22.8090   57.8440   19.1010 C.3   501  PDN501      0.0377
     17  C17       23.9850   57.9760   19.9800 C.3   501  PDN501      0.1799
     18  C18       22.4440   58.8300   21.8290 C.3   501  PDN501      0.0033
     19  C19       22.0780   63.1810   23.0210 C.3   501  PDN501      0.0048
     20  C20       24.4740   56.6850   20.7900 C.2   501  PDN501      0.2109
     21  C21       23.5190   55.5780   21.1160 C.3   501  PDN501      0.2484
     22  O1        24.0330   67.1530   21.8230 O.2   501  PDN501     -0.2913
     23  O2        24.1010   61.1520   23.4890 O.2   501  PDN501     -0.2960
     24  O3        24.9570   58.2970   19.1270 O.3   501  PDN501     -0.2181
     25  O4        25.5100   56.5620   21.1540 O.2   501  PDN501     -0.2907
     26  O5        23.6760   55.0010   22.2940 O.3   501  PDN501     -0.2118
@<TRIPOS>BOND
     1    15    16    1
     2    15    14    1
     3    16    17    1
     4    24    17    1
     5     7     6    2
     6     7     8    1
     7    14     8    1
     8    14    13    1
     9     6     5    1
    10    17    20    1
    11    17    13    1
    12     8     9    1
    13    20    21    1
    14    20    25    2
    15     5     4    2
    16     5    10    1
    17    13    12    1
    18    13    18    1
    19     4     3    1
    20    21    26    1
    21     9    10    1
    22     9    11    1
    23    12    11    1
    24    22     3    2
    25     3     2    1
    26    10     1    1
    27    10    19    1
    28    11    23    2
    29     1     2    1
