@<TRIPOS>MOLECULE
3eax_LZP_A_1.pdb
 48 52 0 0 0
SMALL
GASTEIGER

@<TRIPOS>ATOM
      1  C1        39.0610   20.1840   66.4650 C.ar  322  LZP322     -0.0002
      2  C2        38.0960   19.7160   67.4540 C.ar  322  LZP322     -0.0000
      3  C3        37.7250   18.1870   67.5110 C.ar  322  LZP322     -0.0002
      4  C4        38.3640   17.2550   66.5610 C.ar  322  LZP322     -0.0007
      5  C5        39.3540   17.7090   65.5410 C.ar  322  LZP322      0.0212
      6  C6        39.6880   19.2530   65.5270 C.ar  322  LZP322     -0.0007
      7  C7        40.0220   16.6860   64.5380 C.3   322  LZP322      0.2320
      8  C8        41.2770   14.8760   65.9010 C.ar  322  LZP322      0.1391
      9  C9        42.5290   15.6950   66.0930 C.ar  322  LZP322      0.0369
     10  C10       43.6310   15.2590   66.9610 C.ar  322  LZP322      0.0032
     11  C11       43.5380   13.9930   67.6780 C.ar  322  LZP322      0.0031
     12  C12       42.3310   13.1270   67.5400 C.ar  322  LZP322      0.0382
     13  C13       41.2360   13.5900   66.6570 C.ar  322  LZP322      0.0398
     14  C14       42.2480   11.8010   68.2990 C.2   322  LZP322      0.1811
     15  C15       42.4710   11.7870   69.8560 C.3   322  LZP322      0.1429
     16  C16       43.7370   11.0780   70.4450 C.2   322  LZP322      0.2338
     17  C17       44.1490   11.3840   71.9140 C.2   322  LZP322      0.2845
     18  C18       45.0980   13.0140   73.7520 C.3   322  LZP322      0.1153
     19  C19       44.6430   14.5040   74.1230 C.3   322  LZP322      0.1153
     20  C20       43.8990   15.0420   71.7230 C.3   322  LZP322      0.1153
     21  C21       44.8680   13.8480   71.3220 C.3   322  LZP322      0.1153
     22  N1        44.6740   12.6730   72.3020 N.am  322  LZP322     -0.2702
     23  N2        43.4830   14.9040   73.1750 N.am  322  LZP322     -0.2702
     24  O1        40.1960   15.3090   65.0470 O.3   322  LZP322     -0.4706
     25  O2        42.0070   10.7380   67.7150 O.2   322  LZP322     -0.2909
     26  O3        44.3940   10.2750   69.7640 O.2   322  LZP322     -0.2860
     27  O4        44.0090   10.4560   72.7380 O.2   322  LZP322     -0.2668
     28  C22       42.1980   15.1260   73.7160 C.2   322  LZP322      0.2845
     29  C23       41.0070   15.4920   72.7960 C.2   322  LZP322      0.2338
     30  C24       39.6280   14.8530   73.1470 C.3   322  LZP322      0.1429
     31  C25       39.3660   13.3290   72.8740 C.2   322  LZP322      0.1811
     32  C26       40.0130   12.5250   75.3030 C.ar  322  LZP322      0.0398
     33  C27       39.9440   12.2890   73.8450 C.ar  322  LZP322      0.0382
     34  C28       40.4600   10.9930   73.3220 C.ar  322  LZP322      0.0031
     35  C29       41.0160    9.9890   74.2310 C.ar  322  LZP322      0.0032
     36  C30       41.0700   10.2570   75.6720 C.ar  322  LZP322      0.0369
     37  C31       40.5690   11.5400   76.2730 C.ar  322  LZP322      0.1391
     38  C32       39.4760   12.0580   78.5290 C.3   322  LZP322      0.2320
     39  C33       37.7170   14.1860   78.4040 C.ar  322  LZP322     -0.0007
     40  C34       39.1490   13.5860   78.6920 C.ar  322  LZP322      0.0212
     41  C35       40.1980   14.5460   79.1300 C.ar  322  LZP322     -0.0007
     42  C36       39.9270   15.9840   79.2900 C.ar  322  LZP322     -0.0002
     43  C37       38.4840   16.5360   78.9900 C.ar  322  LZP322     -0.0000
     44  C38       37.4390   15.6140   78.5600 C.ar  322  LZP322     -0.0002
     45  O5        41.9550   15.0220   74.9460 O.2   322  LZP322     -0.2668
     46  O6        41.1340   16.2490   71.8240 O.2   322  LZP322     -0.2860
     47  O7        38.6990   12.9980   71.8830 O.2   322  LZP322     -0.2909
     48  O8        40.6430   11.7700   77.6880 O.3   322  LZP322     -0.4706
@<TRIPOS>BOND
     1     7    24    1
     2     7     5    1
     3    24     8    1
     4     6     5   ar
     5     6     1   ar
     6     5     4   ar
     7     8     9   ar
     8     8    13   ar
     9     9    10   ar
    10     1     2   ar
    11     4     3   ar
    12    13    12   ar
    13    10    11   ar
    14     2     3   ar
    15    12    11   ar
    16    12    14    1
    17    25    14    2
    18    14    15    1
    19    26    16    2
    20    15    16    1
    21    16    17    1
    22    21    20    1
    23    21    22    1
    24    20    23    1
    25    46    29    2
    26    47    31    2
    27    17    22   am
    28    17    27    2
    29    22    18    1
    30    29    30    1
    31    29    28    1
    32    31    30    1
    33    31    33    1
    34    23    28   am
    35    23    19    1
    36    34    33   ar
    37    34    35   ar
    38    28    45    2
    39    18    19    1
    40    33    32   ar
    41    35    36   ar
    42    32    37   ar
    43    36    37   ar
    44    37    48    1
    45    48    38    1
    46    39    44   ar
    47    39    40   ar
    48    38    40    1
    49    44    43   ar
    50    40    41   ar
    51    43    42   ar
    52    41    42   ar
