@<TRIPOS>MOLECULE
3eb0_DRK_A_1.pdb
 27 30 0 0 0
SMALL
GASTEIGER

@<TRIPOS>ATOM
      1  OAA       44.5420    9.9030    1.6740 O.2   384  DRK384     -0.2092
      2  CAS       45.0130    9.1110    2.4800 C.1   384  DRK384      0.2073
      3  NAP       44.5640    8.9640    3.7170 N.2   384  DRK384     -0.3328
      4  CAW       45.3020    8.0320    4.3230 C.ar  384  DRK384      0.1452
      5  CAH       45.2200    7.5230    5.6220 C.ar  384  DRK384      0.0331
      6  CAE       46.1070    6.5430    6.0410 C.ar  384  DRK384      0.0027
      7  CAG       47.0690    6.0770    5.1540 C.ar  384  DRK384      0.0002
      8  CAK       47.1600    6.5750    3.8550 C.ar  384  DRK384      0.0034
      9  CAZ       46.2780    7.5610    3.4240 C.ar  384  DRK384      0.0450
     10  CAV       46.0830    8.2680    2.2260 C.2   384  DRK384      0.1282
     11  CAT       46.7460    8.2560    0.9720 C.2   384  DRK384      0.1640
     12  NAQ       46.4530    9.0800   -0.0360 N.2   384  DRK384     -0.3995
     13  CAX       47.2220    8.8640   -1.1030 C.2   384  DRK384      0.1325
     14  CAI       47.2610    9.4720   -2.3580 C.2   384  DRK384      0.0279
     15  CAD       48.1880    9.0540   -3.3050 C.2   384  DRK384     -0.0188
     16  CAF       49.0700    8.0140   -2.9940 C.3   384  DRK384      0.0522
     17  CAJ       49.0290    7.3980   -1.7430 C.2   384  DRK384     -0.0172
     18  CAY       48.1000    7.8330   -0.7940 C.2   384  DRK384      0.0490
     19  CAU       47.8010    7.4600    0.5070 C.2   384  DRK384      0.1516
     20  NAO       48.4350    6.4890    1.1490 N.2   384  DRK384     -0.0803
     21  OAR       49.1120    5.5100    0.4680 O.2   384  DRK384     -0.3772
     22  CAM       49.8250    4.5810    1.3340 C.3   384  DRK384      0.2412
     23  CAN       50.6430    5.3140    2.4180 C.3   384  DRK384      0.0859
     24  CBA       52.1470    5.1690    2.1930 C.3   384  DRK384      0.1886
     25  OAC       52.7760    5.3550    3.4690 O.3   384  DRK384     -0.2202
     26  CAL       52.6610    6.2160    1.1600 C.3   384  DRK384      0.2148
     27  OAB       52.6980    5.7050   -0.2010 O.3   384  DRK384     -0.2176
@<TRIPOS>BOND
     1    15    16    1
     2    15    14    2
     3    16    17    1
     4    14    13    1
     5    17    18    2
     6    13    18    1
     7    13    12    2
     8    18    19    1
     9    27    26    1
    10    12    11    2
    11    21    20    1
    12    21    22    1
    13    19    11    1
    14    19    20    2
    15    11    10    1
    16    26    24    1
    17    22    23    1
    18     1     2    2
    19    24    23    1
    20    24    25    1
    21    10     2    1
    22    10     9    2
    23     2     3    2
    24     9     8   ar
    25     9     4   ar
    26     3     4    2
    27     8     7   ar
    28     4     5   ar
    29     7     6   ar
    30     5     6   ar
