@<TRIPOS>MOLECULE
3eb1_LZQ_A_1.pdb
 29 31 0 0 0
SMALL
GASTEIGER

@<TRIPOS>ATOM
      1  C01       45.7950   12.1820    2.5370 C.ar  322  LZQ322     -0.0017
      2  C07       45.9480   14.6770    2.4470 C.3   322  LZQ322      0.1822
      3  C09       47.5190   15.6020    4.2050 C.2   322  LZQ322      0.2549
      4  C10       48.3580   16.5460    4.6460 C.2   322  LZQ322      0.4220
      5  C13       49.3320   10.5080   -1.7620 C.ar  322  LZQ322     -0.0024
      6  C19       45.6650   10.4560   -3.5510 C.ar  322  LZQ322     -0.0024
      7  N01       47.0600   11.8680   -1.7400 N.pl3 322  LZQ322     -0.2996
      8  O01       47.9190   17.9470    4.6180 O.co2 322  LZQ322     -0.2373
      9  C02       45.9150   10.8880    1.9000 C.ar  322  LZQ322      0.0010
     10  C14       50.0300   10.3850   -0.4630 C.ar  322  LZQ322     -0.0026
     11  C20       45.3730   10.4520   -5.0080 C.ar  322  LZQ322     -0.0026
     12  O02       44.7160   14.9850    2.8530 O.3   322  LZQ322     -0.2178
     13  O10       47.2810   14.6120    4.8970 O.2   322  LZQ322     -0.2842
     14  O11       49.4750   16.2240    5.0680 O.co2 322  LZQ322     -0.2373
     15  C03       46.3250   10.7710    0.5060 C.ar  322  LZQ322      0.0145
     16  C15       50.7470    9.1410   -0.1130 C.ar  322  LZQ322     -0.0003
     17  C21       45.0670    9.1890   -5.7110 C.ar  322  LZQ322     -0.0003
     18  C04       46.6270   11.9700   -0.2760 C.ar  322  LZQ322      0.0481
     19  C16       50.7810    8.0080   -1.0460 C.ar  322  LZQ322     -0.0000
     20  C22       45.0480    7.9240   -4.9730 C.ar  322  LZQ322     -0.0000
     21  C05       46.5010   13.2990    0.3830 C.ar  322  LZQ322      0.0127
     22  C17       50.0990    8.1100   -2.3370 C.ar  322  LZQ322     -0.0003
     23  C23       45.3350    7.9210   -3.5350 C.ar  322  LZQ322     -0.0003
     24  C06       46.0780   13.4110    1.8110 C.ar  322  LZQ322      0.0094
     25  C18       49.3750    9.3550   -2.6990 C.ar  322  LZQ322     -0.0026
     26  C24       45.6420    9.1770   -2.8200 C.ar  322  LZQ322     -0.0026
     27  C08       46.8660   15.8140    2.7950 C.3   322  LZQ322      0.1136
     28  C11       48.5580   11.8510   -2.1390 C.3   322  LZQ322      0.1180
     29  C12       45.9870   11.8400   -2.8210 C.3   322  LZQ322      0.1180
@<TRIPOS>BOND
     1    17    11   ar
     2    17    20   ar
     3    11     6   ar
     4    20    23   ar
     5     6    29    1
     6     6    26   ar
     7    23    26   ar
     8    29     7    1
     9    25    22   ar
    10    25     5   ar
    11    22    19   ar
    12    28     5    1
    13    28     7    1
    14     5    10   ar
    15     7    18    1
    16    19    16   ar
    17    10    16   ar
    18    18    21   ar
    19    18    15   ar
    20    21    24   ar
    21    15     9   ar
    22    24     2    1
    23    24     1   ar
    24     9     1   ar
    25     2    27    1
    26     2    12    1
    27    27     3    1
    28     3     4    1
    29     3    13    2
    30     8     4   ar
    31     4    14   ar
