@<TRIPOS>MOLECULE
3eb3_PDN_A_1.pdb
 26 29 0 0 0
SMALL
GASTEIGER

@<TRIPOS>ATOM
      1  C1        45.3710   46.3390   10.5150 C.3   601  PDN601      0.0123
      2  C2        45.2160   46.5860   12.0410 C.3   601  PDN601      0.0695
      3  C3        44.2860   47.8060   12.2700 C.2   601  PDN601      0.1725
      4  C4        43.3050   48.1510   11.3100 C.2   601  PDN601      0.0290
      5  C5        43.1230   47.4160   10.1160 C.2   601  PDN601     -0.0416
      6  C6        42.0060   47.8510    9.1480 C.3   601  PDN601      0.0221
      7  C7        42.2970   47.5250    7.6750 C.3   601  PDN601      0.0048
      8  C8        42.8980   46.1180    7.4140 C.3   601  PDN601      0.0076
      9  C9        44.2280   45.9930    8.2360 C.3   601  PDN601      0.0610
     10  C10       43.9870   46.1640    9.8050 C.3   601  PDN601      0.0222
     11  C11       44.9890   44.6570    7.8920 C.2   601  PDN601      0.1506
     12  C12       45.0950   44.2650    6.3970 C.3   601  PDN601      0.0673
     13  C13       43.7460   44.4430    5.6470 C.3   601  PDN601      0.0393
     14  C14       43.1890   45.8740    5.9150 C.3   601  PDN601      0.0036
     15  C15       41.9950   45.9630    4.9430 C.3   601  PDN601      0.0031
     16  C16       42.5730   45.3200    3.6660 C.3   601  PDN601      0.0377
     17  C17       43.8720   44.5440    4.0820 C.3   601  PDN601      0.1799
     18  C18       42.7270   43.3400    6.1130 C.3   601  PDN601      0.0033
     19  C19       43.2400   44.9100   10.3670 C.3   601  PDN601      0.0045
     20  C20       43.9450   43.1540    3.3460 C.2   601  PDN601      0.2109
     21  C21       45.1270   42.2010    3.6240 C.3   601  PDN601      0.2484
     22  O1        44.3870   48.4700   13.2940 O.2   601  PDN601     -0.2914
     23  O2        45.4810   43.9250    8.7460 O.2   601  PDN601     -0.2961
     24  O3        45.0050   45.3400    3.7360 O.3   601  PDN601     -0.2181
     25  O4        43.0610   42.8140    2.5730 O.2   601  PDN601     -0.2907
     26  O5        45.9550   42.0610    2.4540 O.3   601  PDN601     -0.2118
@<TRIPOS>BOND
     1    26    21    1
     2    25    20    2
     3    20    21    1
     4    20    17    1
     5    16    17    1
     6    16    15    1
     7    24    17    1
     8    17    13    1
     9    15    14    1
    10    13    14    1
    11    13    18    1
    12    13    12    1
    13    14     8    1
    14    12    11    1
    15     8     7    1
    16     8     9    1
    17     7     6    1
    18    11     9    1
    19    11    23    2
    20     9    10    1
    21     6     5    1
    22    10     5    1
    23    10    19    1
    24    10     1    1
    25     5     4    2
    26     1     2    1
    27     4     3    1
    28     2     3    1
    29     3    22    2
