@<TRIPOS>MOLECULE
3eb3_NDP_A_1.pdb
 48 52 0 0 0
SMALL
GASTEIGER

@<TRIPOS>ATOM
      1  PA        17.7280   47.7690   21.7860 P.3   1001  NDP1001     0.2189
      2  O1A       17.2080   48.4760   20.5980 O.2   1001  NDP1001    -0.5170
      3  O2A       17.8400   46.2860   21.7620 O.3   1001  NDP1001    -0.4371
      4  O5B       16.8680   48.2590   23.0310 O.3   1001  NDP1001    -0.3112
      5  C5B       17.1990   47.7250   24.3290 C.3   1001  NDP1001     0.1813
      6  C4B       16.2070   48.3170   25.2870 C.3   1001  NDP1001     0.1820
      7  O4B       14.8750   47.8080   24.9020 O.3   1001  NDP1001    -0.3136
      8  C3B       16.3710   47.9290   26.7600 C.3   1001  NDP1001     0.2157
      9  O3B       17.0680   48.9520   27.4320 O.3   1001  NDP1001    -0.2175
     10  C2B       14.9230   47.7490   27.2310 C.3   1001  NDP1001     0.2314
     11  O2B       14.3750   49.0030   27.5970 O.3   1001  NDP1001    -0.2630
     12  C1B       14.2150   47.1870   26.0100 C.3   1001  NDP1001     0.3158
     13  N9A       14.2410   45.7000   25.8880 N.pl3 1001  NDP1001    -0.1439
     14  C8A       15.3420   44.8800   25.6770 C.3   1001  NDP1001     0.3377
     15  N7A       15.0450   43.6040   25.6100 N.2   1001  NDP1001    -0.2095
     16  C5A       13.7000   43.5720   25.7840 C.2   1001  NDP1001     0.2526
     17  C6A       12.7780   42.4950   25.8090 C.2   1001  NDP1001     0.4393
     18  N6A       13.1870   41.2300   25.6510 N.pl3 1001  NDP1001     0.2180
     19  N1A       11.4520   42.7990   26.0040 N.2   1001  NDP1001     0.0021
     20  C2A       11.0510   44.0870   26.1630 C.3   1001  NDP1001     0.5254
     21  N3A       11.8520   45.1880   26.1510 N.2   1001  NDP1001    -0.0055
     22  C4A       13.1720   44.8530   25.9460 C.2   1001  NDP1001     0.3518
     23  O3        19.1740   48.4040   22.1510 O.3   1001  NDP1001    -0.2703
     24  PN        19.8410   49.7490   22.6470 P.3   1001  NDP1001     0.2189
     25  O1N       19.8730   49.7900   24.1300 O.3   1001  NDP1001    -0.4371
     26  O2N       19.0990   50.8450   21.9500 O.2   1001  NDP1001    -0.5170
     27  O5D       21.3160   49.7100   22.0280 O.3   1001  NDP1001    -0.3112
     28  C5D       22.2240   48.6600   22.3770 C.3   1001  NDP1001     0.1813
     29  C4D       23.6200   49.1910   22.5430 C.3   1001  NDP1001     0.1799
     30  O4D       24.0900   49.7200   21.2850 O.3   1001  NDP1001    -0.3327
     31  C3D       23.7990   50.3640   23.5170 C.3   1001  NDP1001     0.2158
     32  O3D       23.7360   50.0400   24.8750 O.3   1001  NDP1001    -0.2175
     33  C2D       25.1240   50.9560   23.0330 C.3   1001  NDP1001     0.2309
     34  O2D       26.1890   50.2250   23.6140 O.3   1001  NDP1001    -0.2158
     35  C1D       24.9930   50.7830   21.5160 C.3   1001  NDP1001     0.2263
     36  N1N       24.4980   52.0160   20.8300 N.pl3 1001  NDP1001    -0.2787
     37  C2N       25.4040   52.7330   20.0670 C.3   1001  NDP1001     0.1244
     38  C3N       25.0200   53.9040   19.4030 C.2   1001  NDP1001     0.0544
     39  C7N       25.9840   54.7020   18.5560 C.2   1001  NDP1001     0.2818
     40  O7N       25.7110   55.8860   18.3070 O.2   1001  NDP1001    -0.2670
     41  N7N       27.0840   54.0860   18.1080 N.am  1001  NDP1001    -0.0839
     42  C4N       23.6680   54.3660   19.5260 C.2   1001  NDP1001     0.0033
     43  C5N       22.7510   53.6340   20.3000 C.2   1001  NDP1001     0.0157
     44  C6N       23.1550   52.4730   20.9450 C.2   1001  NDP1001     0.0633
     45  P2B       13.1400   49.2820   28.6020 P.3   1001  NDP1001     0.5328
     46  O1X       13.4380   50.5620   29.3290 O.3   1001  NDP1001    -0.1145
     47  O2X       11.9760   49.3190   27.6330 O.2   1001  NDP1001    -0.2224
     48  O3X       13.0610   48.0840   29.5440 O.3   1001  NDP1001    -0.1145
@<TRIPOS>BOND
     1    41    39   am
     2    40    39    2
     3    39    38    1
     4    38    42    2
     5    38    37    1
     6    42    43    1
     7    37    36    1
     8    43    44    2
     9     2     1    2
    10    36    44    1
    11    36    35    1
    12    30    35    1
    13    30    29    1
    14    35    33    1
    15     3     1    1
    16     1    23    1
    17     1     4    1
    18    26    24    2
    19    27    28    1
    20    27    24    1
    21    23    24    1
    22    28    29    1
    23    29    31    1
    24    24    25    1
    25     4     5    1
    26    33    31    1
    27    33    34    1
    28    31    32    1
    29     5     6    1
    30     7     6    1
    31     7    12    1
    32     6     8    1
    33    15    14    1
    34    15    16    2
    35    18    17    1
    36    14    13    1
    37    16    17    1
    38    16    22    1
    39    17    19    2
    40    13    22    1
    41    13    12    1
    42    22    21    2
    43    19    20    1
    44    12    10    1
    45    21    20    1
    46     8    10    1
    47     8     9    1
    48    10    11    1
    49    11    45    1
    50    47    45    2
    51    45    46    1
    52    45    48    1
