@<TRIPOS>MOLECULE
3eb4_NDP_A_1.pdb
 48 52 0 0 0
SMALL
GASTEIGER

@<TRIPOS>ATOM
      1  PA        17.7100   47.8280   21.8920 P.3   1001  NDP1001     0.2189
      2  O1A       17.2120   48.5440   20.6930 O.2   1001  NDP1001    -0.5170
      3  O2A       17.7980   46.3550   21.8720 O.3   1001  NDP1001    -0.4371
      4  O5B       16.8360   48.3410   23.1200 O.3   1001  NDP1001    -0.3112
      5  C5B       17.1410   47.8120   24.4290 C.3   1001  NDP1001     0.1813
      6  C4B       16.1420   48.4070   25.3680 C.3   1001  NDP1001     0.1820
      7  O4B       14.8100   47.8840   24.9830 O.3   1001  NDP1001    -0.3136
      8  C3B       16.2990   48.0190   26.8360 C.3   1001  NDP1001     0.2157
      9  O3B       17.0080   49.0280   27.5050 O.3   1001  NDP1001    -0.2175
     10  C2B       14.8550   47.8580   27.3080 C.3   1001  NDP1001     0.2314
     11  O2B       14.3160   49.1320   27.6390 O.3   1001  NDP1001    -0.2630
     12  C1B       14.1600   47.2650   26.1030 C.3   1001  NDP1001     0.3158
     13  N9A       14.2200   45.7750   25.9930 N.pl3 1001  NDP1001    -0.1439
     14  C8A       15.3400   44.9690   25.8020 C.3   1001  NDP1001     0.3377
     15  N7A       15.0680   43.6870   25.7440 N.2   1001  NDP1001    -0.2095
     16  C5A       13.7200   43.6320   25.9010 C.2   1001  NDP1001     0.2526
     17  C6A       12.8150   42.5340   25.9290 C.2   1001  NDP1001     0.4393
     18  N6A       13.2440   41.2730   25.7840 N.pl3 1001  NDP1001     0.2180
     19  N1A       11.4820   42.8150   26.1090 N.2   1001  NDP1001     0.0021
     20  C2A       11.0580   44.1030   26.2540 C.3   1001  NDP1001     0.5254
     21  N3A       11.8380   45.2220   26.2410 N.2   1001  NDP1001    -0.0055
     22  C4A       13.1690   44.9060   26.0580 C.2   1001  NDP1001     0.3518
     23  O3        19.1510   48.4390   22.3050 O.3   1001  NDP1001    -0.2703
     24  PN        19.8350   49.7920   22.7100 P.3   1001  NDP1001     0.2189
     25  O1N       19.8790   49.9210   24.1870 O.3   1001  NDP1001    -0.4371
     26  O2N       19.1010   50.8460   21.9550 O.2   1001  NDP1001    -0.5170
     27  O5D       21.3050   49.6850   22.0880 O.3   1001  NDP1001    -0.3112
     28  C5D       22.2360   48.6870   22.5550 C.3   1001  NDP1001     0.1813
     29  C4D       23.6180   49.2450   22.6940 C.3   1001  NDP1001     0.1799
     30  O4D       24.0710   49.7160   21.4040 O.3   1001  NDP1001    -0.3327
     31  C3D       23.7880   50.4760   23.5930 C.3   1001  NDP1001     0.2158
     32  O3D       23.7750   50.2090   24.9660 O.3   1001  NDP1001    -0.2175
     33  C2D       25.0850   51.0730   23.0630 C.3   1001  NDP1001     0.2309
     34  O2D       26.1720   50.3910   23.6740 O.3   1001  NDP1001    -0.2158
     35  C1D       24.9510   50.8110   21.5640 C.3   1001  NDP1001     0.2263
     36  N1N       24.4050   51.9660   20.7850 N.pl3 1001  NDP1001    -0.2787
     37  C2N       25.3170   52.7130   20.0470 C.3   1001  NDP1001     0.1244
     38  C3N       24.8850   53.8030   19.2860 C.2   1001  NDP1001     0.0544
     39  C7N       25.8420   54.6410   18.4640 C.2   1001  NDP1001     0.2818
     40  O7N       25.5050   55.7760   18.1240 O.2   1001  NDP1001    -0.2670
     41  N7N       27.0310   54.0990   18.1290 N.am  1001  NDP1001    -0.0839
     42  C4N       23.4930   54.1400   19.2780 C.2   1001  NDP1001     0.0033
     43  C5N       22.5770   53.3750   20.0340 C.2   1001  NDP1001     0.0157
     44  C6N       23.0300   52.2970   20.7790 C.2   1001  NDP1001     0.0633
     45  P2B       13.1240   49.4310   28.6790 P.3   1001  NDP1001     0.5328
     46  O1X       13.5000   50.6790   29.4460 O.3   1001  NDP1001    -0.1145
     47  O2X       11.9460   49.5630   27.7410 O.2   1001  NDP1001    -0.2224
     48  O3X       13.0230   48.2100   29.5760 O.3   1001  NDP1001    -0.1145
@<TRIPOS>BOND
     1    40    39    2
     2    41    39   am
     3    39    38    1
     4    42    38    2
     5    42    43    1
     6    38    37    1
     7    43    44    2
     8    37    36    1
     9     2     1    2
    10    44    36    1
    11    36    35    1
    12    30    35    1
    13    30    29    1
    14    35    33    1
    15     3     1    1
    16     1    23    1
    17     1     4    1
    18    26    24    2
    19    27    28    1
    20    27    24    1
    21    23    24    1
    22    28    29    1
    23    29    31    1
    24    24    25    1
    25    33    31    1
    26    33    34    1
    27     4     5    1
    28    31    32    1
    29     5     6    1
    30     7     6    1
    31     7    12    1
    32     6     8    1
    33    15    14    1
    34    15    16    2
    35    18    17    1
    36    14    13    1
    37    16    17    1
    38    16    22    1
    39    17    19    2
    40    13    22    1
    41    13    12    1
    42    22    21    2
    43    12    10    1
    44    19    20    1
    45    21    20    1
    46     8    10    1
    47     8     9    1
    48    10    11    1
    49    11    45    1
    50    47    45    2
    51    45    46    1
    52    45    48    1
