@<TRIPOS>MOLECULE
3eb4_PDN_A_1.pdb
 26 29 0 0 0
SMALL
GASTEIGER

@<TRIPOS>ATOM
      1  C1        24.3470   64.1990   22.9500 C.3   501  PDN501      0.0123
      2  C2        24.5470   65.6470   22.8810 C.3   501  PDN501      0.0695
      3  C3        24.0300   66.3180   21.8650 C.2   501  PDN501      0.1725
      4  C4        23.2070   65.7470   21.0210 C.2   501  PDN501      0.0290
      5  C5        22.7830   64.5080   21.0320 C.2   501  PDN501     -0.0416
      6  C6        21.9410   64.0220   20.1030 C.3   501  PDN501      0.0221
      7  C7        22.3050   62.6950   19.5050 C.3   501  PDN501      0.0048
      8  C8        22.7820   61.6810   20.5410 C.3   501  PDN501      0.0076
      9  C9        23.7440   62.2800   21.5310 C.3   501  PDN501      0.0610
     10  C10       23.2780   63.6020   22.1260 C.3   501  PDN501      0.0222
     11  C11       24.2500   61.1360   22.5140 C.2   501  PDN501      0.1506
     12  C12       24.7930   59.9120   21.9100 C.3   501  PDN501      0.0673
     13  C13       23.7570   59.3010   21.1000 C.3   501  PDN501      0.0393
     14  C14       23.2860   60.2720   20.1000 C.3   501  PDN501      0.0036
     15  C15       22.5200   59.4300   19.1410 C.3   501  PDN501      0.0031
     16  C16       23.1510   58.1080   19.1930 C.3   501  PDN501      0.0377
     17  C17       24.1760   58.1070   20.2640 C.3   501  PDN501      0.1799
     18  C18       22.5630   58.9620   22.0240 C.3   501  PDN501      0.0033
     19  C19       22.1740   63.5100   23.1360 C.3   501  PDN501      0.0045
     20  C20       24.5000   56.8460   21.0930 C.2   501  PDN501      0.2109
     21  C21       23.4960   56.0490   21.8910 C.3   501  PDN501      0.2484
     22  O1        24.3590   67.4530   21.7720 O.2   501  PDN501     -0.2914
     23  O2        24.3000   61.1840   23.7910 O.2   501  PDN501     -0.2961
     24  O3        25.2690   58.3410   19.4270 O.3   501  PDN501     -0.2181
     25  O4        25.5650   56.5320   21.1130 O.2   501  PDN501     -0.2907
     26  O5        24.1600   54.8950   22.3870 O.3   501  PDN501     -0.2118
@<TRIPOS>BOND
     1    15    16    1
     2    15    14    1
     3    16    17    1
     4    24    17    1
     5     7     6    1
     6     7     8    1
     7    14     8    1
     8    14    13    1
     9     6     5    1
    10    17    20    1
    11    17    13    1
    12     8     9    1
    13     4     5    2
    14     4     3    1
    15     5    10    1
    16    20    25    2
    17    20    21    1
    18    13    12    1
    19    13    18    1
    20     9    10    1
    21     9    11    1
    22    22     3    2
    23     3     2    1
    24    21    26    1
    25    12    11    1
    26    10     1    1
    27    10    19    1
    28    11    23    2
    29     2     1    1
