@<TRIPOS>MOLECULE
3eb9_FLC_A_1.pdb
 13 12 0 0 0
SMALL
GASTEIGER

@<TRIPOS>ATOM
      1  CAC       -6.4950  -17.4980   39.6520 C.2   3209  FLC3209     0.3680
      2  CA        -6.0580  -17.8970   38.2170 C.3   3209  FLC3209     0.1560
      3  CB        -5.3510  -16.9190   37.1390 C.3   3209  FLC3209     0.2402
      4  CBC       -3.9400  -17.4020   36.7620 C.2   3209  FLC3209     0.3927
      5  CG        -6.1800  -16.9430   35.8030 C.3   3209  FLC3209     0.1560
      6  CGC       -6.7860  -15.6110   35.2710 C.2   3209  FLC3209     0.3680
      7  OA1       -6.5960  -18.3260   40.5410 O.co2 3209  FLC3209    -0.2455
      8  OA2       -6.7860  -16.3710   39.9550 O.co2 3209  FLC3209    -0.2455
      9  OB1       -3.0530  -16.4810   36.6080 O.co2 3209  FLC3209    -0.2429
     10  OB2       -3.6220  -18.6510   36.5950 O.co2 3209  FLC3209    -0.2429
     11  OG1       -7.8480  -15.6580   34.6120 O.co2 3209  FLC3209    -0.2455
     12  OG2       -6.2480  -14.5020   35.4630 O.co2 3209  FLC3209    -0.2455
     13  OHB       -5.0710  -15.5550   37.6030 O.3   3209  FLC3209    -0.2129
@<TRIPOS>BOND
     1    11     6   ar
     2     6    12   ar
     3     6     5    1
     4     5     3    1
     5    10     4   ar
     6     9     4   ar
     7     4     3    1
     8     3    13    1
     9     3     2    1
    10     2     1    1
    11     1     8   ar
    12     1     7   ar
