@<TRIPOS>MOLECULE
3ebb_III_E_1.pdb
 20 20 0 0 0
SMALL
GASTEIGER

@<TRIPOS>ATOM
      1  N        -13.7230   -7.9880   28.5290 N.3   804  LEU804     -0.1231
      2  CA       -14.8300   -8.0440   27.5230 C.3   804  LEU804      0.1693
      3  C        -15.7130   -9.2710   27.6880 C.2   804  LEU804      0.2592
      4  O        -16.9370   -9.1730   27.5890 O.2   804  LEU804     -0.2718
      5  CB       -14.2790   -7.9810   26.0930 C.3   804  LEU804      0.0284
      6  CG       -14.4710   -6.6880   25.2950 C.3   804  LEU804      0.0019
      7  CD1      -14.4380   -5.4520   26.1920 C.3   804  LEU804      0.0001
      8  CD2      -13.4210   -6.6060   24.1970 C.3   804  LEU804      0.0001
      9  N        -15.0870  -10.4170   27.9420 N.am  805  TYR805     -0.1976
     10  CA       -15.8040  -11.6870   28.0090 C.3   805  TYR805      0.1639
     11  C        -15.6860  -12.3180   29.3960 C.2   805  TYR805      0.2290
     12  O        -14.6220  -12.8200   29.7730 O.2   805  TYR805     -0.2864
     13  CB       -15.2940  -12.6520   26.9290 C.3   805  TYR805      0.0560
     14  CG       -15.3940  -12.0960   25.5180 C.ar  805  TYR805     -0.0198
     15  CD1      -16.5680  -12.2210   24.7710 C.ar  805  TYR805     -0.0009
     16  CD2      -14.3140  -11.4480   24.9320 C.ar  805  TYR805     -0.0009
     17  CE1      -16.6620  -11.7040   23.4820 C.ar  805  TYR805      0.0417
     18  CE2      -14.3990  -10.9320   23.6360 C.ar  805  TYR805      0.0417
     19  CZ       -15.5730  -11.0610   22.9240 C.ar  805  TYR805      0.1957
     20  OH       -15.6490  -10.5550   21.6520 O.3   805  TYR805     -0.2866
@<TRIPOS>BOND
     1    20    19    1
     2    19    17   ar
     3    19    18   ar
     4    17    15   ar
     5    18    16   ar
     6     8     6    1
     7    15    14   ar
     8    16    14   ar
     9     6     5    1
    10     6     7    1
    11    14    13    1
    12     5     2    1
    13    13    10    1
    14     2     3    1
    15     2     1    1
    16     4     3    2
    17     3     9   am
    18     9    10    1
    19    10    11    1
    20    11    12    2
