@<TRIPOS>MOLECULE
3ebd_H4B_A_1.pdb
 17 19 0 0 0
SMALL
GASTEIGER

@<TRIPOS>ATOM
      1  N1       113.6940  112.0390   32.6810 N.2   902  H4B902     -0.2726
      2  C2       114.9670  112.3380   32.9350 C.1   902  H4B902      0.2603
      3  N2       115.5660  112.6700   31.7940 N.pl3 902  H4B902     -0.0221
      4  N3       115.5710  112.3260   34.1240 N.2   902  H4B902     -0.2515
      5  C4       114.5820  111.9520   34.9310 C.1   902  H4B902      0.2219
      6  O4       114.9830  112.1710   36.0680 O.2   902  H4B902     -0.2109
      7  C4A      113.2830  111.4370   35.1280 C.3   902  H4B902      0.2780
      8  C8A      113.0390  111.5660   33.7380 C.1   902  H4B902      0.1050
      9  N5       112.3500  110.9610   35.9500 N.3   902  H4B902     -0.2177
     10  N8       111.8770  111.1250   33.2580 N.2   902  H4B902     -0.2095
     11  C6       111.0790  110.5710   35.3340 C.3   902  H4B902      0.1316
     12  C7       110.7040  110.9180   33.9560 C.3   902  H4B902      0.1570
     13  C9       110.9720  110.1070   36.7910 C.3   902  H4B902      0.2190
     14  O9       110.0140  110.9640   37.4260 O.3   902  H4B902     -0.2048
     15  C10      109.6530  109.3690   36.4850 C.3   902  H4B902      0.1954
     16  C11      108.5900  108.7800   37.4140 C.3   902  H4B902      0.0397
     17  O10      109.9490  108.0950   35.9060 O.3   902  H4B902     -0.2190
@<TRIPOS>BOND
     1     3     2    1
     2     1     2    2
     3     1     8    2
     4     2     4    2
     5    10     8    2
     6    10    12    1
     7     8     7    1
     8    12    11    1
     9     4     5    2
    10     5     7    1
    11     5     6    2
    12     7     9    1
    13    11     9    1
    14    11    13    1
    15    17    15    1
    16     9    13    1
    17    15    13    1
    18    15    16    1
    19    13    14    1
