@<TRIPOS>MOLECULE
3ebd_329_A_1.pdb
 12 13 0 0 0
SMALL
GASTEIGER

@<TRIPOS>ATOM
      1  C1       127.0890  112.4150   32.7270 C.ar  903  329903      0.0446
      2  C2       126.0380  113.3410   33.1480 C.ar  903  329903      0.1525
      3  O1       125.8170  113.5330   34.5130 O.3   903  329903     -0.4738
      4  C3       124.4910  113.6820   35.1050 C.3   903  329903      0.2192
      5  C4       124.4490  114.9770   35.9740 C.3   903  329903      0.0521
      6  N1       123.2880  114.8560   33.1200 N.2   903  329903     -0.0537
      7  C5       124.2700  114.8950   32.2230 C.2   903  329903      0.4195
      8  N2       124.2770  115.8790   31.3360 N.pl3 903  329903      0.2166
      9  C6       125.3710  113.9340   32.1160 C.ar  903  329903      0.1536
     10  S1       125.9820  113.4180   30.5620 S.2   903  329903     -0.0758
     11  C7       127.1670  112.3580   31.3960 C.ar  903  329903      0.0389
     12  C8       123.2670  113.7650   34.1080 C.3   903  329903      0.3064
@<TRIPOS>BOND
     1    10    11   ar
     2    10     9   ar
     3     8     7    1
     4    11     1   ar
     5     9     7    1
     6     9     2   ar
     7     7     6    2
     8     1     2   ar
     9     6    12    1
    10     2     3    1
    11    12     4    1
    12     3     4    1
    13     4     5    1
