@<TRIPOS>MOLECULE
3ebd_HEM_A_1.pdb
 43 50 0 0 0
SMALL
GASTEIGER

@<TRIPOS>ATOM
      1 FE        124.0080  111.4210   28.5130 Fe    901  HEM901      0.0000
      2  CHA      121.5000  110.7140   30.7970 C.2   901  HEM901      0.0000
      3  CHB      122.7320  114.5750   28.1910 C.2   901  HEM901      0.0000
      4  CHC      126.9940  112.6230   27.2510 C.2   901  HEM901      0.0000
      5  CHD      125.6090  108.5790   29.4550 C.2   901  HEM901      0.0000
      6  NA       122.4320  112.4600   29.3490 N.ar  901  HEM901      0.0000
      7  C1A      121.4880  112.0080   30.2660 C.ar  901  HEM901      0.0000
      8  C2A      120.5030  113.0670   30.5750 C.ar  901  HEM901      0.0000
      9  C3A      120.8360  114.1120   29.7890 C.ar  901  HEM901      0.0000
     10  C4A      122.0350  113.7360   29.0410 C.ar  901  HEM901      0.0000
     11  CMA      120.0290  115.3970   29.6830 C.3   901  HEM901      0.0000
     12  CAA      119.4070  113.1040   31.6340 C.3   901  HEM901      0.0000
     13  CBA      119.9970  113.1250   33.0490 C.3   901  HEM901      0.0000
     14  CGA      118.9290  113.1370   34.1340 C.2   901  HEM901      0.0000
     15  O1A      119.2120  112.6800   35.2620 O.co2 901  HEM901      0.0000
     16  O2A      117.8060  113.6080   33.8650 O.co2 901  HEM901      0.0000
     17  NB       124.6950  113.1880   27.7530 N.2   901  HEM901      0.0000
     18  C1B      123.9520  114.3300   27.5840 C.2   901  HEM901      0.0000
     19  C2B      124.6770  115.3160   26.8410 C.2   901  HEM901      0.0000
     20  C3B      125.9040  114.8070   26.5620 C.2   901  HEM901      0.0000
     21  C4B      125.9120  113.4670   27.1580 C.2   901  HEM901      0.0000
     22  CMB      124.2130  116.7340   26.5130 C.3   901  HEM901      0.0000
     23  CAB      126.9020  115.5850   25.9470 C.2   901  HEM901      0.0000
     24  CBB      128.1010  115.2410   25.3710 C.2   901  HEM901      0.0000
     25  NC       125.9360  110.7640   28.4330 N.ar  901  HEM901      0.0000
     26  C1C      127.0270  111.3880   27.8660 C.ar  901  HEM901      0.0000
     27  C2C      128.2020  110.5370   27.9210 C.ar  901  HEM901      0.0000
     28  C3C      127.8050  109.3200   28.4890 C.ar  901  HEM901      0.0000
     29  C4C      126.3820  109.5040   28.7980 C.ar  901  HEM901      0.0000
     30  CMC      129.6130  110.9660   27.4840 C.3   901  HEM901      0.0000
     31  CAC      128.5760  108.1640   28.7610 C.3   901  HEM901      0.0000
     32  CBC      129.8550  107.8840   28.2520 C.3   901  HEM901      0.0000
     33  ND       123.6240  109.9360   29.8220 N.2   901  HEM901      0.0000
     34  C1D      124.3300  108.7580   29.9230 C.2   901  HEM901      0.0000
     35  C2D      123.6140  107.7780   30.7090 C.2   901  HEM901      0.0000
     36  C3D      122.4730  108.3820   31.1440 C.2   901  HEM901      0.0000
     37  C4D      122.4750  109.7390   30.5750 C.2   901  HEM901      0.0000
     38  CMD      123.9850  106.3310   30.9960 C.3   901  HEM901      0.0000
     39  CAD      121.5430  107.7740   32.1860 C.3   901  HEM901      0.0000
     40  CBD      121.8620  108.3470   33.5560 C.3   901  HEM901      0.0000
     41  CGD      120.9000  107.8510   34.6110 C.2   901  HEM901      0.0000
     42  O1D      120.8580  108.4180   35.7190 O.co2 901  HEM901      0.0000
     43  O2D      120.1790  106.8760   34.3360 O.co2 901  HEM901      0.0000
@<TRIPOS>BOND
     1    24    23    2
     2    23    20    1
     3    22    19    1
     4    20    19    2
     5    20    21    1
     6    19    18    1
     7    21     4    2
     8    21    17    1
     9     4    26    1
    10    30    27    1
    11    18    17    2
    12    18     3    1
    13    17     1    1
    14    26    27   ar
    15    26    25   ar
    16    27    28   ar
    17     3    10    2
    18    32    31    1
    19    25     1    1
    20    25    29   ar
    21    28    31    1
    22    28    29   ar
    23     1     6    1
    24     1    33    1
    25    29     5    1
    26    10     6   ar
    27    10     9   ar
    28     6     7   ar
    29     5    34    2
    30    11     9    1
    31     9     8   ar
    32    33    34    1
    33    33    37    2
    34    34    35    1
    35     7     8   ar
    36     7     2    2
    37    37     2    1
    38    37    36    1
    39     8    12    1
    40    35    38    1
    41    35    36    2
    42    36    39    1
    43    12    13    1
    44    39    40    1
    45    13    14    1
    46    40    41    1
    47    16    14   ar
    48    14    15   ar
    49    43    41   ar
    50    41    42   ar
