@<TRIPOS>MOLECULE
3ebf_332_A_1.pdb
 23 26 0 0 0
SMALL
GASTEIGER

@<TRIPOS>ATOM
      1  C9       122.9540  112.0010   33.5780 C.3   903  332903      0.2622
      2  O10      124.1720  111.4270   33.0110 O.3   903  332903     -0.4699
      3  C3       125.0450  112.1250   32.2290 C.ar  903  332903      0.1527
      4  C4       124.9600  113.4210   31.8480 C.ar  903  332903      0.1536
      5  C6       123.9640  114.4870   32.1300 C.2   903  332903      0.4195
      6  N23      123.9190  115.5170   31.2880 N.pl3 903  332903      0.2166
      7  N7       123.1130  114.5330   33.1370 N.2   903  332903     -0.0544
      8  C8       124.2570  113.4410   35.2580 C.3   903  332903      0.2622
      9  C11      123.0500  113.4340   34.1760 C.3   903  332903      0.3015
     10  O12      124.4600  114.7110   35.9040 O.3   903  332903     -0.4707
     11  C13      123.6670  114.9700   37.0690 C.ar  903  332903      0.1385
     12  C18      124.0470  116.0400   37.9520 C.ar  903  332903      0.0366
     13  C17      123.2560  116.3210   39.1280 C.ar  903  332903     -0.0014
     14  C16      122.0910  115.5450   39.4260 C.ar  903  332903     -0.0231
     15  C22      121.2680  115.8770   40.6890 C.3   903  332903      0.0449
     16  C21      120.0230  114.9320   40.8860 C.3   903  332903      0.0937
     17  N20      119.4780  114.4510   39.5760 N.3   903  332903     -0.2129
     18  C19      120.4660  113.6230   38.8310 C.3   903  332903      0.1148
     19  C15      121.7060  114.4660   38.5390 C.ar  903  332903     -0.0057
     20  C14      122.4730  114.1930   37.4010 C.ar  903  332903      0.0337
     21  S5       126.3210  113.8440   30.8420 S.2   903  332903     -0.0758
     22  C1       126.9440  112.2040   31.0230 C.ar  903  332903      0.0389
     23  C2       126.1930  111.4280   31.7520 C.ar  903  332903      0.0446
@<TRIPOS>BOND
     1    21    22   ar
     2    21     4   ar
     3    22    23   ar
     4     6     5    1
     5    23     3   ar
     6     4     5    1
     7     4     3   ar
     8     5     7    2
     9     3     2    1
    10     2     1    1
    11     7     9    1
    12     1     9    1
    13     9     8    1
    14     8    10    1
    15    10    11    1
    16    11    20   ar
    17    11    12   ar
    18    20    19   ar
    19    12    13   ar
    20    19    18    1
    21    19    14   ar
    22    18    17    1
    23    13    14   ar
    24    14    15    1
    25    17    16    1
    26    15    16    1
