@<TRIPOS>MOLECULE
3ebf_H4B_A_1.pdb
 17 18 0 0 0
SMALL
GASTEIGER

@<TRIPOS>ATOM
      1  N1       113.2630  111.7150   32.7100 N.2   902  H4B902     -0.2672
      2  C2       114.5150  112.0300   33.0310 C.1   902  H4B902      0.2609
      3  N2       115.2420  112.3830   31.9780 N.pl3 902  H4B902     -0.0220
      4  N3       115.1160  112.0430   34.2170 N.2   902  H4B902     -0.2466
      5  C4       114.2470  111.6750   35.1540 C.1   902  H4B902      0.2569
      6  O4       114.6450  111.7530   36.3190 O.2   902  H4B902     -0.2052
      7  C4A      112.9190  111.1940   35.1740 C.2   902  H4B902      0.2989
      8  C8A      112.6280  111.2770   33.7940 C.1   902  H4B902      0.1401
      9  N5       112.1180  110.7660   36.1480 N.2   902  H4B902     -0.3830
     10  N8       111.4170  110.7890   33.5310 N.2   902  H4B902     -0.1992
     11  C6       110.7650  110.4290   35.7080 C.2   902  H4B902      0.1466
     12  C7       110.3320  110.4550   34.3090 C.3   902  H4B902      0.1940
     13  C9       110.3530  109.7640   37.0270 C.3   902  H4B902      0.2313
     14  O9       109.6890  110.9320   37.5230 O.3   902  H4B902     -0.2130
     15  C10      109.1430  108.8820   36.6410 C.3   902  H4B902      0.1888
     16  C11      108.2970  108.4730   37.8410 C.3   902  H4B902      0.0387
     17  O10      109.6100  107.6690   36.0420 O.3   902  H4B902     -0.2200
@<TRIPOS>BOND
     1     3     2    1
     2     1     2    2
     3     1     8    2
     4     2     4    2
     5    10     8    2
     6    10    12    1
     7     8     7    1
     8     4     5    2
     9    12    11    1
    10     5     7    1
    11     5     6    2
    12     7     9    2
    13    11     9    2
    14    11    13    1
    15    17    15    1
    16    15    13    1
    17    15    16    1
    18    13    14    1
