@<TRIPOS>MOLECULE
3ebf_HEM_A_1.pdb
 43 50 0 0 0
SMALL
GASTEIGER

@<TRIPOS>ATOM
      1  CHA      121.2070  110.4290   30.8450 C.2   901  HEM901      0.0000
      2  CHB      122.5110  114.3570   28.3600 C.2   901  HEM901      0.0000
      3  CHC      126.7490  112.3650   27.4120 C.2   901  HEM901      0.0000
      4  CHD      125.3590  108.3250   29.6380 C.2   901  HEM901      0.0000
      5  C1A      121.2040  111.7380   30.3490 C.ar  901  HEM901      0.0000
      6  C2A      120.2140  112.7810   30.6470 C.ar  901  HEM901      0.0000
      7  C3A      120.5690  113.8680   29.8950 C.ar  901  HEM901      0.0000
      8  C4A      121.7890  113.5140   29.1820 C.ar  901  HEM901      0.0000
      9  CMA      119.7790  115.1800   29.7960 C.3   901  HEM901      0.0000
     10  CAA      119.0880  112.7860   31.6770 C.3   901  HEM901      0.0000
     11  CBA      119.6400  112.7520   33.0940 C.3   901  HEM901      0.0000
     12  CGA      118.5700  112.8880   34.1630 C.2   901  HEM901      0.0000
     13  O1A      118.9180  112.7840   35.3610 O.co2 901  HEM901      0.0000
     14  O2A      117.3890  113.1050   33.8140 O.co2 901  HEM901      0.0000
     15  C1B      123.7360  114.1240   27.7600 C.2   901  HEM901      0.0000
     16  C2B      124.5010  115.1310   27.0550 C.2   901  HEM901      0.0000
     17  C3B      125.7250  114.6080   26.7910 C.2   901  HEM901      0.0000
     18  C4B      125.6790  113.2490   27.3460 C.2   901  HEM901      0.0000
     19  CMB      124.0260  116.5340   26.6700 C.3   901  HEM901      0.0000
     20  CAB      126.7690  115.3410   26.2100 C.3   901  HEM901      0.0000
     21  CBB      127.8010  114.8940   25.4050 C.3   901  HEM901      0.0000
     22  C1C      126.7880  111.0890   27.9640 C.ar  901  HEM901      0.0000
     23  C2C      127.9740  110.2810   28.1030 C.ar  901  HEM901      0.0000
     24  C3C      127.5830  109.0960   28.6930 C.ar  901  HEM901      0.0000
     25  C4C      126.1530  109.2310   28.9430 C.ar  901  HEM901      0.0000
     26  CMC      129.3890  110.7630   27.7410 C.3   901  HEM901      0.0000
     27  CAC      128.3590  107.9730   29.0010 C.3   901  HEM901      0.0000
     28  CBC      129.5790  107.6140   28.4250 C.3   901  HEM901      0.0000
     29  C1D      124.0520  108.4890   30.0760 C.2   901  HEM901      0.0000
     30  C2D      123.3270  107.5250   30.8970 C.2   901  HEM901      0.0000
     31  C3D      122.1800  108.1320   31.2610 C.2   901  HEM901      0.0000
     32  C4D      122.1680  109.4540   30.6400 C.2   901  HEM901      0.0000
     33  CMD      123.7070  106.1000   31.2830 C.3   901  HEM901      0.0000
     34  CAD      121.2010  107.5530   32.2790 C.3   901  HEM901      0.0000
     35  CBD      121.5090  108.1750   33.6340 C.3   901  HEM901      0.0000
     36  CGD      120.5920  107.6760   34.7170 C.2   901  HEM901      0.0000
     37  O1D      120.4880  108.3320   35.7680 O.co2 901  HEM901      0.0000
     38  O2D      119.9750  106.6180   34.5240 O.co2 901  HEM901      0.0000
     39  NA       122.1740  112.2300   29.4830 N.ar  901  HEM901      0.0000
     40  NB       124.4520  112.9830   27.9020 N.2   901  HEM901      0.0000
     41  NC       125.6960  110.4530   28.5030 N.ar  901  HEM901      0.0000
     42  ND       123.3170  109.6470   29.9090 N.2   901  HEM901      0.0000
     43 FE        123.7590  111.2220   28.6690 Fe    901  HEM901      0.0000
@<TRIPOS>BOND
     1    21    20    1
     2    20    17    1
     3    19    16    1
     4    17    16    2
     5    17    18    1
     6    16    15    1
     7    18     3    2
     8    18    40    1
     9     3    22    1
    10    26    23    1
    11    15    40    2
    12    15     2    1
    13    40    43    1
    14    22    23   ar
    15    22    41   ar
    16    23    24   ar
    17     2     8    2
    18    28    27    1
    19    41    43    1
    20    41    25   ar
    21    43    39    1
    22    43    42    1
    23    24    25   ar
    24    24    27    1
    25    25     4    1
    26     8    39   ar
    27     8     7   ar
    28    39     5   ar
    29     4    29    2
    30     9     7    1
    31     7     6   ar
    32    42    29    1
    33    42    32    2
    34    29    30    1
    35     5     6   ar
    36     5     1    2
    37    32     1    1
    38    32    31    1
    39     6    10    1
    40    30    31    2
    41    30    33    1
    42    31    34    1
    43    10    11    1
    44    34    35    1
    45    11    12    1
    46    35    36    1
    47    14    12   ar
    48    12    13   ar
    49    38    36   ar
    50    36    37   ar
