@<TRIPOS>MOLECULE
3ebh_BES_A_1.pdb
 22 22 0 0 0
SMALL
GASTEIGER

@<TRIPOS>ATOM
      1  N2        11.3060   12.6890   12.1390 N.3   1085  BES1085    -0.1293
      2  C1        12.5960   12.0440   12.3500 C.3   1085  BES1085     0.1355
      3  C6        13.2840   12.6490   13.5710 C.3   1085  BES1085     0.0485
      4  C7        12.9890   11.9410   14.8790 C.ar  1085  BES1085    -0.0206
      5  C8        12.2340   12.6020   15.8500 C.ar  1085  BES1085    -0.0042
      6  C12       13.4890   10.6600   15.1410 C.ar  1085  BES1085    -0.0042
      7  C9        11.9640   11.9770   17.0700 C.ar  1085  BES1085    -0.0003
      8  C11       13.2190   10.0330   16.3650 C.ar  1085  BES1085    -0.0003
      9  C10       12.4510   10.6950   17.3250 C.ar  1085  BES1085    -0.0000
     10  C2        13.5130   12.1940   11.1330 C.3   1085  BES1085     0.2467
     11  O2        12.8050   12.5270    9.9360 O.3   1085  BES1085    -0.2116
     12  C3        14.1970   10.8890   10.8790 C.2   1085  BES1085     0.2738
     13  O3        13.5530    9.9260   10.4990 O.2   1085  BES1085    -0.2705
     14  N1        15.5040   10.8900   11.0810 N.am  1085  BES1085    -0.1934
     15  C4        16.3580    9.7220   10.9190 C.3   1085  BES1085     0.1978
     16  C13       17.1280    9.9220    9.6130 C.3   1085  BES1085     0.0333
     17  C14       17.1910    8.6810    8.7150 C.3   1085  BES1085     0.0023
     18  C15       15.9300    7.8190    8.7240 C.3   1085  BES1085     0.0001
     19  C16       17.5190    9.0630    7.2790 C.3   1085  BES1085     0.0001
     20  C5        17.2760    9.7200   12.1000 C.2   1085  BES1085     0.3842
     21  O1        17.8430    8.6680   12.4740 O.co2 1085  BES1085    -0.2437
     22  O4        17.4090   10.8100   12.6840 O.co2 1085  BES1085    -0.2437
@<TRIPOS>BOND
     1    19    17    1
     2    17    18    1
     3    17    16    1
     4    16    15    1
     5    11    10    1
     6    13    12    2
     7    12    14   am
     8    12    10    1
     9    15    14    1
    10    15    20    1
    11    10     2    1
    12    20    21   ar
    13    20    22   ar
    14     1     2    1
    15     2     3    1
    16     3     4    1
    17     4     6   ar
    18     4     5   ar
    19     6     8   ar
    20     5     7   ar
    21     8     9   ar
    22     7     9   ar
