@<TRIPOS>MOLECULE
3ebi_BEY_A_1.pdb
 25 26 0 0 0
SMALL
GASTEIGER

@<TRIPOS>ATOM
      1  O3        12.9260   10.5710   10.5660 O.3   1085  BEY1085    -0.1664
      2  P         13.6170   11.6920   11.2970 P.3   1085  BEY1085     0.2709
      3  O4        13.8750   12.8620   10.3840 O.2   1085  BEY1085    -0.2855
      4  C19       12.3310   11.9720   12.5890 C.3   1085  BEY1085     0.1714
      5  C18       12.8020   11.6650   14.0460 C.3   1085  BEY1085     0.0337
      6  C15       12.8560   12.8630   14.9980 C.3   1085  BEY1085     0.0284
      7  C16       12.8450   12.4720   16.4730 C.ar  1085  BEY1085    -0.0221
      8  C10       13.9020   12.8630   17.3000 C.ar  1085  BEY1085    -0.0043
      9  C11       13.9100   12.5180   18.6570 C.ar  1085  BEY1085    -0.0003
     10  C12       12.8490   11.7860   19.1960 C.ar  1085  BEY1085    -0.0000
     11  C14       11.7880   11.3930   18.3840 C.ar  1085  BEY1085    -0.0003
     12  C13       11.7880   11.7460   17.0280 C.ar  1085  BEY1085    -0.0043
     13  N         11.5970   13.2030   12.3940 N.3   1085  BEY1085    -0.1224
     14  C17       15.1690   11.1320   12.0590 C.3   1085  BEY1085     0.1024
     15  C8        15.9310   10.0830   11.2430 C.3   1085  BEY1085     0.1175
     16  C9        16.4800    9.0580   12.1940 C.2   1085  BEY1085     0.3652
     17  O2        15.8230    8.0170   12.4010 O.co2 1085  BEY1085    -0.2456
     18  O1        17.5790    9.2750   12.7460 O.co2 1085  BEY1085    -0.2456
     19  C7        17.1040   10.7140   10.4850 C.3   1085  BEY1085     0.0381
     20  C1        17.6340    9.7710    9.4190 C.ar  1085  BEY1085    -0.0216
     21  C2        17.0480    9.7490    8.1560 C.ar  1085  BEY1085    -0.0043
     22  C3        17.5260    8.8850    7.1670 C.ar  1085  BEY1085    -0.0003
     23  C4        18.5940    8.0320    7.4360 C.ar  1085  BEY1085    -0.0000
     24  C6        19.1800    8.0550    8.6990 C.ar  1085  BEY1085    -0.0003
     25  C5        18.7110    8.9240    9.6860 C.ar  1085  BEY1085    -0.0043
@<TRIPOS>BOND
     1    22    23   ar
     2    22    21   ar
     3    23    24   ar
     4    21    20   ar
     5    24    25   ar
     6    20    25   ar
     7    20    19    1
     8     3     2    2
     9    19    15    1
    10     1     2    1
    11    15    14    1
    12    15    16    1
    13     2    14    1
    14     2     4    1
    15    16    17   ar
    16    16    18   ar
    17    13     4    1
    18     4     5    1
    19     5     6    1
    20     6     7    1
    21     7    12   ar
    22     7     8   ar
    23    12    11   ar
    24     8     9   ar
    25    11    10   ar
    26     9    10   ar
