@<TRIPOS>MOLECULE
3ebl_GA4_A_1.pdb
 24 28 0 0 0
SMALL
GASTEIGER

@<TRIPOS>ATOM
      1  C1        30.5200   46.4740   14.2660 C.3   401  GA4401      0.0427
      2  C2        29.4360   46.2260   13.2200 C.3   401  GA4401      0.0370
      3  C3        29.5620   44.8060   12.5960 C.3   401  GA4401      0.1621
      4  O31       29.0310   43.8480   13.5190 O.3   401  GA4401     -0.2226
      5  C4        31.0090   44.4270   12.2010 C.3   401  GA4401      0.1212
      6  C5        31.8400   44.4800   13.4730 C.3   401  GA4401      0.0599
      7  C6        33.3390   44.1100   13.4810 C.3   401  GA4401      0.1077
      8  C7        33.5560   42.6400   13.7310 C.2   401  GA4401      0.3645
      9  O71       32.9360   41.9780   14.6060 O.co2 401  GA4401     -0.2457
     10  O72       34.3980   42.1300   12.9970 O.co2 401  GA4401     -0.2457
     11  C8        34.0370   45.0690   14.4660 C.3   401  GA4401      0.0176
     12  C9        33.0680   46.2830   14.6080 C.3   401  GA4401      0.0376
     13  C10       31.8900   45.9970   13.7050 C.3   401  GA4401      0.1369
     14  C11       33.7810   47.6300   14.3220 C.3   401  GA4401      0.0038
     15  C12       35.1130   47.7710   15.1060 C.3   401  GA4401      0.0041
     16  C13       35.8650   46.4110   15.2250 C.3   401  GA4401      0.0183
     17  C14       35.4170   45.5810   14.0360 C.3   401  GA4401      0.0050
     18  C15       34.3550   44.5090   15.8530 C.3   401  GA4401      0.0226
     19  C16       35.3230   45.5530   16.3290 C.2   401  GA4401     -0.0446
     20  C17       35.6760   45.6310   17.6050 C.2   401  GA4401     -0.0091
     21  C18       31.0990   43.0840   11.4690 C.3   401  GA4401      0.0138
     22  C19       31.5600   45.5790   11.4220 C.2   401  GA4401      0.3183
     23  O91       31.5890   45.7400   10.1990 O.2   401  GA4401     -0.2500
     24  O92       32.0940   46.4940   12.3580 O.3   401  GA4401     -0.4557
@<TRIPOS>BOND
     1    23    22    2
     2    22     5    1
     3    22    24    1
     4    21     5    1
     5     5     3    1
     6     5     6    1
     7    24    13    1
     8     3     2    1
     9     3     4    1
    10    10     8   ar
    11     2     1    1
    12     6     7    1
    13     6    13    1
    14     7     8    1
    15     7    11    1
    16    13     1    1
    17    13    12    1
    18     8     9   ar
    19    17    11    1
    20    17    16    1
    21    14    12    1
    22    14    15    1
    23    11    12    1
    24    11    18    1
    25    15    16    1
    26    16    19    1
    27    18    19    1
    28    19    20    2
