@<TRIPOS>MOLECULE
3ebo_57D_A_1.pdb
 19 21 0 0 0
SMALL
GASTEIGER

@<TRIPOS>ATOM
      1  C2        38.0080   34.8180   29.2280 C.ar  940  57D940      0.1484
      2  C3        37.1260   34.2620   30.1620 C.ar  940  57D940      0.0797
      3  C4        36.9250   34.8990   31.3890 C.ar  940  57D940      0.2048
      4  C5        37.6280   36.0800   31.6630 C.ar  940  57D940      0.1126
      5  C6        37.5320   36.7360   32.8950 C.ar  940  57D940      0.2049
      6  C7        38.2630   37.9000   33.1250 C.ar  940  57D940      0.0843
      7  C8        39.1070   38.4050   32.1410 C.ar  940  57D940      0.2020
      8  C9        39.2260   37.7520   30.9250 C.ar  940  57D940      0.0798
      9  C10       38.4930   36.5890   30.6900 C.ar  940  57D940      0.1546
     10  O1        38.6660   35.9860   29.4870 O.2   940  57D940     -0.4531
     11  O4        36.1450   34.4180   32.2160 O.2   940  57D940     -0.2862
     12  O5        36.7190   36.2810   33.8900 O.3   940  57D940     -0.2862
     13  O7        39.8200   39.5380   32.3690 O.3   940  57D940     -0.2864
     14  C2'       38.6830   35.0410   26.9230 C.ar  940  57D940      0.0030
     15  C3'       38.9820   34.4750   25.6860 C.ar  940  57D940      0.0001
     16  C4'       38.8890   33.0960   25.5120 C.ar  940  57D940      0.0000
     17  C5'       38.4960   32.2820   26.5760 C.ar  940  57D940      0.0001
     18  C6'       38.2010   32.8460   27.8160 C.ar  940  57D940      0.0030
     19  C1'       38.2770   34.2310   27.9910 C.ar  940  57D940      0.0347
@<TRIPOS>BOND
     1    16    15   ar
     2    16    17   ar
     3    15    14   ar
     4    17    18   ar
     5    14    19   ar
     6    18    19   ar
     7    19     1    1
     8     1    10   ar
     9     1     2   ar
    10    10     9   ar
    11     2     3   ar
    12     9     8   ar
    13     9     4   ar
    14     8     7   ar
    15     3     4   ar
    16     3    11    2
    17     4     5   ar
    18     7    13    1
    19     7     6   ar
    20     5     6   ar
    21     5    12    1
