@<TRIPOS>MOLECULE
3ebp_CPB_A_1.pdb
 28 31 0 0 0
SMALL
GASTEIGER

@<TRIPOS>ATOM
      1  C1        43.6640   39.9960   27.9080 C.3   940  CPB940      0.0897
      2  N1        42.6920   39.6050   28.9430 N.3   940  CPB940     -0.2693
      3  C16       41.3320   39.6430   28.3560 C.3   940  CPB940      0.0726
      4  C15       40.2750   39.2770   29.4140 C.3   940  CPB940      0.0245
      5  C14       40.6090   37.9170   30.0470 C.3   940  CPB940      0.0617
      6  C13       42.0680   37.8680   30.5630 C.3   940  CPB940      0.1720
      7  C12       43.0340   38.2510   29.4370 C.3   940  CPB940      0.1057
      8  C8        39.5420   37.4920   31.1020 C.ar  940  CPB940      0.0537
      9  C9        38.7280   36.3900   30.7900 C.ar  940  CPB940      0.1505
     10  O1        38.9310   35.7490   29.5910 O.2   940  CPB940     -0.4534
     11  C2        38.1810   34.6440   29.2800 C.ar  940  CPB940      0.1492
     12  C3        37.1960   34.1910   30.1560 C.ar  940  CPB940      0.0797
     13  C4        36.9570   34.8520   31.3570 C.ar  940  CPB940      0.2047
     14  O4        36.0800   34.4380   32.1180 O.2   940  CPB940     -0.2862
     15  C10       37.7360   35.9640   31.6850 C.ar  940  CPB940      0.1122
     16  C5        37.5740   36.6230   32.9090 C.ar  940  CPB940      0.2049
     17  O5        36.6350   36.2280   33.8150 O.3   940  CPB940     -0.2862
     18  C6        38.3740   37.7130   33.2180 C.ar  940  CPB940      0.0840
     19  C7        39.3480   38.1540   32.3240 C.ar  940  CPB940      0.1979
     20  O7        40.0930   39.2270   32.6980 O.3   940  CPB940     -0.2867
     21  C21       38.4210   33.9460   28.0870 C.ar  940  CPB940      0.0452
     22  C22       38.8300   34.5770   26.8980 C.ar  940  CPB940      0.0606
     23 CL1        39.0450   36.2890   26.7970 Cl    940  CPB940     -0.0821
     24  C23       39.0690   33.8290   25.7450 C.ar  940  CPB940      0.0115
     25  C24       38.9080   32.4450   25.7710 C.ar  940  CPB940      0.0009
     26  C25       38.5120   31.8100   26.9480 C.ar  940  CPB940      0.0002
     27  C26       38.2740   32.5510   28.0980 C.ar  940  CPB940      0.0039
     28  O3        42.2540   38.7900   31.6350 O.3   940  CPB940     -0.2213
@<TRIPOS>BOND
     1    24    25   ar
     2    24    22   ar
     3    25    26   ar
     4    23    22    1
     5    22    21   ar
     6    26    27   ar
     7     1     2    1
     8    21    27   ar
     9    21    11    1
    10     3     2    1
    11     3     4    1
    12     2     7    1
    13    11    10   ar
    14    11    12   ar
    15     4     5    1
    16     7     6    1
    17    10     9   ar
    18     5     6    1
    19     5     8    1
    20    12    13   ar
    21     6    28    1
    22     9     8   ar
    23     9    15   ar
    24     8    19   ar
    25    13    15   ar
    26    13    14    2
    27    15    16   ar
    28    19    20    1
    29    19    18   ar
    30    16    18   ar
    31    16    17    1
