@<TRIPOS>MOLECULE
3ebs_N4E_A_1.pdb
 13 13 0 0 0
SMALL
GASTEIGER

@<TRIPOS>ATOM
      1  O        -25.5610   -1.2640   -9.0960 O.2     1  N4E1       -0.2730
      2  C        -25.3390   -2.4580   -8.9930 C.2     1  N4E1        0.2461
      3  CM       -26.4120   -3.4820   -9.2250 C.3     1  N4E1        0.0968
      4  N        -24.1510   -2.9700   -8.6670 N.am    1  N4E1       -0.1792
      5  C1       -23.0150   -2.2710   -8.4010 C.ar    1  N4E1        0.0736
      6  C6       -21.8860   -3.0150   -8.0710 C.ar    1  N4E1        0.0197
      7  C5       -20.6930   -2.3670   -7.7800 C.ar    1  N4E1        0.0382
      8  C4       -20.6130   -0.9770   -7.8260 C.ar    1  N4E1        0.1386
      9  C3       -21.7440   -0.2240   -8.1550 C.ar    1  N4E1        0.0382
     10  C2       -22.9460   -0.8740   -8.4410 C.ar    1  N4E1        0.0197
     11  O4       -19.4140   -0.3760   -7.5320 O.3     1  N4E1       -0.4755
     12  C12      -18.8210    0.5270   -8.4580 C.3     1  N4E1        0.2055
     13  C13      -17.8170   -0.1990   -9.3220 C.3     1  N4E1        0.0512
@<TRIPOS>BOND
     1    13    12    1
     2     3     2    1
     3     1     2    2
     4     2     4   am
     5     4     5    1
     6    12    11    1
     7    10     5   ar
     8    10     9   ar
     9     5     6   ar
    10     9     8   ar
    11     6     7   ar
    12     8     7   ar
    13     8    11    1
