@<TRIPOS>MOLECULE
3ebs_HEM_A_1.pdb
 43 50 0 0 0
SMALL
GASTEIGER

@<TRIPOS>ATOM
      1 FE        -19.1330    3.8530   -5.3770 Fe    500  HEM500      0.0000
      2  CHA      -18.9500    4.3460   -8.8610 C.2   500  HEM500      0.0000
      3  CHB      -16.1400    2.3370   -5.4670 C.2   500  HEM500      0.0000
      4  CHC      -19.3540    3.2330   -1.9990 C.2   500  HEM500      0.0000
      5  CHD      -22.4200    4.8220   -5.4640 C.2   500  HEM500      0.0000
      6  NA       -17.8490    3.4610   -6.8670 N.2   500  HEM500      0.0000
      7  C1A      -17.9190    3.7450   -8.2240 C.2   500  HEM500      0.0000
      8  C2A      -16.7190    3.3010   -8.8700 C.2   500  HEM500      0.0000
      9  C3A      -15.9410    2.7490   -7.9440 C.2   500  HEM500      0.0000
     10  C4A      -16.6260    2.8430   -6.6610 C.2   500  HEM500      0.0000
     11  CMA      -14.5120    2.1480   -8.1770 C.3   500  HEM500      0.0000
     12  CAA      -16.3740    3.4730  -10.3640 C.3   500  HEM500      0.0000
     13  CBA      -16.1470    4.9650  -10.6930 C.3   500  HEM500      0.0000
     14  CGA      -15.4510    5.1420  -12.0210 C.2   500  HEM500      0.0000
     15  O1A      -14.3190    5.6430  -11.9940 O.co2 500  HEM500      0.0000
     16  O2A      -15.9980    4.7940  -13.0920 O.co2 500  HEM500      0.0000
     17  NB       -17.9750    2.9500   -3.9470 N.ar  500  HEM500      0.0000
     18  C1B      -16.7370    2.3830   -4.2080 C.ar  500  HEM500      0.0000
     19  C2B      -16.1690    1.9220   -2.9470 C.ar  500  HEM500      0.0000
     20  C3B      -17.0580    2.1810   -1.9800 C.ar  500  HEM500      0.0000
     21  C4B      -18.2060    2.8180   -2.6010 C.ar  500  HEM500      0.0000
     22  CMB      -14.7880    1.2410   -2.7560 C.3   500  HEM500      0.0000
     23  CAB      -16.9490    1.8730   -0.4510 C.2   500  HEM500      0.0000
     24  CBB      -15.8120    1.6290    0.2040 C.2   500  HEM500      0.0000
     25  NC       -20.6020    3.9440   -4.0500 N.2   500  HEM500      0.0000
     26  C1C      -20.4400    3.7630   -2.6570 C.2   500  HEM500      0.0000
     27  C2C      -21.6410    4.2420   -1.9930 C.2   500  HEM500      0.0000
     28  C3C      -22.4830    4.7070   -2.9110 C.2   500  HEM500      0.0000
     29  C4C      -21.8670    4.5070   -4.2300 C.2   500  HEM500      0.0000
     30  CMC      -21.8680    4.2670   -0.4640 C.3   500  HEM500      0.0000
     31  CAC      -23.8750    5.2920   -2.5140 C.2   500  HEM500      0.0000
     32  CBC      -24.4790    6.2980   -3.1620 C.2   500  HEM500      0.0000
     33  ND       -20.4920    4.4810   -6.9390 N.ar  500  HEM500      0.0000
     34  C1D      -21.8040    4.8580   -6.6930 C.ar  500  HEM500      0.0000
     35  C2D      -22.4050    5.2840   -7.9380 C.ar  500  HEM500      0.0000
     36  C3D      -21.2910    5.1620   -8.9930 C.ar  500  HEM500      0.0000
     37  C4D      -20.1610    4.6390   -8.2900 C.ar  500  HEM500      0.0000
     38  CMD      -23.8770    5.7800   -8.1410 C.3   500  HEM500      0.0000
     39  CAD      -21.3510    5.4770  -10.4990 C.3   500  HEM500      0.0000
     40  CBD      -21.1540    6.9780  -10.7740 C.3   500  HEM500      0.0000
     41  CGD      -21.1560    7.1770  -12.2770 C.2   500  HEM500      0.0000
     42  O1D      -21.1880    8.3360  -12.7710 O.co2 500  HEM500      0.0000
     43  O2D      -21.1280    6.1660  -13.0180 O.co2 500  HEM500      0.0000
@<TRIPOS>BOND
     1    16    14   ar
     2    43    41   ar
     3    42    41   ar
     4    41    40    1
     5    14    15   ar
     6    14    13    1
     7    40    39    1
     8    13    12    1
     9    39    36    1
    10    12     8    1
    11    36    37   ar
    12    36    35   ar
    13     8     7    1
    14     8     9    2
    15     2    37    2
    16     2     7    1
    17    37    33   ar
    18     7     6    2
    19    11     9    1
    20    38    35    1
    21     9    10    1
    22    35    34   ar
    23    33    34   ar
    24    33     1    1
    25     6    10    1
    26     6     1    1
    27    34     5    2
    28    10     3    2
    29     3    18    1
    30     5    29    1
    31     1    25    1
    32     1    17    1
    33    29    25    2
    34    29    28    1
    35    18    17   ar
    36    18    19   ar
    37    25    26    1
    38    17    21   ar
    39    32    31    2
    40    19    22    1
    41    19    20   ar
    42    28    31    1
    43    28    27    2
    44    26     4    2
    45    26    27    1
    46    21     4    1
    47    21    20   ar
    48    27    30    1
    49    20    23    1
    50    23    24    2
