@<TRIPOS>MOLECULE
3ebz_017_B_1.pdb
 38 41 0 0 0
SMALL
GASTEIGER

@<TRIPOS>ATOM
      1  N1        14.1730    5.9190   19.6280 N.pl3 201  017201     -0.1281
      2  C2        15.1890    6.8750   19.6310 C.ar  201  017201      0.0892
      3  C3        15.3400    7.7370   18.5580 C.ar  201  017201      0.0194
      4  C4        16.3320    8.6880   18.5330 C.ar  201  017201      0.0213
      5  C5        17.1870    8.7450   19.6450 C.ar  201  017201      0.1223
      6  C6        17.0780    7.9080   20.7390 C.ar  201  017201      0.0213
      7  C7        16.0540    6.9530   20.7270 C.ar  201  017201      0.0194
      8  S8        18.5730    9.7990   19.4670 S.O2  201  017201      0.0634
      9  O9        18.2120   10.8030   18.4930 O.2   201  017201     -0.1528
     10  O10       18.9860   10.2500   20.7730 O.2   201  017201     -0.1528
     11  N11       19.8840    9.0000   18.8080 N.3   201  017201     -0.1529
     12  C12       20.4230    7.9160   19.6550 C.3   201  017201      0.0958
     13  C13       21.9620    7.7990   19.6180 C.3   201  017201      0.0178
     14  C14       22.5720    9.0630   20.2270 C.3   201  017201      0.0015
     15  C15       22.3000    6.5610   20.4770 C.3   201  017201      0.0015
     16  C16       19.8420    8.7570   17.3370 C.3   201  017201      0.1304
     17  C17       21.0160    9.5210   16.7200 C.3   201  017201      0.1898
     18  O18       21.1560    9.0870   15.3430 O.3   201  017201     -0.2197
     19  C19       20.8490   11.0710   16.7420 C.3   201  017201      0.1347
     20  N20       22.1230   11.6590   16.2760 N.am  201  017201     -0.1675
     21  C21       22.9280   12.3510   17.1260 C.2   201  017201      0.4211
     22  O22       22.7340   12.6000   18.2850 O.2   201  017201     -0.2246
     23  O23       24.0450   12.7520   16.4650 O.3   201  017201     -0.4345
     24  C24       24.8780   13.7400   17.1240 C.3   201  017201      0.2048
     25  C25       26.3100   13.3400   16.7040 C.3   201  017201      0.1884
     26  O26       26.4620   13.7980   15.3460 O.3   201  017201     -0.3265
     27  C27       25.7110   15.0030   15.2110 C.3   201  017201      0.2388
     28  O28       24.9440   14.9600   14.0290 O.3   201  017201     -0.3304
     29  C29       23.5430   14.9050   14.3490 C.3   201  017201      0.1451
     30  C30       23.4050   15.3990   15.7810 C.3   201  017201      0.0409
     31  C31       24.7590   15.1060   16.4460 C.3   201  017201      0.1016
     32  C32       19.6910   11.5850   15.8080 C.3   201  017201      0.0508
     33  C33       20.0940   13.8380   14.7220 C.ar  201  017201     -0.0042
     34  C34       20.0910   15.2470   14.7390 C.ar  201  017201     -0.0003
     35  C35       19.6530   15.8660   15.9360 C.ar  201  017201     -0.0000
     36  C36       19.2400   15.1400   17.0600 C.ar  201  017201     -0.0003
     37  C37       19.2650   13.7550   16.9840 C.ar  201  017201     -0.0042
     38  C38       19.6810   13.0950   15.8430 C.ar  201  017201     -0.0204
@<TRIPOS>BOND
     1    28    29    1
     2    28    27    1
     3    29    30    1
     4    33    34   ar
     5    33    38   ar
     6    34    35   ar
     7    27    26    1
     8    27    31    1
     9    18    17    1
    10    26    25    1
    11    30    31    1
    12    32    38    1
    13    32    19    1
    14    38    37   ar
    15    35    36   ar
    16    20    19    1
    17    20    21   am
    18    31    24    1
    19    23    24    1
    20    23    21    1
    21    25    24    1
    22    17    19    1
    23    17    16    1
    24    37    36   ar
    25    21    22    2
    26    16    11    1
    27     9     8    2
    28     4     3   ar
    29     4     5   ar
    30     3     2   ar
    31    11     8    1
    32    11    12    1
    33     8     5    1
    34     8    10    2
    35    13    12    1
    36    13    14    1
    37    13    15    1
    38     1     2    1
    39     2     7   ar
    40     5     6   ar
    41     7     6   ar
