@<TRIPOS>MOLECULE
3ec0_GRL_A_1.pdb
 39 42 0 0 0
SMALL
GASTEIGER

@<TRIPOS>ATOM
      1  C11       24.8150   13.5130   17.4340 C.3   201  GRL201      0.1730
      2  C12       24.1710   14.8850   17.6640 C.3   201  GRL201      0.0463
      3  O1        24.9190   14.5510   14.4740 O.3   201  GRL201     -0.3561
      4  C14       23.5520   14.9690   14.5130 C.3   201  GRL201      0.1421
      5  C15       24.6040   15.7850   16.4850 C.3   201  GRL201      0.0334
      6  C16       26.0210   13.7790   16.5290 C.3   201  GRL201      0.0732
      7  C2        23.5340   16.1790   15.4380 C.3   201  GRL201      0.0346
      8  C1        25.6440   14.9690   15.6340 C.3   201  GRL201      0.1189
      9  O13       23.9610   12.6510   16.6260 O.3   201  GRL201     -0.4372
     10  C21       22.8620   12.1670   17.2540 C.2   201  GRL201      0.4210
     11  C22       20.7650   10.9820   16.7830 C.3   201  GRL201      0.1347
     12  C23       19.6470   11.5360   15.8640 C.3   201  GRL201      0.0508
     13  C24       19.6310   13.0370   15.9510 C.ar  201  GRL201     -0.0204
     14  C25       20.0680   13.8400   14.8740 C.ar  201  GRL201     -0.0042
     15  C26       20.0550   15.2360   14.9490 C.ar  201  GRL201     -0.0003
     16  C27       19.5950   15.8530   16.1250 C.ar  201  GRL201     -0.0000
     17  C28       19.1540   15.0770   17.2140 C.ar  201  GRL201     -0.0003
     18  C29       19.1780   13.6640   17.1100 C.ar  201  GRL201     -0.0042
     19  O21       22.7060   12.2890   18.4500 O.2   201  GRL201     -0.2246
     20  N21       22.0490   11.5740   16.3500 N.am  201  GRL201     -0.1675
     21  C31       20.9050    9.4380   16.7390 C.3   201  GRL201      0.1898
     22  C32       19.7400    8.7110   17.3930 C.3   201  GRL201      0.1304
     23  C33       20.2860    7.8100   19.7130 C.3   201  GRL201      0.0958
     24  C34       21.8160    7.7370   19.6470 C.3   201  GRL201      0.0178
     25  C35       22.4050    9.0260   20.2780 C.3   201  GRL201      0.0015
     26  C36       22.2080    6.5230   20.5600 C.3   201  GRL201      0.0015
     27  O31       21.0490    8.9830   15.3910 O.3   201  GRL201     -0.2197
     28  O32       18.0920   10.6930   18.5150 O.2   201  GRL201     -0.1528
     29  O33       18.9520   10.2480   20.7840 O.2   201  GRL201     -0.1528
     30  N31       19.7430    8.8900   18.8550 N.3   201  GRL201     -0.1529
     31  S31       18.5060    9.7420   19.5210 S.O2  201  GRL201      0.0634
     32  C41       17.1390    8.6680   19.8760 C.ar  201  GRL201      0.1222
     33  C42       16.2730    8.3450   18.8060 C.ar  201  GRL201      0.0197
     34  C43       15.2670    7.4310   19.0520 C.ar  201  GRL201     -0.0004
     35  C44       15.1340    6.8680   20.3100 C.ar  201  GRL201      0.0107
     36  C45       16.0020    7.2050   21.3450 C.ar  201  GRL201     -0.0004
     37  C46       17.0470    8.1340   21.1490 C.ar  201  GRL201      0.0197
     38  C3        13.9970    5.8770   20.4770 C.3   201  GRL201      0.2086
     39  O2        14.4680    4.5790   20.2090 O.3   201  GRL201     -0.2152
@<TRIPOS>BOND
     1     3     4    1
     2     3     8    1
     3     4     7    1
     4    14    15   ar
     5    14    13   ar
     6    15    16   ar
     7    27    21    1
     8     7     5    1
     9     8     5    1
    10     8     6    1
    11    12    13    1
    12    12    11    1
    13    13    18   ar
    14    16    17   ar
    15    20    11    1
    16    20    10   am
    17     5     2    1
    18     6     1    1
    19     9    10    1
    20     9     1    1
    21    21    11    1
    22    21    22    1
    23    18    17   ar
    24    10    19    2
    25    22    30    1
    26     1     2    1
    27    28    31    2
    28    33    34   ar
    29    33    32   ar
    30    30    31    1
    31    30    23    1
    32    34    35   ar
    33    31    32    1
    34    31    29    2
    35    24    23    1
    36    24    25    1
    37    24    26    1
    38    32    37   ar
    39    39    38    1
    40    35    38    1
    41    35    36   ar
    42    37    36   ar
