@<TRIPOS>MOLECULE
3ec1_GDP_A_1.pdb
 28 30 0 0 0
SMALL
GASTEIGER

@<TRIPOS>ATOM
      1  PB        18.4030   12.1600    0.5400 P.3   900  GDP900      0.5373
      2  O1B       17.4080   12.5640   -0.4620 O.2   900  GDP900     -0.2221
      3  O2B       17.6620   11.8660    1.9290 O.3   900  GDP900     -0.1143
      4  O3B       19.4840   13.3330    0.7200 O.3   900  GDP900     -0.1143
      5  O3A       19.1740   10.8070    0.1580 O.3   900  GDP900     -0.2261
      6  PA        19.9040   11.0640   -1.2070 P.3   900  GDP900      0.2231
      7  O1A       21.3050   11.5080   -1.1990 O.3   900  GDP900     -0.4370
      8  O2A       19.2840   10.3770   -2.5520 O.2   900  GDP900     -0.5169
      9  O5'       20.5260    9.5870   -0.9720 O.3   900  GDP900     -0.3111
     10  C5'       21.3590    9.2880   -2.1110 C.3   900  GDP900      0.1813
     11  C4'       22.0260    7.9620   -1.9280 C.3   900  GDP900      0.1799
     12  O4'       21.0390    6.9690   -1.6490 O.3   900  GDP900     -0.3326
     13  C3'       22.8070    7.6160   -3.2060 C.3   900  GDP900      0.2158
     14  O3'       24.2330    7.6800   -3.0160 O.3   900  GDP900     -0.2175
     15  C2'       22.2920    6.2100   -3.5820 C.3   900  GDP900      0.2310
     16  O2'       23.3610    5.2650   -3.6700 O.3   900  GDP900     -0.2158
     17  C1'       21.2730    5.8230   -2.4740 C.3   900  GDP900      0.2293
     18  N9        19.9860    5.3880   -3.0170 N.pl3 900  GDP900     -0.2354
     19  C8        18.8640    6.1640   -3.1940 C.3   900  GDP900      0.2246
     20  N7        17.9030    5.4440   -3.6910 N.2   900  GDP900     -0.2322
     21  C5        18.3480    4.1800   -3.8750 C.2   900  GDP900      0.2182
     22  C6        17.7620    2.9910   -4.3610 C.1   900  GDP900      0.2372
     23  O6        16.6100    2.9790   -4.7500 O.2   900  GDP900     -0.2069
     24  N1        18.5210    1.8670   -4.3990 N.2   900  GDP900     -0.2485
     25  C2        19.8170    1.8850   -3.9690 C.1   900  GDP900      0.2531
     26  N2        20.5520    0.7270   -4.0170 N.pl3 900  GDP900     -0.0226
     27  N3        20.3720    2.9780   -3.5030 N.2   900  GDP900     -0.3074
     28  C4        19.6840    4.1310   -3.4410 C.2   900  GDP900      0.2300
@<TRIPOS>BOND
     1    23    22    2
     2    24    22    2
     3    24    25    2
     4    22    21    1
     5    26    25    1
     6    25    27    2
     7    21    20    2
     8    21    28    1
     9    20    19    1
    10    16    15    1
    11    15    13    1
    12    15    17    1
    13    27    28    2
    14    28    18    1
    15    13    14    1
    16    13    11    1
    17    19    18    1
    18    18    17    1
    19     8     6    2
    20    17    12    1
    21    10    11    1
    22    10     9    1
    23    11    12    1
    24     6     7    1
    25     6     9    1
    26     6     5    1
    27     2     1    2
    28     5     1    1
    29     1     4    1
    30     1     3    1
