@<TRIPOS>MOLECULE
3ec2_ADP_A_1.pdb
 27 29 0 0 0
SMALL
GASTEIGER

@<TRIPOS>ATOM
      1  PB        26.0230   16.0960   23.8070 P.3   222  ADP222      0.5373
      2  O1B       25.6070   16.2070   25.2610 O.3   222  ADP222     -0.1143
      3  O2B       25.6180   17.2200   22.8700 O.2   222  ADP222     -0.2221
      4  O3B       25.6750   14.6800   23.3890 O.3   222  ADP222     -0.1143
      5  PA        28.4840   15.7600   25.0720 P.3   222  ADP222      0.2231
      6  O1A       28.4360   16.8670   26.0840 O.3   222  ADP222     -0.4370
      7  O2A       27.9670   14.4720   25.6800 O.2   222  ADP222     -0.5169
      8  O3A       27.6300   16.2070   23.7720 O.3   222  ADP222     -0.2261
      9  O5'       29.9430   15.5890   24.4660 O.3   222  ADP222     -0.3111
     10  C5'       30.4540   14.3380   24.0640 C.3   222  ADP222      0.1813
     11  C4'       31.8910   14.2640   24.5170 C.3   222  ADP222      0.1821
     12  O4'       32.6610   15.2320   23.8170 O.3   222  ADP222     -0.3135
     13  C3'       31.9970   14.6060   25.9770 C.3   222  ADP222      0.2184
     14  O3'       32.8450   13.6310   26.5660 O.3   222  ADP222     -0.2174
     15  C2'       32.6220   15.9950   26.0300 C.3   222  ADP222      0.2570
     16  O2'       33.5080   16.0630   27.1180 O.3   222  ADP222     -0.2130
     17  C1'       33.3410   16.1260   24.7110 C.3   222  ADP222      0.3186
     18  N9        33.3130   17.4920   24.1410 N.pl3 222  ADP222     -0.1439
     19  C8        32.4390   17.9510   23.2240 C.3   222  ADP222      0.3377
     20  N7        32.7170   19.2320   22.8530 N.2   222  ADP222     -0.2095
     21  C5        33.8150   19.6100   23.5170 C.2   222  ADP222      0.2526
     22  C6        34.6550   20.8530   23.5900 C.2   222  ADP222      0.4393
     23  N6        34.3600   21.9980   22.8640 N.pl3 222  ADP222      0.2180
     24  N1        35.7170   20.8070   24.4270 N.2   222  ADP222      0.0021
     25  C2        36.0200   19.7020   25.1530 C.3   222  ADP222      0.5254
     26  N3        35.3050   18.5540   25.1300 N.2   222  ADP222     -0.0055
     27  C4        34.2080   18.4510   24.3590 C.2   222  ADP222      0.3518
@<TRIPOS>BOND
     1    20    19    1
     2    20    21    2
     3    23    22    1
     4     3     1    2
     5    19    18    1
     6     4     1    1
     7    21    22    1
     8    21    27    1
     9    22    24    2
    10     8     1    1
    11     8     5    1
    12     1     2    1
    13    12    11    1
    14    12    17    1
    15    10     9    1
    16    10    11    1
    17    18    27    1
    18    18    17    1
    19    27    26    2
    20    24    25    1
    21     9     5    1
    22    11    13    1
    23    17    15    1
    24     5     7    2
    25     5     6    1
    26    26    25    1
    27    13    15    1
    28    13    14    1
    29    15    16    1
