@<TRIPOS>MOLECULE
3ec7_NAD_A_1.pdb
 44 48 0 0 0
SMALL
GASTEIGER

@<TRIPOS>ATOM
      1  PA        25.6040    2.1290   -7.6550 P.3   400  NAD400      0.2189
      2  O1A       24.4170    2.9270   -7.2510 O.3   400  NAD400     -0.4371
      3  O2A       25.4320    0.6690   -7.4750 O.2   400  NAD400     -0.5170
      4  O5B       26.1440    2.5470   -9.1000 O.3   400  NAD400     -0.3112
      5  C5B       27.2900    1.9070   -9.6170 C.3   400  NAD400      0.1813
      6  C4B       26.9630    1.8360  -11.0940 C.3   400  NAD400      0.1821
      7  O4B       28.0830    1.5280  -11.8940 O.3   400  NAD400     -0.3135
      8  C3B       25.8410    0.8290  -11.3850 C.3   400  NAD400      0.2184
      9  O3B       24.7670    1.5500  -11.9500 O.3   400  NAD400     -0.2174
     10  C2B       26.4790   -0.1350  -12.3770 C.3   400  NAD400      0.2570
     11  O2B       25.6220   -0.5140  -13.4420 O.3   400  NAD400     -0.2130
     12  C1B       27.6600    0.6600  -12.9210 C.3   400  NAD400      0.3186
     13  N9A       28.7050   -0.2200  -13.4430 N.pl3 400  NAD400     -0.1439
     14  C8A       29.2860   -1.3550  -12.8920 C.3   400  NAD400      0.3377
     15  N7A       30.2040   -1.8360  -13.7900 N.2   400  NAD400     -0.2095
     16  C5A       30.1760   -1.0530  -14.9080 C.2   400  NAD400      0.2526
     17  C6A       30.8670   -1.0460  -16.1220 C.2   400  NAD400      0.4393
     18  N6A       31.6710   -2.0420  -16.4710 N.pl3 400  NAD400      0.2180
     19  N1A       30.6110   -0.0720  -17.0740 N.2   400  NAD400      0.0021
     20  C2A       29.6840    0.9150  -16.8290 C.3   400  NAD400      0.5254
     21  N3A       29.0080    0.9000  -15.6230 N.2   400  NAD400     -0.0055
     22  C4A       29.2460   -0.0400  -14.6860 C.2   400  NAD400      0.3518
     23  O3        26.8930    2.5680   -6.7790 O.3   400  NAD400     -0.2703
     24  PN        27.0470    4.0460   -6.1770 P.3   400  NAD400      0.2189
     25  O1N       26.4110    3.9780   -4.8550 O.3   400  NAD400     -0.4371
     26  O2N       26.5970    5.0590   -7.1770 O.2   400  NAD400     -0.5170
     27  O5D       28.6630    4.0110   -6.0890 O.3   400  NAD400     -0.3112
     28  C5D       29.5480    4.1580   -7.1860 C.3   400  NAD400      0.1813
     29  C4D       30.9680    4.4700   -6.6750 C.3   400  NAD400      0.1799
     30  O4D       31.0300    5.7190   -5.9780 O.3   400  NAD400     -0.3327
     31  C3D       31.4730    3.3920   -5.7100 C.3   400  NAD400      0.2158
     32  O3D       32.8550    3.3370   -5.9940 O.3   400  NAD400     -0.2175
     33  C2D       31.1920    3.9800   -4.3160 C.3   400  NAD400      0.2309
     34  O2D       32.1590    3.6140   -3.3430 O.3   400  NAD400     -0.2158
     35  C1D       31.3630    5.4810   -4.5930 C.3   400  NAD400      0.2263
     36  N1N       30.6720    6.3760   -3.6410 N.pl3 400  NAD400     -0.2787
     37  C2N       31.3580    7.4020   -3.0620 C.3   400  NAD400      0.1244
     38  C3N       30.7020    8.2400   -2.1610 C.2   400  NAD400      0.0544
     39  C7N       31.4260    9.4020   -1.5500 C.2   400  NAD400      0.2818
     40  O7N       32.6090    9.8070   -2.1590 O.2   400  NAD400     -0.2670
     41  N7N       30.9570   10.0190   -0.4500 N.am  400  NAD400     -0.0839
     42  C4N       29.3450    8.0450   -1.8700 C.2   400  NAD400      0.0033
     43  C5N       28.6440    6.9950   -2.4700 C.2   400  NAD400      0.0157
     44  C6N       29.3340    6.1740   -3.3540 C.2   400  NAD400      0.0633
@<TRIPOS>BOND
     1    19    20    1
     2    19    17    2
     3    20    21    1
     4    18    17    1
     5    17    16    1
     6    21    22    2
     7    16    22    1
     8    16    15    2
     9    22    13    1
    10    15    14    1
    11    13    12    1
    12    13    14    1
    13    11    10    1
    14    12    10    1
    15    12     7    1
    16    10     8    1
    17     9     8    1
    18     7     6    1
    19     8     6    1
    20     6     5    1
    21     5     4    1
    22     4     1    1
    23     1     3    2
    24     1     2    1
    25     1    23    1
    26    28    29    1
    27    28    27    1
    28    26    24    2
    29    23    24    1
    30    29    30    1
    31    29    31    1
    32    24    27    1
    33    24    25    1
    34    32    31    1
    35    30    35    1
    36    31    33    1
    37    35    33    1
    38    35    36    1
    39    33    34    1
    40    36    44    1
    41    36    37    1
    42    44    43    2
    43    37    38    1
    44    43    42    1
    45    38    42    2
    46    38    39    1
    47    40    39    2
    48    39    41   am
