@<TRIPOS>MOLECULE
3ecc_ADP_A_1.pdb
 27 29 0 0 0
SMALL
GASTEIGER

@<TRIPOS>ATOM
      1  PB        25.9650   16.4290   23.7690 P.3   500  ADP500      0.5373
      2  O1B       25.6730   16.5210   25.2560 O.3   500  ADP500     -0.1143
      3  O2B       25.4030   17.5670   22.9590 O.2   500  ADP500     -0.2221
      4  O3B       25.7000   15.0720   23.1780 O.3   500  ADP500     -0.1143
      5  PA        28.5440   16.0950   24.8470 P.3   500  ADP500      0.2231
      6  O1A       28.6170   17.1760   25.8970 O.3   500  ADP500     -0.4370
      7  O2A       28.1600   14.7770   25.4990 O.2   500  ADP500     -0.5169
      8  O3A       27.5500   16.5650   23.6590 O.3   500  ADP500     -0.2261
      9  O5'       29.9370   15.9700   24.0490 O.3   500  ADP500     -0.3111
     10  C5'       30.5030   14.7220   23.6630 C.3   500  ADP500      0.1813
     11  C4'       31.9560   14.6600   24.1160 C.3   500  ADP500      0.1821
     12  O4'       32.6960   15.6920   23.4640 O.3   500  ADP500     -0.3135
     13  C3'       32.0810   14.9100   25.6050 C.3   500  ADP500      0.2184
     14  O3'       32.9400   13.9210   26.1490 O.3   500  ADP500     -0.2174
     15  C2'       32.6730   16.3050   25.7350 C.3   500  ADP500      0.2570
     16  O2'       33.6200   16.3610   26.7840 O.3   500  ADP500     -0.2130
     17  C1'       33.3620   16.5320   24.4130 C.3   500  ADP500      0.3186
     18  N9        33.3230   17.9480   23.9560 N.pl3 500  ADP500     -0.1439
     19  C8        32.3130   18.5650   23.3070 C.3   500  ADP500      0.3377
     20  N7        32.6340   19.8550   23.0140 N.2   500  ADP500     -0.2095
     21  C5        33.8770   20.0730   23.4610 C.2   500  ADP500      0.2526
     22  C6        34.8340   21.2130   23.4840 C.2   500  ADP500      0.4393
     23  N6        34.5350   22.4170   22.9410 N.pl3 500  ADP500      0.2180
     24  N1        36.0310   21.0140   24.0520 N.2   500  ADP500      0.0021
     25  C2        36.3780   19.8270   24.5900 C.3   500  ADP500      0.5254
     26  N3        35.5630   18.7550   24.6040 N.2   500  ADP500     -0.0055
     27  C4        34.3320   18.8150   24.0710 C.2   500  ADP500      0.3518
@<TRIPOS>BOND
     1    23    22    1
     2     3     1    2
     3    20    19    1
     4    20    21    2
     5     4     1    1
     6    19    18    1
     7    21    22    1
     8    21    27    1
     9    12    11    1
    10    12    17    1
    11    22    24    2
    12     8     1    1
    13     8     5    1
    14    10     9    1
    15    10    11    1
    16     1     2    1
    17    18    27    1
    18    18    17    1
    19     9     5    1
    20    24    25    1
    21    27    26    2
    22    11    13    1
    23    17    15    1
    24    25    26    1
    25     5     7    2
    26     5     6    1
    27    13    15    1
    28    13    14    1
    29    15    16    1
