@<TRIPOS>MOLECULE
3ecg_065_A_1.pdb
 40 44 0 0 0
SMALL
GASTEIGER

@<TRIPOS>ATOM
      1  C2        15.4450    6.6070   19.7660 C.ar  201  065201      0.1765
      2  O39       14.6370    5.5610   20.0490 O.3   201  065201     -0.4346
      3  C40       14.9870    5.1280   21.3730 C.3   201  065201      0.4294
      4  O41       15.9910    6.0080   21.8770 O.3   201  065201     -0.4346
      5  C3        16.2690    6.8730   20.8860 C.ar  201  065201      0.1778
      6  C4        17.1580    7.8770   20.8320 C.ar  201  065201      0.0601
      7  C5        17.2100    8.6020   19.6530 C.ar  201  065201      0.1254
      8  C6        16.4100    8.3620   18.5370 C.ar  201  065201      0.0232
      9  C7        15.5040    7.3180   18.6300 C.ar  201  065201      0.0416
     10  S8        18.5930    9.7300   19.4370 S.O2  201  065201      0.0635
     11  O9        18.9710   10.2360   20.7060 O.2   201  065201     -0.1528
     12  O10       18.1460   10.7090   18.4250 O.2   201  065201     -0.1528
     13  N11       19.8510    8.8270   18.7790 N.3   201  065201     -0.1529
     14  C12       20.4730    7.9120   19.7000 C.3   201  065201      0.0958
     15  C13       22.0270    7.8310   19.5820 C.3   201  065201      0.0178
     16  C14       22.3560    6.5500   20.4080 C.3   201  065201      0.0015
     17  C15       22.5680    9.0450   20.3800 C.3   201  065201      0.0015
     18  C16       19.8280    8.7590   17.3100 C.3   201  065201      0.1304
     19  C17       21.0690    9.4830   16.7160 C.3   201  065201      0.1898
     20  O18       21.2550    9.0740   15.3430 O.3   201  065201     -0.2197
     21  C19       20.8820   11.0230   16.7450 C.3   201  065201      0.1347
     22  N20       22.1420   11.6790   16.3930 N.am  201  065201     -0.1675
     23  C21       22.9770   12.3110   17.2160 C.2   201  065201      0.4211
     24  O22       22.8220   12.4390   18.4160 O.2   201  065201     -0.2246
     25  O23       24.0520   12.8050   16.5210 O.3   201  065201     -0.4345
     26  C24       24.9200   13.7760   17.1420 C.3   201  065201      0.2048
     27  C25       26.3530   13.3550   16.7310 C.3   201  065201      0.1884
     28  O26       26.5410   13.8630   15.4390 O.3   201  065201     -0.3265
     29  C27       25.8160   15.0750   15.2440 C.3   201  065201      0.2388
     30  O28       25.0380   15.0120   14.0530 O.3   201  065201     -0.3304
     31  C29       23.6420   14.9250   14.3340 C.3   201  065201      0.1451
     32  C30       23.5060   15.4820   15.7690 C.3   201  065201      0.0409
     33  C31       24.8570   15.1580   16.4600 C.3   201  065201      0.1016
     34  C32       19.7980   11.6110   15.7960 C.3   201  065201      0.0508
     35  C33       20.1490   13.8780   14.7860 C.ar  201  065201     -0.0042
     36  C34       20.1100   15.2820   14.8180 C.ar  201  065201     -0.0003
     37  C35       19.6450   15.9200   15.9730 C.ar  201  065201     -0.0000
     38  C36       19.2320   15.1680   17.0660 C.ar  201  065201     -0.0003
     39  C37       19.2870   13.7660   16.9930 C.ar  201  065201     -0.0042
     40  C38       19.7430   13.1100   15.8590 C.ar  201  065201     -0.0204
@<TRIPOS>BOND
     1    30    31    1
     2    30    29    1
     3    31    32    1
     4    35    36   ar
     5    35    40   ar
     6    36    37   ar
     7    29    28    1
     8    29    33    1
     9    20    19    1
    10    28    27    1
    11    32    33    1
    12    34    40    1
    13    34    21    1
    14    40    39   ar
    15    37    38   ar
    16    22    21    1
    17    22    23   am
    18    33    26    1
    19    25    26    1
    20    25    23    1
    21    19    21    1
    22    19    18    1
    23    27    26    1
    24    39    38   ar
    25    23    24    2
    26    18    13    1
    27    12    10    2
    28     8     9   ar
    29     8     7   ar
    30     9     1   ar
    31    13    10    1
    32    13    14    1
    33    10     7    1
    34    10    11    2
    35    15    14    1
    36    15    17    1
    37    15    16    1
    38     7     6   ar
    39     1     2    1
    40     1     5   ar
    41     2     3    1
    42     6     5   ar
    43     5     4    1
    44     3     4    1
