@<TRIPOS>MOLECULE
3eck_XXG_C_1.pdb
 13 13 0 0 0
SMALL
GASTEIGER

@<TRIPOS>ATOM
      1  O7        22.3350   40.5200   36.2600 O.3   502  XXG502     -0.2101
      2  C1        22.7380   41.6750   36.6580 C.3   502  XXG502      0.2571
      3  C2        21.7330   42.8020   36.9260 C.3   502  XXG502      0.3846
      4  O13       21.5120   43.2410   38.2730 O.2   502  XXG502     -0.2722
      5  O8        20.4180   42.5410   36.4220 O.2   502  XXG502     -0.2722
      6  C3        22.2440   44.1010   36.4920 C.3   502  XXG502      0.1233
      7  C6        24.1130   41.9690   36.6960 C.2   502  XXG502      0.0110
      8  C5        24.5380   43.3040   36.6190 C.2   502  XXG502     -0.0041
      9  C4        23.6190   44.3490   36.5370 C.3   502  XXG502      0.1651
     10  S9        24.0740   45.8770   36.3770 S.3   502  XXG502      0.0250
     11  O12       25.4000   45.9590   35.7790 O.3   502  XXG502     -0.0692
     12  O10       24.1220   46.4760   37.7080 O.3   502  XXG502     -0.0692
     13  O11       22.9300   46.7000   35.4260 O.3   502  XXG502     -0.0692
@<TRIPOS>BOND
     1    13    10    1
     2    11    10    1
     3     1     2    1
     4    10     9    1
     5    10    12    1
     6     5     3    1
     7     6     9    1
     8     6     3    1
     9     9     8    1
    10     8     7    2
    11     2     7    1
    12     2     3    1
    13     3     4    1
