@<TRIPOS>MOLECULE
3ecl_HEM_A_1.pdb
 43 50 0 0 0
SMALL
GASTEIGER

@<TRIPOS>ATOM
      1 FE        -16.5380   -6.7770   15.2280 Fe    154  HEM154      0.0000
      2  CHA      -16.6500   -9.7700   16.8470 C.2   154  HEM154      0.0000
      3  CHB      -13.1370   -6.7000   15.6240 C.2   154  HEM154      0.0000
      4  CHC      -16.4480   -3.5540   14.1000 C.2   154  HEM154      0.0000
      5  CHD      -19.9280   -6.6010   15.3460 C.2   154  HEM154      0.0000
      6  NA       -15.1300   -8.0050   16.1070 N.2   154  HEM154      0.0000
      7  C1A      -15.3780   -9.2780   16.6080 C.2   154  HEM154      0.0000
      8  C2A      -14.0850   -9.9070   16.8940 C.2   154  HEM154      0.0000
      9  C3A      -13.1150   -9.0290   16.5520 C.2   154  HEM154      0.0000
     10  C4A      -13.7620   -7.8180   16.0450 C.2   154  HEM154      0.0000
     11  CMA      -11.6000   -9.1940   16.6560 C.3   154  HEM154      0.0000
     12  CAA      -13.9100  -11.3450   17.3630 C.3   154  HEM154      0.0000
     13  CBA      -13.4300  -12.2590   16.1760 C.3   154  HEM154      0.0000
     14  CGA      -14.3960  -12.2790   14.9950 C.2   154  HEM154      0.0000
     15  O1A      -14.0080  -11.8380   13.8680 O.co2 154  HEM154      0.0000
     16  O2A      -15.5820  -12.6370   15.1670 O.co2 154  HEM154      0.0000
     17  NB       -15.0670   -5.3150   14.9560 N.ar  154  HEM154      0.0000
     18  C1B      -13.6870   -5.5330   15.0720 C.ar  154  HEM154      0.0000
     19  C2B      -13.0010   -4.4010   14.5500 C.ar  154  HEM154      0.0000
     20  C3B      -13.9260   -3.5230   14.1520 C.ar  154  HEM154      0.0000
     21  C4B      -15.2280   -4.0850   14.4000 C.ar  154  HEM154      0.0000
     22  CMB      -11.4740   -4.2870   14.5080 C.3   154  HEM154      0.0000
     23  CAB      -13.7670   -2.1460   13.5850 C.2   154  HEM154      0.0000
     24  CBB      -12.7730   -1.3040   13.8920 C.2   154  HEM154      0.0000
     25  NC       -17.9730   -5.3320   14.7570 N.2   154  HEM154      0.0000
     26  C1C      -17.7420   -4.0430   14.3030 C.2   154  HEM154      0.0000
     27  C2C      -18.9910   -3.3370   14.1270 C.2   154  HEM154      0.0000
     28  C3C      -19.9480   -4.2010   14.5260 C.2   154  HEM154      0.0000
     29  C4C      -19.3450   -5.4530   14.9190 C.2   154  HEM154      0.0000
     30  CMC      -19.1370   -1.9290   13.6500 C.3   154  HEM154      0.0000
     31  CAC      -21.4750   -4.0330   14.6240 C.2   154  HEM154      0.0000
     32  CBC      -22.1260   -2.9280   14.3360 C.2   154  HEM154      0.0000
     33  ND       -18.0100   -7.9620   15.9960 N.ar  154  HEM154      0.0000
     34  C1D      -19.3690   -7.7480   15.8530 C.ar  154  HEM154      0.0000
     35  C2D      -20.1320   -8.8830   16.3730 C.ar  154  HEM154      0.0000
     36  C3D      -19.1450   -9.8170   16.8540 C.ar  154  HEM154      0.0000
     37  C4D      -17.8590   -9.2310   16.5340 C.ar  154  HEM154      0.0000
     38  CMD      -21.6310   -9.0490   16.4080 C.3   154  HEM154      0.0000
     39  CAD      -19.4450  -11.0910   17.5870 C.3   154  HEM154      0.0000
     40  CBD      -19.6240  -10.7410   19.1030 C.3   154  HEM154      0.0000
     41  CGD      -19.9420  -11.9820   19.9300 C.2   154  HEM154      0.0000
     42  O1D      -21.1800  -12.3340   19.9720 O.co2 154  HEM154      0.0000
     43  O2D      -18.9960  -12.5710   20.4900 O.co2 154  HEM154      0.0000
@<TRIPOS>BOND
     1    23    24    2
     2    23    20    1
     3    30    27    1
     4    15    14   ar
     5     4    26    2
     6     4    21    1
     7    27    26    1
     8    27    28    2
     9    20    21   ar
    10    20    19   ar
    11    26    25    1
    12    32    31    2
    13    21    17   ar
    14    22    19    1
    15    28    31    1
    16    28    29    1
    17    19    18   ar
    18    25    29    2
    19    25     1    1
    20    29     5    1
    21    17    18   ar
    22    17     1    1
    23    14    16   ar
    24    14    13    1
    25    18     3    1
    26     1    33    1
    27     1     6    1
    28     5    34    2
    29     3    10    2
    30    34    33   ar
    31    34    35   ar
    32    33    37   ar
    33    10     6    1
    34    10     9    1
    35     6     7    2
    36    13    12    1
    37    35    38    1
    38    35    36   ar
    39    37     2    2
    40    37    36   ar
    41     9    11    1
    42     9     8    2
    43     7     2    1
    44     7     8    1
    45    36    39    1
    46     8    12    1
    47    39    40    1
    48    40    41    1
    49    41    42   ar
    50    41    43   ar
