@<TRIPOS>MOLECULE
3ecn_IBM_A_1.pdb
 16 17 0 0 0
SMALL
GASTEIGER

@<TRIPOS>ATOM
      1  N9        -1.3710  -10.2650   19.1130 N.2     3  IBM3       -0.2256
      2  C8        -1.6880   -9.5450   20.2390 C.3     3  IBM3        0.2523
      3  N7        -1.5960  -10.2340   21.3490 N.2     3  IBM3       -0.2364
      4  C5        -1.1910  -11.4920   20.9250 C.ar    3  IBM3        0.1681
      5  C4        -1.0490  -11.5280   19.5530 C.ar    3  IBM3        0.1667
      6  N3        -0.6760  -12.5810   18.7920 N.ar    3  IBM3       -0.2651
      7  C2        -0.4000  -13.7210   19.4950 C.ar    3  IBM3        0.3350
      8  N1        -0.5190  -13.7800   20.8890 N.ar    3  IBM3       -0.2454
      9  C6        -0.9150  -12.6740   21.6040 C.ar    3  IBM3        0.2846
     10  O6        -1.0170  -12.7230   22.8260 O.2     3  IBM3       -0.2651
     11  O2        -0.0400  -14.7230   18.8870 O.2     3  IBM3       -0.2461
     12  C10       -0.2280  -15.0230   21.5860 C.3     3  IBM3        0.1383
     13  C11       -0.6190  -12.5140   17.3340 C.3     3  IBM3        0.1119
     14  C12        0.8320  -12.3490   16.8690 C.3     3  IBM3        0.0228
     15  C13        1.4340  -13.7060   16.5190 C.3     3  IBM3        0.0020
     16  C14        0.8870  -11.4190   15.6580 C.3     3  IBM3        0.0020
@<TRIPOS>BOND
     1    16    14    1
     2    15    14    1
     3    14    13    1
     4    13     6    1
     5     6     7   ar
     6     6     5   ar
     7    11     7    2
     8     1     5    2
     9     1     2    1
    10     7     8   ar
    11     5     4   ar
    12     2     3    1
    13     8    12    1
    14     8     9   ar
    15     4     3    2
    16     4     9   ar
    17     9    10    2
