@<TRIPOS>MOLECULE
3ecr_DPM_A_1.pdb
 30 31 0 0 0
SMALL
GASTEIGER

@<TRIPOS>ATOM
      1  C1A       27.5320   36.0690   32.9750 C.2   365  DPM365      0.1053
      2  C2A       27.3070   36.7720   34.1740 C.2   365  DPM365      0.0132
      3  C3A       27.5340   35.9510   35.2150 C.2   365  DPM365      0.0241
      4  C4A       27.9410   34.6160   34.6380 C.2   365  DPM365      0.1139
      5  C5A       26.8820   38.2310   34.3260 C.3   365  DPM365      0.1284
      6  C6A       25.3910   38.4360   34.5180 C.3   365  DPM365      0.4303
      7  C7A       27.3590   36.3810   36.7020 C.2   365  DPM365      0.0052
      8  C8A       28.6100   36.8350   37.4450 C.2   365  DPM365      0.0719
      9  C9A       28.6230   36.8690   38.9910 C.3   365  DPM365      0.4484
     10  CHA       27.3950   36.6380   31.5610 C.3   365  DPM365      0.0660
     11  NA        27.9400   34.7310   33.3060 N.2   365  DPM365     -0.4105
     12  O1A       25.0380   39.6610   35.0280 O.2   365  DPM365     -0.2667
     13  O2A       24.7370   37.3890   35.1580 O.2   365  DPM365     -0.2667
     14  O3A       29.8940   37.2230   39.4940 O.2   365  DPM365     -0.2617
     15  O4A       27.6210   37.6760   39.5710 O.2   365  DPM365     -0.2617
     16  C1B       27.4310   32.1860   35.4240 C.2   365  DPM365      0.0385
     17  C2B       26.2460   31.9360   36.4230 C.3   365  DPM365      0.0459
     18  C3B       25.6400   30.6150   35.9790 C.3   365  DPM365      0.0304
     19  C4B       25.9510   30.5290   34.4990 C.3   365  DPM365      0.1250
     20  C5B       26.3920   32.1460   37.9260 C.3   365  DPM365      0.1054
     21  C6B       25.4720   33.2010   38.5070 C.3   365  DPM365      0.4263
     22  C7B       24.2750   30.1740   36.5090 C.3   365  DPM365      0.0142
     23  C8B       23.0110   30.4920   35.6890 C.3   365  DPM365      0.1141
     24  C9B       22.7740   29.8860   34.2930 C.2   365  DPM365      0.3649
     25  CHB       28.4080   33.3780   35.4450 C.3   365  DPM365      0.0997
     26  NB        27.1210   31.3860   34.1850 N.2   365  DPM365     -0.2785
     27  O1B       24.7090   33.8470   37.5580 O.2   365  DPM365     -0.2671
     28  O2B       24.7520   32.8510   39.6600 O.2   365  DPM365     -0.2671
     29  O3B       22.2620   30.9240   33.4770 O.co2 365  DPM365     -0.2457
     30  O4B       23.4410   29.1020   34.0640 O.co2 365  DPM365     -0.2457
@<TRIPOS>BOND
     1    10     1    1
     2     1    11    2
     3     1     2    1
     4    11     4    2
     5    29    24   ar
     6    30    24   ar
     7     2     5    1
     8     2     3    2
     9    26    19    1
    10    26    16    2
    11    24    23    1
    12     5     6    1
    13    19    18    1
    14     6    12    1
    15     6    13    1
    16     4     3    1
    17     4    25    1
    18     3     7    1
    19    16    25    1
    20    16    17    1
    21    23    22    1
    22    18    17    1
    23    18    22    1
    24    17    20    1
    25     7     8    2
    26     8     9    1
    27    27    21    1
    28    20    21    1
    29    21    28    1
    30     9    14    1
    31     9    15    1
