@<TRIPOS>MOLECULE
3ecx_HEM_A_1.pdb
 43 50 0 0 0
SMALL
GASTEIGER

@<TRIPOS>ATOM
      1 FE         -0.5800    6.8470   15.3520 Fe    154  HEM154      0.0000
      2  CHA       -0.5220    9.9820   16.7590 C.2   154  HEM154      0.0000
      3  CHB       -4.0110    6.8320   15.5500 C.2   154  HEM154      0.0000
      4  CHC       -0.6720    3.6740   14.1000 C.2   154  HEM154      0.0000
      5  CHD        2.7770    6.7930   15.3170 C.2   154  HEM154      0.0000
      6  NA        -1.9870    8.1760   16.0150 N.2   154  HEM154      0.0000
      7  C1A       -1.7680    9.4340   16.5370 C.2   154  HEM154      0.0000
      8  C2A       -3.0580   10.0560   16.8080 C.2   154  HEM154      0.0000
      9  C3A       -3.9980    9.1550   16.4700 C.2   154  HEM154      0.0000
     10  C4A       -3.3570    7.9730   15.9790 C.2   154  HEM154      0.0000
     11  CMA       -5.5240    9.3000   16.5480 C.3   154  HEM154      0.0000
     12  CAA       -3.1940   11.4770   17.3030 C.3   154  HEM154      0.0000
     13  CBA       -3.7130   12.3440   16.1420 C.3   154  HEM154      0.0000
     14  CGA       -2.8060   12.3880   14.9230 C.2   154  HEM154      0.0000
     15  O1A       -3.2170   12.0010   13.8040 O.co2 154  HEM154      0.0000
     16  O2A       -1.6350   12.7600   15.0870 O.co2 154  HEM154      0.0000
     17  NB        -2.0360    5.4910   14.9040 N.ar  154  HEM154      0.0000
     18  C1B       -3.4330    5.6870   15.0390 C.ar  154  HEM154      0.0000
     19  C2B       -4.1130    4.5160   14.5490 C.ar  154  HEM154      0.0000
     20  C3B       -3.1850    3.6380   14.1440 C.ar  154  HEM154      0.0000
     21  C4B       -1.8870    4.2440   14.3590 C.ar  154  HEM154      0.0000
     22  CMB       -5.6570    4.4130   14.5040 C.3   154  HEM154      0.0000
     23  CAB       -3.3430    2.2320   13.6310 C.2   154  HEM154      0.0000
     24  CBB       -4.2930    1.3860   13.9760 C.2   154  HEM154      0.0000
     25  NC         0.8240    5.5050   14.7590 N.2   154  HEM154      0.0000
     26  C1C        0.6040    4.2100   14.3210 C.2   154  HEM154      0.0000
     27  C2C        1.8440    3.5200   14.1760 C.2   154  HEM154      0.0000
     28  C3C        2.8020    4.4060   14.5510 C.2   154  HEM154      0.0000
     29  C4C        2.2060    5.6370   14.9160 C.2   154  HEM154      0.0000
     30  CMC        1.9920    2.0830   13.6980 C.3   154  HEM154      0.0000
     31  CAC        4.3280    4.2430   14.6940 C.2   154  HEM154      0.0000
     32  CBC        4.9670    3.1550   14.4140 C.2   154  HEM154      0.0000
     33  ND         0.9050    8.1260   15.8780 N.ar  154  HEM154      0.0000
     34  C1D        2.2550    7.9150   15.7800 C.ar  154  HEM154      0.0000
     35  C2D        2.9790    9.0540   16.2900 C.ar  154  HEM154      0.0000
     36  C3D        1.9830    9.9870   16.7670 C.ar  154  HEM154      0.0000
     37  C4D        0.7040    9.3970   16.4600 C.ar  154  HEM154      0.0000
     38  CMD        4.4560    9.2190   16.3720 C.3   154  HEM154      0.0000
     39  CAD        2.2080   11.2900   17.5030 C.3   154  HEM154      0.0000
     40  CBD        2.4190   10.8490   18.9940 C.3   154  HEM154      0.0000
     41  CGD        2.8410   12.0060   19.8340 C.2   154  HEM154      0.0000
     42  O1D        4.0970   12.3220   19.8620 O.co2 154  HEM154      0.0000
     43  O2D        1.8920   12.5860   20.4520 O.co2 154  HEM154      0.0000
@<TRIPOS>BOND
     1    23    24    2
     2    23    20    1
     3    30    27    1
     4    15    14   ar
     5     4    26    2
     6     4    21    1
     7    20    21   ar
     8    20    19   ar
     9    27    26    1
    10    27    28    2
    11    26    25    1
    12    21    17   ar
    13    32    31    2
    14    22    19    1
    15    19    18   ar
    16    28    31    1
    17    28    29    1
    18    25    29    2
    19    25     1    1
    20    17    18   ar
    21    17     1    1
    22    29     5    1
    23    14    16   ar
    24    14    13    1
    25    18     3    1
    26     5    34    2
    27     1    33    1
    28     1     6    1
    29     3    10    2
    30    34    33   ar
    31    34    35   ar
    32    33    37   ar
    33    10     6    1
    34    10     9    1
    35     6     7    2
    36    13    12    1
    37    35    38    1
    38    35    36   ar
    39    37     2    2
    40    37    36   ar
    41     9    11    1
    42     9     8    2
    43     7     2    1
    44     7     8    1
    45    36    39    1
    46     8    12    1
    47    39    40    1
    48    40    41    1
    49    41    42   ar
    50    41    43   ar
