@<TRIPOS>MOLECULE
3ecz_HEM_A_1.pdb
 43 50 0 0 0
SMALL
GASTEIGER

@<TRIPOS>ATOM
      1 FE         -0.5430    6.6780   15.3620 Fe    154  HEM154      0.0000
      2  CHA       -0.4550    9.7720   16.8520 C.2   154  HEM154      0.0000
      3  CHB       -3.9530    6.6410   15.6000 C.2   154  HEM154      0.0000
      4  CHC       -0.6370    3.5300   14.0590 C.2   154  HEM154      0.0000
      5  CHD        2.8490    6.5990   15.3040 C.2   154  HEM154      0.0000
      6  NA        -1.9300    7.9630   16.1110 N.2   154  HEM154      0.0000
      7  C1A       -1.7000    9.2280   16.6340 C.2   154  HEM154      0.0000
      8  C2A       -2.9940    9.8510   16.8980 C.2   154  HEM154      0.0000
      9  C3A       -3.9550    8.9470   16.5580 C.2   154  HEM154      0.0000
     10  C4A       -3.2990    7.7470   16.0660 C.2   154  HEM154      0.0000
     11  CMA       -5.4920    9.1110   16.6770 C.3   154  HEM154      0.0000
     12  CAA       -3.1730   11.2890   17.4060 C.3   154  HEM154      0.0000
     13  CBA       -3.6780   12.1770   16.2210 C.3   154  HEM154      0.0000
     14  CGA       -2.7470   12.2120   15.0280 C.2   154  HEM154      0.0000
     15  O1A       -3.1800   11.8150   13.9070 O.co2 154  HEM154      0.0000
     16  O2A       -1.5700   12.6310   15.1930 O.co2 154  HEM154      0.0000
     17  NB        -2.0060    5.3260   14.9030 N.ar  154  HEM154      0.0000
     18  C1B       -3.3710    5.5120   15.0240 C.ar  154  HEM154      0.0000
     19  C2B       -4.0790    4.3830   14.5210 C.ar  154  HEM154      0.0000
     20  C3B       -3.1520    3.4930   14.1330 C.ar  154  HEM154      0.0000
     21  C4B       -1.8500    4.1010   14.3300 C.ar  154  HEM154      0.0000
     22  CMB       -5.5900    4.2930   14.5110 C.3   154  HEM154      0.0000
     23  CAB       -3.3510    2.1090   13.5750 C.2   154  HEM154      0.0000
     24  CBB       -4.3170    1.2770   13.9600 C.2   154  HEM154      0.0000
     25  NC         0.8420    5.3450   14.7500 N.2   154  HEM154      0.0000
     26  C1C        0.6300    4.0530   14.2990 C.2   154  HEM154      0.0000
     27  C2C        1.8590    3.3530   14.1350 C.2   154  HEM154      0.0000
     28  C3C        2.8310    4.2160   14.5170 C.2   154  HEM154      0.0000
     29  C4C        2.2230    5.4660   14.8800 C.2   154  HEM154      0.0000
     30  CMC        2.0020    1.9350   13.6470 C.3   154  HEM154      0.0000
     31  CAC        4.3550    4.0260   14.6500 C.2   154  HEM154      0.0000
     32  CBC        5.0160    2.9260   14.3270 C.2   154  HEM154      0.0000
     33  ND         0.9180    7.9540   15.9460 N.ar  154  HEM154      0.0000
     34  C1D        2.2780    7.7390   15.7970 C.ar  154  HEM154      0.0000
     35  C2D        3.0250    8.8680   16.3310 C.ar  154  HEM154      0.0000
     36  C3D        2.0300    9.7610   16.8390 C.ar  154  HEM154      0.0000
     37  C4D        0.7490    9.1930   16.5500 C.ar  154  HEM154      0.0000
     38  CMD        4.5280    9.0050   16.3980 C.3   154  HEM154      0.0000
     39  CAD        2.2960   11.0400   17.6110 C.3   154  HEM154      0.0000
     40  CBD        2.5090   10.6890   19.1160 C.3   154  HEM154      0.0000
     41  CGD        2.7900   11.9280   19.9370 C.2   154  HEM154      0.0000
     42  O1D        3.9910   12.3030   19.9820 O.co2 154  HEM154      0.0000
     43  O2D        1.8450   12.5010   20.5250 O.co2 154  HEM154      0.0000
@<TRIPOS>BOND
     1    23    24    2
     2    23    20    1
     3    30    27    1
     4    15    14   ar
     5     4    26    2
     6     4    21    1
     7    20    21   ar
     8    20    19   ar
     9    27    26    1
    10    27    28    2
    11    26    25    1
    12    32    31    2
    13    21    17   ar
    14    22    19    1
    15    28    31    1
    16    28    29    1
    17    19    18   ar
    18    25    29    2
    19    25     1    1
    20    29     5    1
    21    17    18   ar
    22    17     1    1
    23    18     3    1
    24    14    16   ar
    25    14    13    1
    26     5    34    2
    27     1    33    1
    28     1     6    1
    29     3    10    2
    30    34    33   ar
    31    34    35   ar
    32    33    37   ar
    33    10     6    1
    34    10     9    1
    35     6     7    2
    36    13    12    1
    37    35    38    1
    38    35    36   ar
    39    37    36   ar
    40    37     2    2
    41     9    11    1
    42     9     8    2
    43     7     2    1
    44     7     8    1
    45    36    39    1
    46     8    12    1
    47    39    40    1
    48    40    41    1
    49    41    42   ar
    50    41    43   ar
