@<TRIPOS>MOLECULE
3ed0_EMO_A_1.pdb
 20 22 0 0 0
SMALL
GASTEIGER

@<TRIPOS>ATOM
      1  C1       -51.5740  -14.9150  -11.1270 C.ar  163  EMO163      0.2020
      2  O1       -51.3360  -13.6820  -10.6100 O.3   163  EMO163     -0.2864
      3  C2       -50.5300  -15.8120  -11.2790 C.ar  163  EMO163      0.0841
      4  C3       -50.7680  -17.0630  -11.8140 C.ar  163  EMO163      0.1990
      5  O3       -49.7460  -17.9390  -11.9680 O.3   163  EMO163     -0.2865
      6  C4       -52.0550  -17.4180  -12.1930 C.ar  163  EMO163      0.0455
      7  C5       -53.1090  -16.5220  -12.0440 C.ar  163  EMO163      0.0483
      8  C6       -54.4030  -16.8680  -12.4120 C.2   163  EMO163      0.1960
      9  O6       -54.6280  -17.9800  -12.8850 O.2   163  EMO163     -0.2866
     10  C7       -55.4450  -15.9620  -12.2490 C.ar  163  EMO163      0.0448
     11  C8       -56.7360  -16.3080  -12.6130 C.ar  163  EMO163     -0.0008
     12  C9       -57.7810  -15.4100  -12.4630 C.ar  163  EMO163     -0.0186
     13  C10      -59.1860  -15.8240  -12.8790 C.3   163  EMO163      0.0311
     14  C16      -57.5500  -14.1510  -11.9460 C.ar  163  EMO163      0.0379
     15  C17      -56.2590  -13.8080  -11.5730 C.ar  163  EMO163      0.1985
     16  O17      -56.0330  -12.5760  -11.0540 O.3   163  EMO163     -0.2865
     17  C18      -55.2030  -14.7090  -11.7240 C.ar  163  EMO163      0.0810
     18  C19      -53.9080  -14.3750  -11.3620 C.2   163  EMO163      0.2019
     19  O19      -53.6550  -13.2770  -10.8870 O.2   163  EMO163     -0.2864
     20  C20      -52.8670  -15.2710  -11.5140 C.ar  163  EMO163      0.0812
@<TRIPOS>BOND
     1     9     8    2
     2    13    12    1
     3    11    12   ar
     4    11    10   ar
     5    12    14   ar
     6     8    10    1
     7     8     7    1
     8    10    17   ar
     9     6     7   ar
    10     6     4   ar
    11     7    20   ar
    12     5     4    1
    13    14    15   ar
    14     4     3   ar
    15    17    15   ar
    16    17    18    1
    17    15    16    1
    18    20    18    1
    19    20     1   ar
    20    18    19    2
    21     3     1   ar
    22     1     2    1
