@<TRIPOS>MOLECULE
3ed1_GA3_A_1.pdb
 25 29 0 0 0
SMALL
GASTEIGER

@<TRIPOS>ATOM
      1  O71       32.9970   42.1700   14.6170 O.co2 401  GA3401     -0.2457
      2  C7        33.6370   42.7950   13.7480 C.2   401  GA3401      0.3645
      3  O72       34.5050   42.2440   13.0670 O.co2 401  GA3401     -0.2457
      4  C6        33.4080   44.2660   13.5100 C.3   401  GA3401      0.1082
      5  C5        31.9040   44.6310   13.5560 C.3   401  GA3401      0.0642
      6  C8        34.1020   45.2140   14.5130 C.3   401  GA3401      0.0204
      7  C15       34.3430   44.6990   15.9540 C.3   401  GA3401      0.0251
      8  C16       35.3320   45.7370   16.4170 C.2   401  GA3401     -0.0171
      9  C17       35.7360   45.8780   17.6690 C.2   401  GA3401     -0.0067
     10  C13       35.8890   46.5530   15.2850 C.3   401  GA3401      0.1417
     11  C14       35.5320   45.6380   14.1320 C.3   401  GA3401      0.0353
     12  O13       37.2890   46.6590   15.5170 O.3   401  GA3401     -0.2215
     13  C12       35.2090   47.9390   15.0780 C.3   401  GA3401      0.0345
     14  C11       33.9140   47.7590   14.2530 C.3   401  GA3401      0.0067
     15  C9        33.1750   46.4580   14.6110 C.3   401  GA3401      0.0418
     16  C10       31.9940   46.1480   13.6930 C.3   401  GA3401      0.1550
     17  O92       32.2180   46.5860   12.3410 O.3   401  GA3401     -0.4515
     18  C1        30.6560   46.7050   14.1170 C.2   401  GA3401      0.0108
     19  C2        29.5470   46.1230   13.6180 C.2   401  GA3401      0.0055
     20  C3        29.5700   44.8740   12.7380 C.3   401  GA3401      0.1838
     21  O31       28.9590   43.8300   13.5230 O.3   401  GA3401     -0.2177
     22  C4        31.0230   44.5110   12.3130 C.3   401  GA3401      0.1255
     23  C18       31.1400   43.1820   11.5630 C.3   401  GA3401      0.0142
     24  C19       31.5820   45.6430   11.4910 C.2   401  GA3401      0.3189
     25  O91       31.5510   45.8050   10.2840 O.2   401  GA3401     -0.2500
@<TRIPOS>BOND
     1    25    24    2
     2    24    22    1
     3    24    17    1
     4    23    22    1
     5    22    20    1
     6    22     5    1
     7    17    16    1
     8    20    21    1
     9    20    19    1
    10     3     2   ar
    11     4     5    1
    12     4     2    1
    13     4     6    1
    14     5    16    1
    15    19    18    2
    16    16    18    1
    17    16    15    1
    18     2     1   ar
    19    11     6    1
    20    11    10    1
    21    14    15    1
    22    14    13    1
    23     6    15    1
    24     6     7    1
    25    13    10    1
    26    10    12    1
    27    10     8    1
    28     7     8    1
    29     8     9    2
