@<TRIPOS>MOLECULE
3ed9_HEM_A_1.pdb
 43 50 0 0 0
SMALL
GASTEIGER

@<TRIPOS>ATOM
      1 FE          0.5740   -6.8320   15.3670 Fe    154  HEM154      0.0000
      2  CHA        0.4970   -9.9220   16.7680 C.2   154  HEM154      0.0000
      3  CHB        4.0510   -6.8410   15.5490 C.2   154  HEM154      0.0000
      4  CHC        0.6710   -3.6490   14.0720 C.2   154  HEM154      0.0000
      5  CHD       -2.8050   -6.7940   15.2690 C.2   154  HEM154      0.0000
      6  NA         1.9990   -8.0410   16.0110 N.2   154  HEM154      0.0000
      7  C1A        1.7870   -9.3560   16.4890 C.2   154  HEM154      0.0000
      8  C2A        3.0190  -10.0780   16.7750 C.2   154  HEM154      0.0000
      9  C3A        4.0370   -9.2540   16.4800 C.2   154  HEM154      0.0000
     10  C4A        3.3780   -8.0160   15.9940 C.2   154  HEM154      0.0000
     11  CMA        5.5940   -9.4420   16.5670 C.3   154  HEM154      0.0000
     12  CAA        3.1220  -11.4160   17.3160 C.3   154  HEM154      0.0000
     13  CBA        3.7600  -12.3650   16.1910 C.3   154  HEM154      0.0000
     14  CGA        2.7710  -12.3470   14.9650 C.2   154  HEM154      0.0000
     15  O1A        3.1510  -11.9770   13.8100 O.co2 154  HEM154      0.0000
     16  O2A        1.5980  -12.7280   15.1050 O.co2 154  HEM154      0.0000
     17  NB         2.0240   -5.4540   14.8770 N.ar  154  HEM154      0.0000
     18  C1B        3.4370   -5.6770   14.9940 C.ar  154  HEM154      0.0000
     19  C2B        4.1430   -4.4840   14.5460 C.ar  154  HEM154      0.0000
     20  C3B        3.2440   -3.6240   14.1500 C.ar  154  HEM154      0.0000
     21  C4B        1.8810   -4.2090   14.3520 C.ar  154  HEM154      0.0000
     22  CMB        5.6920   -4.4030   14.5430 C.3   154  HEM154      0.0000
     23  CAB        3.2980   -2.2310   13.5560 C.2   154  HEM154      0.0000
     24  CBB        4.2430   -1.4440   13.9430 C.2   154  HEM154      0.0000
     25  NC        -0.8280   -5.5140   14.6940 N.2   154  HEM154      0.0000
     26  C1C       -0.5970   -4.2200   14.3140 C.2   154  HEM154      0.0000
     27  C2C       -1.8300   -3.5110   14.1640 C.2   154  HEM154      0.0000
     28  C3C       -2.7770   -4.4220   14.5390 C.2   154  HEM154      0.0000
     29  C4C       -2.2210   -5.6580   14.8980 C.2   154  HEM154      0.0000
     30  CMC       -2.0110   -2.0570   13.7300 C.3   154  HEM154      0.0000
     31  CAC       -4.2800   -4.2870   14.7420 C.2   154  HEM154      0.0000
     32  CBC       -4.9560   -3.2480   14.4000 C.2   154  HEM154      0.0000
     33  ND        -0.9910   -8.1630   15.8720 N.ar  154  HEM154      0.0000
     34  C1D       -2.2920   -7.8990   15.7860 C.ar  154  HEM154      0.0000
     35  C2D       -3.0000   -9.0240   16.2690 C.ar  154  HEM154      0.0000
     36  C3D       -2.0380  -10.0070   16.7240 C.ar  154  HEM154      0.0000
     37  C4D       -0.7560   -9.4170   16.4600 C.ar  154  HEM154      0.0000
     38  CMD       -4.4580   -9.1530   16.3000 C.3   154  HEM154      0.0000
     39  CAD       -2.1980  -11.2590   17.4960 C.3   154  HEM154      0.0000
     40  CBD       -2.3020  -10.8360   19.0210 C.3   154  HEM154      0.0000
     41  CGD       -2.7040  -11.9630   19.8910 C.2   154  HEM154      0.0000
     42  O1D       -3.9580  -12.3500   19.8380 O.co2 154  HEM154      0.0000
     43  O2D       -1.7240  -12.5070   20.5640 O.co2 154  HEM154      0.0000
@<TRIPOS>BOND
     1    23    24    2
     2    23    20    1
     3    30    27    1
     4    15    14   ar
     5     4    26    2
     6     4    21    1
     7    20    21   ar
     8    20    19   ar
     9    27    26    1
    10    27    28    2
    11    26    25    1
    12    21    17   ar
    13    32    31    2
    14    28    31    1
    15    28    29    1
    16    22    19    1
    17    19    18   ar
    18    25    29    2
    19    25     1    1
    20    17    18   ar
    21    17     1    1
    22    29     5    1
    23    14    16   ar
    24    14    13    1
    25    18     3    1
    26     5    34    2
    27     1    33    1
    28     1     6    1
    29     3    10    2
    30    34    33   ar
    31    34    35   ar
    32    33    37   ar
    33    10     6    1
    34    10     9    1
    35     6     7    2
    36    13    12    1
    37    35    38    1
    38    35    36   ar
    39    37    36   ar
    40    37     2    2
    41     9    11    1
    42     9     8    2
    43     7     2    1
    44     7     8    1
    45    36    39    1
    46     8    12    1
    47    39    40    1
    48    40    41    1
    49    42    41   ar
    50    41    43   ar
