@<TRIPOS>MOLECULE
3eda_HEM_A_1.pdb
 43 50 0 0 0
SMALL
GASTEIGER

@<TRIPOS>ATOM
      1 FE         -0.5930    6.8520   15.3390 Fe    154  HEM154      0.0000
      2  CHA       -0.5260    9.9620   16.7460 C.2   154  HEM154      0.0000
      3  CHB       -4.0160    6.8290   15.5540 C.2   154  HEM154      0.0000
      4  CHC       -0.6900    3.6540   14.1130 C.2   154  HEM154      0.0000
      5  CHD        2.7910    6.7380   15.3130 C.2   154  HEM154      0.0000
      6  NA        -2.0120    8.1340   16.0170 N.2   154  HEM154      0.0000
      7  C1A       -1.7930    9.4060   16.5490 C.2   154  HEM154      0.0000
      8  C2A       -3.0740   10.0630   16.7940 C.2   154  HEM154      0.0000
      9  C3A       -4.0410    9.1840   16.4740 C.2   154  HEM154      0.0000
     10  C4A       -3.3900    7.9880   15.9920 C.2   154  HEM154      0.0000
     11  CMA       -5.5580    9.2930   16.5700 C.3   154  HEM154      0.0000
     12  CAA       -3.1740   11.4530   17.3090 C.3   154  HEM154      0.0000
     13  CBA       -3.7200   12.3460   16.1720 C.3   154  HEM154      0.0000
     14  CGA       -2.8180   12.3700   14.9420 C.2   154  HEM154      0.0000
     15  O1A       -3.2230   11.9940   13.8180 O.co2 154  HEM154      0.0000
     16  O2A       -1.6480   12.7450   15.1060 O.co2 154  HEM154      0.0000
     17  NB        -2.0630    5.5010   14.9180 N.ar  154  HEM154      0.0000
     18  C1B       -3.4390    5.6930   15.0340 C.ar  154  HEM154      0.0000
     19  C2B       -4.1160    4.5260   14.5420 C.ar  154  HEM154      0.0000
     20  C3B       -3.1880    3.6520   14.1840 C.ar  154  HEM154      0.0000
     21  C4B       -1.8880    4.2380   14.3940 C.ar  154  HEM154      0.0000
     22  CMB       -5.6410    4.3800   14.5240 C.3   154  HEM154      0.0000
     23  CAB       -3.3610    2.2870   13.6620 C.2   154  HEM154      0.0000
     24  CBB       -4.2810    1.4170   13.9740 C.2   154  HEM154      0.0000
     25  NC         0.8110    5.4780   14.7760 N.2   154  HEM154      0.0000
     26  C1C        0.6000    4.1780   14.3240 C.2   154  HEM154      0.0000
     27  C2C        1.8540    3.4860   14.1820 C.2   154  HEM154      0.0000
     28  C3C        2.7840    4.3780   14.5600 C.2   154  HEM154      0.0000
     29  C4C        2.1880    5.5990   14.9180 C.2   154  HEM154      0.0000
     30  CMC        1.9990    2.0600   13.6990 C.3   154  HEM154      0.0000
     31  CAC        4.2930    4.2330   14.6730 C.2   154  HEM154      0.0000
     32  CBC        5.0040    3.1650   14.4690 C.2   154  HEM154      0.0000
     33  ND         0.8990    8.1330   15.9010 N.ar  154  HEM154      0.0000
     34  C1D        2.2460    7.8850   15.7960 C.ar  154  HEM154      0.0000
     35  C2D        2.9770    9.0350   16.3080 C.ar  154  HEM154      0.0000
     36  C3D        1.9910    9.9750   16.8000 C.ar  154  HEM154      0.0000
     37  C4D        0.7140    9.4040   16.4750 C.ar  154  HEM154      0.0000
     38  CMD        4.4430    9.2030   16.3610 C.3   154  HEM154      0.0000
     39  CAD        2.2390   11.2840   17.5120 C.3   154  HEM154      0.0000
     40  CBD        2.4260   10.8260   18.9970 C.3   154  HEM154      0.0000
     41  CGD        2.8460   11.9690   19.8420 C.2   154  HEM154      0.0000
     42  O1D        4.0990   12.3160   19.8580 O.co2 154  HEM154      0.0000
     43  O2D        1.8900   12.5200   20.4650 O.co2 154  HEM154      0.0000
@<TRIPOS>BOND
     1    23    24    2
     2    23    20    1
     3    30    27    1
     4    15    14   ar
     5     4    26    2
     6     4    21    1
     7    27    26    1
     8    27    28    2
     9    20    21   ar
    10    20    19   ar
    11    26    25    1
    12    21    17   ar
    13    32    31    2
    14    22    19    1
    15    19    18   ar
    16    28    31    1
    17    28    29    1
    18    25    29    2
    19    25     1    1
    20    29     5    1
    21    17    18   ar
    22    17     1    1
    23    14    16   ar
    24    14    13    1
    25    18     3    1
    26     5    34    2
    27     1    33    1
    28     1     6    1
    29     3    10    2
    30    34    33   ar
    31    34    35   ar
    32    33    37   ar
    33    10     6    1
    34    10     9    1
    35     6     7    2
    36    13    12    1
    37    35    38    1
    38    35    36   ar
    39     9    11    1
    40     9     8    2
    41    37     2    2
    42    37    36   ar
    43     7     2    1
    44     7     8    1
    45     8    12    1
    46    36    39    1
    47    39    40    1
    48    40    41    1
    49    41    42   ar
    50    41    43   ar
