@<TRIPOS>MOLECULE
3edb_HEM_A_1.pdb
 43 50 0 0 0
SMALL
GASTEIGER

@<TRIPOS>ATOM
      1 FE         -0.5540    6.6800   15.3580 Fe    154  HEM154      0.0000
      2  CHA       -0.4290    9.7730   16.8530 C.2   154  HEM154      0.0000
      3  CHB       -3.9660    6.6570   15.5910 C.2   154  HEM154      0.0000
      4  CHC       -0.6560    3.5140   14.0700 C.2   154  HEM154      0.0000
      5  CHD        2.8410    6.5920   15.3150 C.2   154  HEM154      0.0000
      6  NA        -1.9370    7.9640   16.1060 N.2   154  HEM154      0.0000
      7  C1A       -1.6920    9.2490   16.6320 C.2   154  HEM154      0.0000
      8  C2A       -3.0050    9.8630   16.9160 C.2   154  HEM154      0.0000
      9  C3A       -3.9590    8.9590   16.5660 C.2   154  HEM154      0.0000
     10  C4A       -3.3110    7.7650   16.0620 C.2   154  HEM154      0.0000
     11  CMA       -5.4680    9.1190   16.6800 C.3   154  HEM154      0.0000
     12  CAA       -3.1810   11.2910   17.4190 C.3   154  HEM154      0.0000
     13  CBA       -3.6770   12.1940   16.2320 C.3   154  HEM154      0.0000
     14  CGA       -2.7430   12.2280   15.0410 C.2   154  HEM154      0.0000
     15  O1A       -3.1660   11.8520   13.9090 O.co2 154  HEM154      0.0000
     16  O2A       -1.5610   12.6310   15.1850 O.co2 154  HEM154      0.0000
     17  NB        -2.0230    5.3370   14.9110 N.ar  154  HEM154      0.0000
     18  C1B       -3.3880    5.5120   15.0290 C.ar  154  HEM154      0.0000
     19  C2B       -4.0970    4.3900   14.5300 C.ar  154  HEM154      0.0000
     20  C3B       -3.1660    3.4960   14.1440 C.ar  154  HEM154      0.0000
     21  C4B       -1.8620    4.1010   14.3390 C.ar  154  HEM154      0.0000
     22  CMB       -5.6160    4.3000   14.5120 C.3   154  HEM154      0.0000
     23  CAB       -3.3400    2.1150   13.5790 C.2   154  HEM154      0.0000
     24  CBB       -4.3170    1.2850   13.9460 C.2   154  HEM154      0.0000
     25  NC         0.8330    5.3320   14.7550 N.2   154  HEM154      0.0000
     26  C1C        0.6220    4.0390   14.3060 C.2   154  HEM154      0.0000
     27  C2C        1.8430    3.3380   14.1420 C.2   154  HEM154      0.0000
     28  C3C        2.8130    4.2140   14.5210 C.2   154  HEM154      0.0000
     29  C4C        2.2140    5.4590   14.8900 C.2   154  HEM154      0.0000
     30  CMC        2.0000    1.9100   13.6390 C.3   154  HEM154      0.0000
     31  CAC        4.3540    4.0380   14.6470 C.2   154  HEM154      0.0000
     32  CBC        5.0030    2.9380   14.3360 C.2   154  HEM154      0.0000
     33  ND         0.9190    7.9610   15.9500 N.ar  154  HEM154      0.0000
     34  C1D        2.2760    7.7330   15.8110 C.ar  154  HEM154      0.0000
     35  C2D        3.0260    8.8670   16.3400 C.ar  154  HEM154      0.0000
     36  C3D        2.0470    9.7800   16.8500 C.ar  154  HEM154      0.0000
     37  C4D        0.7760    9.1990   16.5560 C.ar  154  HEM154      0.0000
     38  CMD        4.5270    9.0260   16.4010 C.3   154  HEM154      0.0000
     39  CAD        2.2920   11.0500   17.6150 C.3   154  HEM154      0.0000
     40  CBD        2.4750   10.6880   19.1310 C.3   154  HEM154      0.0000
     41  CGD        2.7760   11.9180   19.9540 C.2   154  HEM154      0.0000
     42  O1D        3.9830   12.2860   19.9910 O.co2 154  HEM154      0.0000
     43  O2D        1.8350   12.5000   20.5130 O.co2 154  HEM154      0.0000
@<TRIPOS>BOND
     1    23    24    2
     2    23    20    1
     3    30    27    1
     4    15    14   ar
     5     4    26    2
     6     4    21    1
     7    27    26    1
     8    27    28    2
     9    20    21   ar
    10    20    19   ar
    11    26    25    1
    12    32    31    2
    13    21    17   ar
    14    22    19    1
    15    28    31    1
    16    28    29    1
    17    19    18   ar
    18    25    29    2
    19    25     1    1
    20    29     5    1
    21    17    18   ar
    22    17     1    1
    23    18     3    1
    24    14    16   ar
    25    14    13    1
    26     5    34    2
    27     1    33    1
    28     1     6    1
    29     3    10    2
    30    34    33   ar
    31    34    35   ar
    32    33    37   ar
    33    10     6    1
    34    10     9    1
    35     6     7    2
    36    13    12    1
    37    35    38    1
    38    35    36   ar
    39    37    36   ar
    40    37     2    2
    41     9    11    1
    42     9     8    2
    43     7     2    1
    44     7     8    1
    45    36    39    1
    46     8    12    1
    47    39    40    1
    48    40    41    1
    49    41    42   ar
    50    41    43   ar
