@<TRIPOS>MOLECULE
3edl_ANP_D_1.pdb
 31 33 0 0 0
SMALL
GASTEIGER

@<TRIPOS>ATOM
      1  PG       160.4560  404.5400  117.1410 P.3   500  ANP500      0.4884
      2  O1G      159.1650  404.2210  117.8390 O.3   500  ANP500     -0.1240
      3  O2G      161.5370  405.1170  118.0280 O.3   500  ANP500     -0.1240
      4  O3G      160.2100  405.5170  115.8830 O.2   500  ANP500     -0.2331
      5  PB       162.2880  402.9840  115.4960 P.3   500  ANP500      0.4669
      6  O1B      163.5450  403.3870  116.1400 O.3   500  ANP500     -0.1253
      7  O2B      162.1100  402.0810  114.3650 O.2   500  ANP500     -0.2351
      8  N3B      161.0190  403.1550  116.4800 N.3   500  ANP500     -0.0163
      9  PA       163.9570  401.0610  116.8900 P.3   500  ANP500      0.2220
     10  O1A      163.9740  400.9390  118.3680 O.3   500  ANP500     -0.4370
     11  O2A      164.9660  400.4170  116.0300 O.2   500  ANP500     -0.5170
     12  O3A      162.5940  401.5370  116.2050 O.3   500  ANP500     -0.2360
     13  O5'      163.5040  399.5130  117.0750 O.3   500  ANP500     -0.3111
     14  C5'      162.2870  398.8610  116.6820 C.3   500  ANP500      0.1813
     15  C4'      162.3050  397.5490  117.5510 C.3   500  ANP500      0.1821
     16  O4'      162.5410  396.3510  116.7100 O.3   500  ANP500     -0.3135
     17  C3'      163.4150  397.3660  118.6090 C.3   500  ANP500      0.2184
     18  O3'      162.9400  396.5790  119.6900 O.3   500  ANP500     -0.2174
     19  C2'      164.5610  396.7320  117.8120 C.3   500  ANP500      0.2570
     20  O2'      165.4710  396.0120  118.6790 O.3   500  ANP500     -0.2130
     21  C1'      163.8460  395.8250  116.8300 C.3   500  ANP500      0.3186
     22  N9       164.5080  395.7880  115.4850 N.pl3 500  ANP500     -0.1439
     23  C8       164.5310  396.7600  114.5380 C.3   500  ANP500      0.3377
     24  N7       165.1980  396.4090  113.4530 N.2   500  ANP500     -0.2095
     25  C5       165.6430  395.1510  113.6650 C.2   500  ANP500      0.2526
     26  C6       166.4080  394.2790  112.8340 C.2   500  ANP500      0.4393
     27  N6       166.8450  394.5100  111.6680 N.pl3 500  ANP500      0.2180
     28  N1       166.6550  393.0550  113.4380 N.2   500  ANP500      0.0021
     29  C2       166.2110  392.7090  114.7180 C.3   500  ANP500      0.5254
     30  N3       165.5020  393.5200  115.4810 N.2   500  ANP500     -0.0055
     31  C4       165.2350  394.7370  114.9180 C.2   500  ANP500      0.3518
@<TRIPOS>BOND
     1    27    26    1
     2    26    28    2
     3    26    25    1
     4    28    29    1
     5    24    25    2
     6    24    23    1
     7    25    31    1
     8     7     5    2
     9    23    22    1
    10    29    30    1
    11    31    30    2
    12    31    22    1
    13    22    21    1
    14     5     6    1
    15     5    12    1
    16     5     8    1
    17     4     1    2
    18    11     9    2
    19    12     9    1
    20     8     1    1
    21    14    13    1
    22    14    15    1
    23    16    21    1
    24    16    15    1
    25    21    19    1
    26     9    13    1
    27     9    10    1
    28     1     2    1
    29     1     3    1
    30    15    17    1
    31    19    17    1
    32    19    20    1
    33    17    18    1
