@<TRIPOS>MOLECULE
3edl_GDP_B_1.pdb
 28 30 0 0 0
SMALL
GASTEIGER

@<TRIPOS>ATOM
      1  PB       201.7940  377.2180  118.4480 P.3   600  GDP600      0.5373
      2  O1B      201.8870  378.2280  117.3770 O.2   600  GDP600     -0.2221
      3  O2B      202.8930  376.3650  118.5880 O.3   600  GDP600     -0.1143
      4  O3B      201.3620  377.9750  119.8310 O.3   600  GDP600     -0.1143
      5  O3A      200.6060  376.2650  118.0470 O.3   600  GDP600     -0.2261
      6  PA       200.5870  374.6120  117.8040 P.3   600  GDP600      0.2231
      7  O1A      201.4180  374.2870  116.6110 O.2   600  GDP600     -0.5169
      8  O2A      201.0490  373.9860  119.1110 O.3   600  GDP600     -0.4370
      9  O5'      199.0910  374.3820  117.4460 O.3   600  GDP600     -0.3111
     10  C5'      198.4570  373.0830  117.6460 C.3   600  GDP600      0.1813
     11  C4'      197.8830  372.4900  116.4510 C.3   600  GDP600      0.1799
     12  O4'      198.9790  372.2080  115.4930 O.3   600  GDP600     -0.3326
     13  C3'      197.2650  371.0580  116.6410 C.3   600  GDP600      0.2158
     14  O3'      196.0670  371.0190  115.7840 O.3   600  GDP600     -0.2175
     15  C2'      198.2680  369.9990  116.1220 C.3   600  GDP600      0.2310
     16  O2'      197.7640  368.7880  115.5310 O.3   600  GDP600     -0.2158
     17  C1'      199.0790  370.7750  115.0870 C.3   600  GDP600      0.2293
     18  N9       200.4980  370.4230  115.0400 N.pl3 600  GDP600     -0.2354
     19  C8       201.3910  370.8250  116.1800 C.3   600  GDP600      0.2246
     20  N7       202.5390  370.2670  115.5900 N.2   600  GDP600     -0.2322
     21  C5       202.4670  369.6580  114.4100 C.2   600  GDP600      0.2182
     22  C6       203.1780  368.9640  113.4090 C.1   600  GDP600      0.2372
     23  O6       204.4960  368.8050  113.6220 O.2   600  GDP600     -0.2069
     24  N1       202.6340  368.4910  112.2660 N.2   600  GDP600     -0.2485
     25  C2       201.1770  368.6920  112.0450 C.1   600  GDP600      0.2531
     26  N2       200.8640  368.1400  110.8940 N.pl3 600  GDP600     -0.0226
     27  N3       200.4750  369.2920  112.9160 N.2   600  GDP600     -0.3074
     28  C4       201.0700  369.7750  114.0230 C.2   600  GDP600      0.2300
@<TRIPOS>BOND
     1    26    25    1
     2    25    24    2
     3    25    27    2
     4    24    22    2
     5    27    28    2
     6    22    23    2
     7    22    21    1
     8    28    21    1
     9    28    18    1
    10    21    20    2
    11    18    17    1
    12    18    19    1
    13    17    12    1
    14    17    15    1
    15    12    11    1
    16    16    15    1
    17    20    19    1
    18    14    13    1
    19    15    13    1
    20    11    13    1
    21    11    10    1
    22     7     6    2
    23     2     1    2
    24     9    10    1
    25     9     6    1
    26     6     5    1
    27     6     8    1
    28     5     1    1
    29     1     3    1
    30     1     4    1
