@<TRIPOS>MOLECULE
3edl_GTP_B_1.pdb
 32 34 0 0 0
SMALL
GASTEIGER

@<TRIPOS>ATOM
      1  PG       202.8960  382.0660   79.1920 P.3   500  GTP500      0.5373
      2  O1G      203.8090  381.0460   79.8420 O.3   500  GTP500     -0.1143
      3  O2G      203.1890  383.4970   79.6560 O.3   500  GTP500     -0.1143
      4  O3G      201.4320  381.8530   79.5620 O.2   500  GTP500     -0.2221
      5  O3B      203.1510  381.8310   77.5690 O.3   500  GTP500     -0.2258
      6  PB       202.9490  380.4160   76.7460 P.3   500  GTP500      0.2277
      7  O1B      204.2370  379.8070   76.4490 O.3   500  GTP500     -0.4368
      8  O2B      202.0200  380.7530   75.5910 O.2   500  GTP500     -0.5168
      9  O3A      202.0750  379.5580   77.6620 O.3   500  GTP500     -0.2700
     10  PA       201.6800  378.0850   77.7310 P.3   500  GTP500      0.2189
     11  O1A      200.8170  377.9090   78.9330 O.3   500  GTP500     -0.4371
     12  O2A      202.8550  377.1970   77.6470 O.2   500  GTP500     -0.5170
     13  O5'      200.7020  377.8950   76.4220 O.3   500  GTP500     -0.3112
     14  C5'      200.2140  376.5730   76.2870 C.3   500  GTP500      0.1813
     15  C4'      199.3100  376.3200   75.1240 C.3   500  GTP500      0.1799
     16  O4'      200.0820  375.9600   73.9490 O.3   500  GTP500     -0.3326
     17  C3'      198.4530  375.1170   75.4400 C.3   500  GTP500      0.2158
     18  O3'      197.2510  375.1780   74.7040 O.3   500  GTP500     -0.2175
     19  C2'      199.3570  373.9670   75.0220 C.3   500  GTP500      0.2310
     20  O2'      198.5560  372.8330   74.6760 O.3   500  GTP500     -0.2158
     21  C1'      200.1250  374.5310   73.8170 C.3   500  GTP500      0.2293
     22  N9       201.5360  374.1240   73.7160 N.pl3 500  GTP500     -0.2354
     23  C8       202.5230  374.3170   74.6520 C.3   500  GTP500      0.2246
     24  N7       203.6860  373.8510   74.2890 N.2   500  GTP500     -0.2322
     25  C5       203.4630  373.3020   73.0480 C.2   500  GTP500      0.2182
     26  C6       204.3320  372.6490   72.1790 C.1   500  GTP500      0.2372
     27  O6       205.5300  372.4410   72.3590 O.2   500  GTP500     -0.2069
     28  N1       203.7140  372.2300   70.9790 N.2   500  GTP500     -0.2485
     29  C2       202.3850  372.4220   70.6740 C.1   500  GTP500      0.2531
     30  N2       201.9750  371.9610   69.5260 N.pl3 500  GTP500     -0.0226
     31  N3       201.5360  373.0360   71.4990 N.2   500  GTP500     -0.3074
     32  C4       202.1270  373.4600   72.6630 C.2   500  GTP500      0.2300
@<TRIPOS>BOND
     1    30    29    1
     2    29    28    2
     3    29    31    2
     4    28    26    2
     5    31    32    2
     6    26    27    2
     7    26    25    1
     8    32    25    1
     9    32    22    1
    10    25    24    2
    11    22    21    1
    12    22    23    1
    13    21    16    1
    14    21    19    1
    15    16    15    1
    16    24    23    1
    17    20    19    1
    18    18    17    1
    19    19    17    1
    20    15    17    1
    21    15    14    1
    22     8     6    2
    23    14    13    1
    24    13    10    1
    25     7     6    1
    26     6     5    1
    27     6     9    1
    28     5     1    1
    29    12    10    2
    30     9    10    1
    31    10    11    1
    32     1     4    2
    33     1     3    1
    34     1     2    1
