@<TRIPOS>MOLECULE
3edl_CN2_G_1.pdb
 30 32 0 0 0
SMALL
GASTEIGER

@<TRIPOS>ATOM
      1  O4       131.2800  431.0430  102.5310 O.2   701  CN2701     -0.2723
      2  C12      131.2470  430.4570  103.6130 C.2   701  CN2701      0.2535
      3  C13      130.4020  429.2760  103.9860 C.3   701  CN2701      0.1551
      4  S1       129.2160  428.8990  102.6970 S.3   701  CN2701     -0.0718
      5  N1       131.9500  430.7180  104.6820 N.am  701  CN2701     -0.2022
      6  C11      132.9320  431.7380  104.8770 C.3   701  CN2701      0.1143
      7  C14      134.2020  431.5090  104.0740 C.2   701  CN2701     -0.0172
      8  C15      134.3410  430.4320  103.1880 C.3   701  CN2701      0.0910
      9  C10      133.0770  431.4610  106.3710 C.3   701  CN2701      0.0305
     10  C9       134.4100  431.8770  106.9570 C.3   701  CN2701      0.0287
     11  C8       134.5340  433.3040  106.5510 C.ar  701  CN2701     -0.0160
     12  C7       134.2930  434.3300  107.4100 C.ar  701  CN2701      0.0360
     13  C5       134.4200  435.6340  106.9560 C.ar  701  CN2701      0.1751
     14  C3       134.7860  435.9340  105.6410 C.ar  701  CN2701      0.2060
     15  C1       135.0120  434.8880  104.7660 C.ar  701  CN2701      0.1750
     16  O1       135.3450  435.1400  103.4710 O.3   701  CN2701     -0.4683
     17  C2       134.2640  435.1470  102.5200 C.3   701  CN2701      0.2526
     18  O2       134.9190  437.2480  105.1910 O.3   701  CN2701     -0.4654
     19  C4       136.1590  437.9610  105.1760 C.3   701  CN2701      0.2528
     20  O3       134.1940  436.6260  107.8770 O.3   701  CN2701     -0.4683
     21  C6       135.3110  437.3490  108.4280 C.3   701  CN2701      0.2526
     22  C22      134.8970  433.5910  105.1780 C.ar  701  CN2701      0.0327
     23  C21      135.1480  432.4380  104.2820 C.2   701  CN2701     -0.0034
     24  C20      136.2250  432.2700  103.6830 C.2   701  CN2701     -0.0022
     25  C19      136.8820  431.5510  102.9170 C.2   701  CN2701      0.0103
     26  C17      136.7740  430.6070  102.1060 C.3   701  CN2701      0.1944
     27  C16      135.4520  429.9550  102.2380 C.2   701  CN2701      0.1858
     28  O5       135.2620  428.9820  101.5030 O.2   701  CN2701     -0.2928
     29  O6       137.7790  430.1830  101.1450 O.3   701  CN2701     -0.3417
     30  C18      138.4740  431.1760  100.4050 C.3   701  CN2701      0.1751
@<TRIPOS>BOND
     1    30    29    1
     2    29    26    1
     3    28    27    2
     4    26    27    1
     5    26    25    1
     6    27     8    1
     7    17    16    1
     8     1     2    2
     9     4     3    1
    10    25    24    2
    11     8     7    1
    12    16    15    1
    13     2     3    1
    14     2     5   am
    15    24    23    1
    16     7    23    2
    17     7     6    1
    18    23    22    1
    19     5     6    1
    20    15    22   ar
    21    15    14   ar
    22     6     9    1
    23    19    18    1
    24    22    11   ar
    25    18    14    1
    26    14    13   ar
    27     9    10    1
    28    11    10    1
    29    11    12   ar
    30    13    12   ar
    31    13    20    1
    32    20    21    1
