@<TRIPOS>MOLECULE
3edo_FMN_A_1.pdb
 31 33 0 0 0
SMALL
GASTEIGER

@<TRIPOS>ATOM
      1  N1        29.5710   45.2220   -3.8930 N.2   200  FMN200     -0.2890
      2  C2        29.6460   43.8920   -4.0660 C.1   200  FMN200      0.3669
      3  O2        28.6420   43.1690   -3.9740 O.2   200  FMN200     -0.1744
      4  N3        30.8500   43.3110   -4.3580 N.2   200  FMN200     -0.2300
      5  C4        32.0090   44.0320   -4.5420 C.1   200  FMN200      0.2513
      6  O4        33.0780   43.4000   -4.7020 O.2   200  FMN200     -0.2057
      7  C4A       31.9200   45.4160   -4.4010 C.2   200  FMN200      0.2700
      8  N5        33.0320   46.2250   -4.5950 N.2   200  FMN200     -0.3878
      9  C5A       32.9120   47.5800   -4.3270 C.2   200  FMN200      0.1320
     10  C6        34.0510   48.3830   -4.4490 C.2   200  FMN200      0.0250
     11  C7        33.9860   49.7520   -4.1920 C.2   200  FMN200     -0.0238
     12  C7M       35.2430   50.5640   -4.1580 C.3   200  FMN200      0.0308
     13  C8        32.7550   50.3300   -3.8580 C.2   200  FMN200     -0.0280
     14  C8M       32.6200   51.8000   -3.5170 C.3   200  FMN200      0.0304
     15  C9        31.6240   49.5370   -3.6960 C.2   200  FMN200     -0.0041
     16  C9A       31.6830   48.1500   -3.9490 C.3   200  FMN200      0.1497
     17  N10       30.5630   47.3280   -3.8250 N.pl3 200  FMN200     -0.2691
     18  C10       30.6890   45.9850   -4.0440 C.2   200  FMN200      0.2416
     19  C1'       29.2620   47.8890   -3.3440 C.3   200  FMN200      0.1294
     20  C2'       29.2770   48.0390   -1.8180 C.3   200  FMN200      0.2044
     21  O2'       29.7220   46.8690   -1.1520 O.3   200  FMN200     -0.2185
     22  C3'       27.8600   48.3730   -1.3360 C.3   200  FMN200      0.2164
     23  O3'       27.3660   49.4900   -2.0790 O.3   200  FMN200     -0.2175
     24  C4'       27.8420   48.6720    0.1690 C.3   200  FMN200      0.2147
     25  O4'       26.5580   48.4240    0.6940 O.3   200  FMN200     -0.2176
     26  C5'       28.2020   50.1060    0.4350 C.3   200  FMN200      0.1892
     27  O5'       28.3540   50.3110    1.8440 O.3   200  FMN200     -0.2674
     28  P         28.6320   51.7830    2.3500 P.3   200  FMN200      0.5327
     29  O1P       27.5020   52.6510    1.8360 O.2   200  FMN200     -0.2224
     30  O2P       29.9860   52.2640    1.8620 O.3   200  FMN200     -0.1145
     31  O3P       28.5620   51.6470    3.8680 O.3   200  FMN200     -0.1145
@<TRIPOS>BOND
     1     6     5    2
     2     8     7    2
     3     8     9    2
     4     5     7    1
     5     5     4    2
     6    10     9    1
     7    10    11    2
     8     7    18    1
     9     4     2    2
    10     9    16    1
    11    11    12    1
    12    11    13    1
    13     2     3    2
    14     2     1    2
    15    18     1    2
    16    18    17    1
    17    16    17    1
    18    16    15    1
    19    13    15    2
    20    13    14    1
    21    17    19    1
    22    19    20    1
    23    23    22    1
    24    20    22    1
    25    20    21    1
    26    22    24    1
    27    24    26    1
    28    24    25    1
    29    26    27    1
    30    29    28    2
    31    27    28    1
    32    30    28    1
    33    28    31    1
