@<TRIPOS>MOLECULE
3edq_III_E_1.pdb
 42 41 0 0 0
SMALL
GASTEIGER

@<TRIPOS>ATOM
      1  C         -9.5730   -4.9930    3.7180 C.2     1  ACE1        0.2423
      2  O         -8.9830   -4.3790    2.8180 O.2     1  ACE1       -0.2733
      3  CH3      -10.4010   -4.2330    4.7220 C.3     1  ACE1        0.0964
      4  N         -9.5130   -6.3010    3.8400 N.am    2  LEU2       -0.1978
      5  CA       -10.1410   -6.9300    4.9760 C.3     2  LEU2        0.1727
      6  C         -9.2860   -6.9370    6.2500 C.2     2  LEU2        0.2616
      7  O         -8.0700   -6.7010    6.2220 O.2     2  LEU2       -0.2715
      8  CB       -10.4370   -8.4110    4.6640 C.3     2  LEU2        0.0311
      9  CG       -11.1090   -8.6510    3.3130 C.3     2  LEU2        0.0022
     10  CD1      -10.9450  -10.0980    2.8790 C.3     2  LEU2        0.0001
     11  CD2      -12.5700   -8.2180    3.4060 C.3     2  LEU2        0.0001
     12  N         -9.9230   -7.2170    7.3930 N.am    3  ASP3       -0.1957
     13  CA        -9.1560   -7.2630    8.6410 C.3     3  ASP3        0.1840
     14  C         -8.6720   -8.6870    8.8650 C.2     3  ASP3        0.2622
     15  O         -9.4040   -9.6480    8.5440 O.2     3  ASP3       -0.2715
     16  CB       -10.0020   -6.7510    9.8200 C.3     3  ASP3        0.1450
     17  CG       -10.2750   -5.2630    9.6420 C.2     3  ASP3        0.3671
     18  OD1       -9.2780   -4.4970    9.5480 O.co2   3  ASP3       -0.2456
     19  OD2      -11.4660   -4.8950    9.5690 O.co2   3  ASP3       -0.2456
     20  N         -7.4720   -8.8830    9.3610 N.am    4  GLU4       -0.1963
     21  CA        -6.9660  -10.2230    9.6090 C.3     4  GLU4        0.1733
     22  C         -6.5080  -10.2790   11.0530 C.2     4  GLU4        0.2617
     23  O         -6.1170   -9.2520   11.6130 O.2     4  GLU4       -0.2715
     24  CB        -5.7880  -10.5060    8.6800 C.3     4  GLU4        0.0429
     25  CG        -6.1410  -10.4920    7.2160 C.3     4  GLU4        0.1163
     26  CD        -5.0700  -11.0290    6.2880 C.2     4  GLU4        0.3649
     27  OE1       -3.8790  -11.0970    6.6680 O.co2   4  GLU4       -0.2457
     28  OE2       -5.4570  -11.3750    5.1360 O.co2   4  GLU4       -0.2457
     29  N         -6.5330  -11.4510   11.6840 N.am    5  SER5       -0.1936
     30  CA        -5.8970  -11.5040   13.0120 C.3     5  SER5        0.2055
     31  C         -4.4250  -11.8850   13.0490 C.2     5  SER5        0.2643
     32  O         -3.9430  -12.6180   12.1610 O.2     5  SER5       -0.2714
     33  CB        -6.6320  -12.5280   13.8960 C.3     5  SER5        0.2130
     34  OG        -6.5400  -13.8300   13.3190 O.3     5  SER5       -0.2179
     35  N         -3.7710  -11.4440   14.1120 N.am    6  ASP6       -0.1971
     36  CA        -2.4060  -11.6930   14.4980 C.3     6  ASP6        0.1709
     37  C         -2.1570  -12.5170   15.7470 C.2     6  ASP6        0.2293
     38  O         -1.0860  -13.1280   15.9300 O.2     6  ASP6       -0.2864
     39  CB        -1.7320  -10.3300   14.8480 C.3     6  ASP6        0.1436
     40  CG        -1.0940   -9.6530   13.6600 C.2     6  ASP6        0.3671
     41  OD1       -0.9400  -10.3560   12.6270 O.co2   6  ASP6       -0.2456
     42  OD2       -0.7600   -8.4590   13.7210 O.co2   6  ASP6       -0.2456
@<TRIPOS>BOND
     1     2     1    2
     2    10     9    1
     3     9    11    1
     4     9     8    1
     5     1     4   am
     6     1     3    1
     7     4     5    1
     8     8     5    1
     9     5     6    1
    10    28    26   ar
    11     7     6    2
    12     6    12   am
    13    26    27   ar
    14    26    25    1
    15    25    24    1
    16    12    13    1
    17    15    14    2
    18    13    14    1
    19    13    16    1
    20    24    21    1
    21    14    20   am
    22    20    21    1
    23    18    17   ar
    24    19    17   ar
    25    21    22    1
    26    17    16    1
    27    22    23    2
    28    22    29   am
    29    29    30    1
    30    32    31    2
    31    41    40   ar
    32    30    31    1
    33    30    33    1
    34    31    35   am
    35    34    33    1
    36    40    42   ar
    37    40    39    1
    38    35    36    1
    39    36    39    1
    40    36    37    1
    41    37    38    2
