@<TRIPOS>MOLECULE
3edr_III_E_1.pdb
 42 41 0 0 0
SMALL
GASTEIGER

@<TRIPOS>ATOM
      1  C         58.8250  -32.6860   -0.9330 C.2   701  ACE701      0.2423
      2  O         58.2700  -32.5690    0.1440 O.2   701  ACE701     -0.2733
      3  CH3       58.3870  -33.7900   -1.8710 C.3   701  ACE701      0.0964
      4  N         59.8200  -31.8050   -1.3430 N.am  702  LEU702     -0.1978
      5  CA        59.7950  -30.3940   -0.9330 C.3   702  LEU702      0.1727
      6  C         58.4310  -29.7460   -1.1420 C.2   702  LEU702      0.2616
      7  O         57.9190  -29.6910   -2.2660 O.2   702  LEU702     -0.2715
      8  CB        60.8820  -29.7460   -1.7880 C.3   702  LEU702      0.0311
      9  CG        62.3210  -30.1050   -1.4160 C.3   702  LEU702      0.0022
     10  CD1       63.2870  -29.4640   -2.4040 C.3   702  LEU702      0.0001
     11  CD2       62.6070  -29.6430    0.0070 C.3   702  LEU702      0.0001
     12  N         57.8560  -29.2570   -0.0470 N.am  703  ASP703     -0.1957
     13  CA        56.5430  -28.6260   -0.0620 C.3   703  ASP703      0.1840
     14  C         56.4330  -27.4230   -1.0060 C.2   703  ASP703      0.2622
     15  O         57.3320  -26.5790   -1.0670 O.2   703  ASP703     -0.2715
     16  CB        56.1560  -28.2240    1.3680 C.3   703  ASP703      0.1450
     17  CG        56.1290  -29.4140    2.3240 C.2   703  ASP703      0.3671
     18  OD1       55.4420  -30.4130    2.0170 O.co2 703  ASP703     -0.2456
     19  OD2       56.7880  -29.3520    3.3840 O.co2 703  ASP703     -0.2456
     20  N         55.3210  -27.3660   -1.7400 N.am  704  GLU704     -0.1963
     21  CA        55.0370  -26.2920   -2.6940 C.3   704  GLU704      0.1733
     22  C         53.8340  -25.4900   -2.1990 C.2   704  GLU704      0.2617
     23  O         53.0870  -25.9630   -1.3490 O.2   704  GLU704     -0.2715
     24  CB        54.7220  -26.8870   -4.0690 C.3   704  GLU704      0.0429
     25  CG        55.7720  -27.8710   -4.5650 C.3   704  GLU704      0.1163
     26  CD        55.4140  -28.5000   -5.9020 C.2   704  GLU704      0.3649
     27  OE1       54.3700  -29.1830   -5.9900 O.co2 704  GLU704     -0.2457
     28  OE2       56.1820  -28.3140   -6.8700 O.co2 704  GLU704     -0.2457
     29  N         53.6380  -24.2850   -2.7270 N.am  705  SER705     -0.1936
     30  CA        52.5080  -23.4610   -2.2970 C.3   705  SER705      0.2055
     31  C         51.4050  -23.3320   -3.3580 C.2   705  SER705      0.2639
     32  O         51.6550  -23.4990   -4.5550 O.2   705  SER705     -0.2714
     33  CB        52.9920  -22.0670   -1.8650 C.3   705  SER705      0.2130
     34  OG        53.5120  -21.3200   -2.9530 O.3   705  SER705     -0.2179
     35  C         48.4020  -21.5030   -3.7190 C.3   706  ASJ706      0.2041
     36  N         50.1860  -23.0380   -2.9010 N.am  706  ASJ706     -0.2024
     37  O         48.4710  -20.8510   -4.9990 O.3   706  ASJ706     -0.2185
     38  CA        49.0200  -22.8940   -3.7770 C.3   706  ASJ706      0.1395
     39  CB        47.9270  -23.8920   -3.3830 C.3   706  ASJ706      0.1383
     40  CG        48.0520  -25.2110   -4.1050 C.2   706  ASJ706      0.3667
     41  OD1       48.4300  -25.1970   -5.2950 O.co2 706  ASJ706     -0.2456
     42  OD2       47.7690  -26.2570   -3.4820 O.co2 706  ASJ706     -0.2456
@<TRIPOS>BOND
     1    28    26   ar
     2    27    26   ar
     3    26    25    1
     4    41    40   ar
     5    37    35    1
     6    25    24    1
     7    32    31    2
     8    40    42   ar
     9    40    39    1
    10    24    21    1
    11    38    35    1
    12    38    39    1
    13    38    36    1
    14    31    36   am
    15    31    30    1
    16    34    33    1
    17    29    30    1
    18    29    22   am
    19    21    22    1
    20    21    20    1
    21    10     9    1
    22    30    33    1
    23     7     6    2
    24    22    23    2
    25     3     1    1
    26     8     9    1
    27     8     5    1
    28    20    14   am
    29     9    11    1
    30     4     1   am
    31     4     5    1
    32     6     5    1
    33     6    12   am
    34    15    14    2
    35    14    13    1
    36     1     2    2
    37    13    12    1
    38    13    16    1
    39    16    17    1
    40    18    17   ar
    41    17    19   ar
