@<TRIPOS>MOLECULE
3edz_INN_A_1.pdb
 29 28 0 0 0
SMALL
GASTEIGER

@<TRIPOS>ATOM
      1  C0         5.9780    9.4060   23.7770 C.3     2  INN2        0.0603
      2  C          6.6540   10.7650   23.8980 C.2     2  INN2        0.0873
      3  O          7.8100   10.9100   23.5080 O.2     2  INN2       -0.5395
      4  N          5.9650   11.6810   24.5670 N.am    2  INN2       -0.2030
      5  O4         6.6460   12.8840   24.8370 O.3     2  INN2       -0.4026
      6  C4         5.8140    7.0480   24.6200 C.2     2  INN2        0.2417
      7  O1         4.5980    6.9890   24.7520 O.2     2  INN2       -0.2733
      8  CA         6.5150    8.3940   24.8150 C.3     2  INN2        0.0845
      9  CB         6.4830    8.8870   26.2940 C.3     2  INN2        0.0095
     10  C1         7.1860    8.0090   27.3460 C.3     2  INN2        0.0005
     11  C2         6.9040    8.4830   28.7850 C.3     2  INN2        0.0000
     12  C3         8.6980    7.8290   27.0870 C.3     2  INN2        0.0000
     13  N1         6.5630    5.9970   24.2420 N.am    2  INN2       -0.1978
     14  C5         6.0230    4.7170   23.7920 C.3     2  INN2        0.1726
     15  C6         6.3480    4.5040   22.2770 C.3     2  INN2        0.0270
     16  C7         5.6870    5.5730   21.3880 C.3     2  INN2        0.0022
     17  C8         7.8790    4.5200   22.0180 C.3     2  INN2        0.0022
     18  C9         5.8480    3.1050   21.8510 C.3     2  INN2        0.0022
     19  C10        6.5650    3.5700   24.6680 C.2     2  INN2        0.2616
     20  O2         7.7840    3.4080   24.7600 O.2     2  INN2       -0.2715
     21  N2         5.6810    2.7440   25.2550 N.am    2  INN2       -0.1963
     22  C11        6.0540    1.4730   25.8700 C.3     2  INN2        0.1728
     23  C13        5.6980    0.2970   24.9340 C.2     2  INN2        0.2613
     24  O3         4.6060    0.2550   24.3720 O.2     2  INN2       -0.2715
     25  C12        5.2540    1.3170   27.1670 C.3     2  INN2        0.0334
     26  N4         6.4710   -1.9460   21.4910 N.3     2  INN2       -0.1294
     27  C15        5.7080   -1.5650   22.6610 C.3     2  INN2        0.1327
     28  C14        6.5090   -1.8430   23.9400 C.3     2  INN2        0.1356
     29  N3         6.6410   -0.6430   24.7680 N.am    2  INN2       -0.2024
@<TRIPOS>BOND
     1    16    15    1
     2    26    27    1
     3    18    15    1
     4    17    15    1
     5    15    14    1
     6    27    28    1
     7     3     2    2
     8     1     2    1
     9     1     8    1
    10    14    13    1
    11    14    19    1
    12     2     4   am
    13    28    29    1
    14    13     6   am
    15    24    23    2
    16     4     5    1
    17     6     7    2
    18     6     8    1
    19    19    20    2
    20    19    21   am
    21    29    23   am
    22     8     9    1
    23    23    22    1
    24    21    22    1
    25    22    25    1
    26     9    10    1
    27    12    10    1
    28    10    11    1
