@<TRIPOS>MOLECULE
3edz_550_B_1.pdb
 31 34 0 0 0
SMALL
GASTEIGER

@<TRIPOS>ATOM
      1  O1        51.7730   34.0070   39.2040 O.2     1  5501       -0.5396
      2  O2        51.2360   36.1380   40.2910 O.3     1  5501       -0.4026
      3  O3        48.5930   29.8930   39.9140 O.3     1  5501       -0.4444
      4  O4        47.3450   31.7800   39.4480 O.2     1  5501       -0.2501
      5  O5        50.1150   31.8890   45.6410 O.3     1  5501       -0.4710
      6  C1        49.5440   33.3280   38.7330 C.3     1  5501        0.0562
      7  C2        49.7410   31.8790   39.2000 C.3     1  5501        0.0995
      8  C3        49.9430   32.2220   37.7470 C.3     1  5501        0.0181
      9  C4        48.4180   31.1740   39.5460 C.2     1  5501        0.3167
     10  C5        50.9500   31.3760   40.0300 C.3     1  5501        0.0373
     11  C6        50.5720   34.2700   39.2440 C.2     1  5501        0.0870
     12  N1        50.1300   35.3620   39.8570 N.am    1  5501       -0.2030
     13  C7        47.4310   29.1240   40.2420 C.3     1  5501        0.2556
     14  C8        50.7310   31.5140   41.5310 C.ar    1  5501       -0.0214
     15  C9        51.5580   30.8400   42.4140 C.ar    1  5501       -0.0011
     16  C10       51.3120   30.9470   43.7950 C.ar    1  5501        0.0366
     17  C11       50.2810   31.7890   44.2710 C.ar    1  5501        0.1390
     18  C12       49.4690   32.4890   43.3530 C.ar    1  5501        0.0366
     19  C13       49.6810   32.3510   41.9960 C.ar    1  5501       -0.0011
     20  C14       51.0760   31.3770   46.5290 C.3     1  5501        0.2286
     21  C15       51.0210   29.8730   46.7390 C.2     1  5501        0.0116
     22  C16       52.2480   29.1810   46.8740 C.2     1  5501        0.0233
     23  C17       52.2490   27.8090   47.0980 C.2     1  5501        0.1085
     24  N2        51.1260   27.0790   47.1850 N.2     1  5501       -0.4099
     25  C18       49.8260   29.1320   46.8480 C.3     1  5501        0.0960
     26  C19       49.9320   27.7240   47.0860 C.2     1  5501        0.1161
     27  C20       48.7560   26.9850   47.2020 C.2     1  5501        0.0282
     28  C21       47.4870   27.5860   47.0920 C.2     1  5501        0.0020
     29  C22       47.3930   28.9740   46.8640 C.2     1  5501       -0.0038
     30  C23       48.5550   29.7620   46.7490 C.2     1  5501       -0.0152
     31  C24       53.5830   27.0920   47.2490 C.3     1  5501        0.0664
@<TRIPOS>BOND
     1     8     6    1
     2     8     7    1
     3     6     7    1
     4     6    11    1
     5     7     9    1
     6     7    10    1
     7     1    11    2
     8    11    12   am
     9     4     9    2
    10     9     3    1
    11    12     2    1
    12     3    13    1
    13    10    14    1
    14    14    19   ar
    15    14    15   ar
    16    19    18   ar
    17    15    16   ar
    18    18    17   ar
    19    16    17   ar
    20    17     5    1
    21     5    20    1
    22    20    21    1
    23    21    25    1
    24    21    22    2
    25    30    25    1
    26    30    29    2
    27    25    26    1
    28    29    28    1
    29    22    23    1
    30    26    24    2
    31    26    27    1
    32    28    27    2
    33    23    24    2
    34    23    31    1
