@<TRIPOS>MOLECULE
3ee2_NZO_A_1.pdb
 21 23 0 0 0
SMALL
GASTEIGER

@<TRIPOS>ATOM
      1  O2        16.0330   14.2250   40.0370 O.2   201  NZO201     -0.2234
      2  C13       17.2130   14.5730   40.0600 C.2   201  NZO201      0.4363
      3  O3        17.5510   15.9890   40.2520 O.3   201  NZO201     -0.4287
      4  C14       16.7870   17.0560   39.6730 C.3   201  NZO201      0.2574
      5  N3        18.1990   13.6800   39.9140 N.am  201  NZO201     -0.0516
      6  C12       18.5210   12.7430   40.8720 C.1   201  NZO201      0.2301
      7  N1        17.8240   12.5090   42.0050 N.2   201  NZO201     -0.3240
      8  C8        18.4980   11.5170   42.6420 C.ar  201  NZO201      0.1755
      9  C7        18.2820   10.8450   43.8500 C.ar  201  NZO201      0.0389
     10  N2        19.5960   11.9580   40.7320 N.2   201  NZO201     -0.3240
     11  C9        19.5930   11.1840   41.8410 C.ar  201  NZO201      0.1754
     12  C10       20.4630   10.1900   42.2430 C.ar  201  NZO201      0.0358
     13  C11       20.2460    9.5260   43.4380 C.ar  201  NZO201      0.0060
     14  C6        19.1630    9.8350   44.2460 C.ar  201  NZO201      0.0422
     15  C5        18.9810    9.0740   45.5410 C.2   201  NZO201      0.2016
     16  O1        18.4090    9.6020   46.4570 O.2   201  NZO201     -0.2860
     17  C4        19.4660    7.6870   45.7770 C.ar  201  NZO201      0.0684
     18  C3        19.6250    6.6270   44.9190 C.ar  201  NZO201      0.0102
     19  C2        20.1060    5.5240   45.5880 C.ar  201  NZO201      0.0076
     20  C1        20.2910    5.7100   46.9480 C.ar  201  NZO201      0.0355
     21  S         19.8880    7.3240   47.4340 S.2   201  NZO201     -0.0832
@<TRIPOS>BOND
     1     4     3    1
     2     5     2   am
     3     5     6    1
     4     1     2    2
     5     2     3    1
     6    10     6    2
     7    10    11    2
     8     6     7    2
     9    11    12   ar
    10    11     8   ar
    11     7     8    2
    12    12    13   ar
    13     8     9   ar
    14    13    14   ar
    15     9    14   ar
    16    14    15    1
    17    18    19   ar
    18    18    17   ar
    19    15    17    1
    20    15    16    2
    21    19    20   ar
    22    17    21   ar
    23    20    21   ar
