@<TRIPOS>MOLECULE
3ee2_GSH_A_1.pdb
 20 19 0 0 0
SMALL
GASTEIGER

@<TRIPOS>ATOM
      1  N1        25.2080    3.3970   40.5070 N.3   200  GSH200     -0.1208
      2  CA1       25.9740    4.6460   40.3210 C.3   200  GSH200      0.1948
      3  C1        26.5530    5.1270   41.6360 C.2   200  GSH200      0.3819
      4  O11       27.6110    5.7740   41.6960 O.co2 200  GSH200     -0.2441
      5  O12       25.9560    4.8750   42.6940 O.co2 200  GSH200     -0.2441
      6  CB1       25.0740    5.7390   39.7630 C.3   200  GSH200      0.0402
      7  CG1       25.9350    6.8570   39.1940 C.3   200  GSH200      0.0889
      8  CD1       25.0590    7.8980   38.5230 C.2   200  GSH200      0.2418
      9  OE1       24.2060    7.5070   37.4790 O.2   200  GSH200     -0.2733
     10  N2        25.1440    9.1770   38.9060 N.am  200  GSH200     -0.1968
     11  CA2       24.3680   10.2160   38.2240 C.3   200  GSH200      0.1843
     12  C2        25.1230   10.8660   37.0830 C.2   200  GSH200      0.2627
     13  O2        26.5160   10.9940   37.0990 O.2   200  GSH200     -0.2714
     14  CB2       23.8270   11.2540   39.2270 C.3   200  GSH200      0.0997
     15  SG2       23.2860   10.4270   40.7590 S.3   200  GSH200     -0.0797
     16  N3        24.4050   11.3060   36.0640 N.am  200  GSH200     -0.1917
     17  CA3       24.8860   12.4200   35.2530 C.3   200  GSH200      0.2285
     18  C3        25.2170   11.9360   33.8580 C.2   200  GSH200      0.3865
     19  O31       25.6840   12.7010   32.9510 O.co2 200  GSH200     -0.2437
     20  O32       25.0290   10.7230   33.6250 O.co2 200  GSH200     -0.2437
@<TRIPOS>BOND
     1    19    18   ar
     2    20    18   ar
     3    18    17    1
     4    17    16    1
     5    16    12   am
     6    12    13    2
     7    12    11    1
     8     9     8    2
     9    11    10    1
    10    11    14    1
    11     8    10   am
    12     8     7    1
    13     7     6    1
    14    14    15    1
    15     6     2    1
    16     2     1    1
    17     2     3    1
    18     3     4   ar
    19     3     5   ar
