@<TRIPOS>MOLECULE
3ee3_CDP_A_1.pdb
 25 26 0 0 0
SMALL
GASTEIGER

@<TRIPOS>ATOM
      1  O3B       -8.8680   14.9350   18.8640 O.3   160  CDP160     -0.1143
      2  PB        -9.4770   14.5900   17.5340 P.3   160  CDP160      0.5373
      3  O1B       -8.6980   15.2120   16.4000 O.2   160  CDP160     -0.2221
      4  O2B       -9.8800   13.1400   17.4600 O.3   160  CDP160     -0.1143
      5  O3A      -10.9080   15.3490   17.3080 O.3   160  CDP160     -0.2261
      6  PA       -11.7860   16.2530   18.3610 P.3   160  CDP160      0.2231
      7  O1A      -11.1380   16.1910   19.7400 O.3   160  CDP160     -0.4370
      8  O2A      -11.9710   17.5970   17.6820 O.2   160  CDP160     -0.5169
      9  O5'      -13.1420   15.4180   18.3790 O.3   160  CDP160     -0.3111
     10  C5'      -13.0750   14.0630   18.8110 C.3   160  CDP160      0.1813
     11  C4'      -13.7020   13.1680   17.7450 C.3   160  CDP160      0.1799
     12  O4'      -15.0520   13.5970   17.5840 O.3   160  CDP160     -0.3320
     13  C3'      -13.1060   13.3210   16.3420 C.3   160  CDP160      0.2158
     14  O3'      -12.0570   12.4000   16.0730 O.3   160  CDP160     -0.2175
     15  C2'      -14.2640   13.0450   15.4160 C.3   160  CDP160      0.2319
     16  O2'      -14.2810   11.6570   15.0640 O.3   160  CDP160     -0.2157
     17  C1'      -15.4970   13.4420   16.2350 C.3   160  CDP160      0.2400
     18  N1       -16.0670   14.6790   15.6710 N.am  160  CDP160     -0.1778
     19  C2       -17.2170   14.5560   14.8120 C.1   160  CDP160      0.2756
     20  O2       -17.7650   13.4510   14.5760 O.2   160  CDP160     -0.1925
     21  N3       -17.7660   15.6390   14.2370 N.2   160  CDP160     -0.3024
     22  C4       -17.2290   16.8570   14.4760 C.2   160  CDP160      0.2346
     23  N4       -17.8410   17.9160   13.8890 N.pl3 160  CDP160     -0.0921
     24  C5       -16.0940   17.0140   15.3040 C.2   160  CDP160      0.0687
     25  C6       -15.5120   15.8890   15.9100 C.2   160  CDP160      0.0836
@<TRIPOS>BOND
     1    23    22    1
     2    21    22    2
     3    21    19    2
     4    22    24    1
     5    20    19    2
     6    19    18   am
     7    16    15    1
     8    24    25    2
     9    15    17    1
    10    15    13    1
    11    18    25    1
    12    18    17    1
    13    14    13    1
    14    17    12    1
    15    13    11    1
    16     3     2    2
    17     5     2    1
    18     5     6    1
    19     4     2    1
    20     2     1    1
    21    12    11    1
    22     8     6    2
    23    11    10    1
    24     6     9    1
    25     6     7    1
    26     9    10    1
