@<TRIPOS>MOLECULE
3ee5_NAG_A_1.pdb
 14 14 0 0 0
SMALL
GASTEIGER

@<TRIPOS>ATOM
      1  C1        27.7000   54.1650  118.7740 C.3   400  NAG400      0.1665
      2  C2        26.3720   53.7280  119.3320 C.3   400  NAG400      0.1576
      3  C3        26.1810   52.2650  119.1070 C.3   400  NAG400      0.2069
      4  C4        26.3240   51.9240  117.6200 C.3   400  NAG400      0.2134
      5  C5        27.7010   52.4390  117.0700 C.3   400  NAG400      0.1809
      6  C6        27.8740   52.2440  115.5640 C.3   400  NAG400      0.2141
      7  C7        25.7180   55.0770  121.2840 C.2   400  NAG400      0.2420
      8  C8        25.7900   55.1570  122.7980 C.3   400  NAG400      0.0964
      9  N2        26.3360   53.9950  120.7870 N.am  400  NAG400     -0.2019
     10  O3        24.8790   51.9400  119.6410 O.3   400  NAG400     -0.2184
     11  O4        26.2830   50.5270  117.4320 O.3   400  NAG400     -0.2176
     12  O5        27.8070   53.8690  117.3760 O.3   400  NAG400     -0.3489
     13  O6        26.8990   52.9830  114.8070 O.3   400  NAG400     -0.2176
     14  O7        25.1470   55.9270  120.6020 O.2   400  NAG400     -0.2733
@<TRIPOS>BOND
     1    13     6    1
     2     6     5    1
     3     5    12    1
     4     5     4    1
     5    12     1    1
     6    11     4    1
     7     4     3    1
     8     1     2    1
     9     3     2    1
    10     3    10    1
    11     2     9    1
    12    14     7    2
    13     9     7   am
    14     7     8    1
