@<TRIPOS>MOLECULE
3ee5_UDH_A_1.pdb
 32 33 0 0 0
SMALL
GASTEIGER

@<TRIPOS>ATOM
      1  N1        15.7460   46.3230  112.9690 N.am  399  UDH399     -0.1766
      2  C2        14.6070   45.8000  112.3000 C.1   399  UDH399      0.2845
      3  N3        13.6080   46.7340  112.0110 N.2   399  UDH399     -0.2452
      4  C4        13.6140   48.0980  112.3030 C.1   399  UDH399      0.2182
      5  C5        14.8220   48.5800  112.9790 C.2   399  UDH399      0.1242
      6  C6        15.8140   47.7260  113.2830 C.2   399  UDH399      0.0929
      7  O2        14.5690   44.5910  112.0360 O.2   399  UDH399     -0.1918
      8  O4        12.6550   48.7790  111.9930 O.2   399  UDH399     -0.2085
      9  C1B       16.8210   45.3240  113.3240 C.3   399  UDH399      0.2401
     10  C2B       17.6390   44.6800  112.2720 C.3   399  UDH399      0.2319
     11  O2'       18.0390   43.3220  112.6010 O.3   399  UDH399     -0.2157
     12  C3B       18.7460   45.6690  112.2060 C.3   399  UDH399      0.2158
     13  C4B       19.0740   46.0050  113.7080 C.3   399  UDH399      0.1799
     14  O4'       17.7040   46.0710  114.1650 O.3   399  UDH399     -0.3320
     15  O3'       19.8450   45.2220  111.4180 O.3   399  UDH399     -0.2175
     16  C5B       19.7910   47.3530  113.8170 C.3   399  UDH399      0.1813
     17  O5'       19.3740   48.0500  112.6820 O.3   399  UDH399     -0.3112
     18  PA        19.6200   49.3770  111.9390 P.3   399  UDH399      0.2189
     19  O1A       20.0220   48.8280  110.6280 O.2   399  UDH399     -0.5170
     20  O2A       18.4980   50.3410  111.8540 O.3   399  UDH399     -0.4371
     21  O3A       20.8880   50.1420  112.6600 O.3   399  UDH399     -0.2703
     22  PB        22.0540   50.8080  111.8290 P.3   399  UDH399      0.2188
     23  O1B       22.9150   51.4220  112.9880 O.3   399  UDH399     -0.4371
     24  O2B       21.4270   51.9170  111.0350 O.3   399  UDH399     -0.3139
     25  O3B       22.5460   49.8650  110.7870 O.2   399  UDH399     -0.5170
     26  C1'       20.5270   52.9190  111.5690 C.3   399  UDH399      0.1491
     27  C2'       19.8980   53.5650  110.3080 C.3   399  UDH399      0.0325
     28  C3'       20.9400   54.6100  109.8630 C.3   399  UDH399      0.0026
     29  C4'       20.5780   54.8920  108.3920 C.3   399  UDH399      0.0016
     30  C5'       21.8380   55.5760  107.8200 C.3   399  UDH399      0.0205
     31  C6'       21.4760   55.8240  106.3430 C.3   399  UDH399      0.1093
     32  N6'       22.2110   56.9750  106.0090 N.3   399  UDH399     -0.1314
@<TRIPOS>BOND
     1    32    31    1
     2    31    30    1
     3    30    29    1
     4    29    28    1
     5    28    27    1
     6    27    26    1
     7    19    18    2
     8    25    22    2
     9    24    26    1
    10    24    22    1
    11    15    12    1
    12    22    21    1
    13    22    23    1
    14    20    18    1
    15    18    21    1
    16    18    17    1
    17     8     4    2
    18     3     2    2
    19     3     4    2
    20     7     2    2
    21    12    10    1
    22    12    13    1
    23    10    11    1
    24    10     9    1
    25     2     1   am
    26     4     5    1
    27    17    16    1
    28     1     6    1
    29     1     9    1
    30     5     6    2
    31     9    14    1
    32    13    16    1
    33    13    14    1
