@<TRIPOS>MOLECULE
3ee5_2NA_A_1.pdb
 12 13 0 0 0
SMALL
GASTEIGER

@<TRIPOS>ATOM
      1  C1        34.4800   56.7100  124.8360 C.ar  100  2NA100     -0.0002
      2  C2        34.3340   57.3790  123.5800 C.ar  100  2NA100     -0.0017
      3  C3        33.7360   56.6250  122.3590 C.ar  100  2NA100      0.0106
      4  C4        33.3460   55.2620  122.4950 C.ar  100  2NA100     -0.0017
      5  C5        33.4740   54.5850  123.7000 C.ar  100  2NA100     -0.0002
      6  C6        34.0550   55.3070  124.9470 C.ar  100  2NA100     -0.0000
      7  C7        34.1800   54.6350  126.1970 C.ar  100  2NA100     -0.0000
      8  C8        34.7590   55.4230  127.3860 C.ar  100  2NA100     -0.0000
      9  C9        35.1590   56.7760  127.2190 C.ar  100  2NA100     -0.0000
     10  C30       35.0310   57.4090  125.9910 C.ar  100  2NA100     -0.0000
     11  C31       33.1300   57.4740  121.2520 C.3   100  2NA100      0.2086
     12  O31       31.7040   57.3740  121.2300 O.3   100  2NA100     -0.2152
@<TRIPOS>BOND
     1    12    11    1
     2    11     3    1
     3     3     4   ar
     4     3     2   ar
     5     4     5   ar
     6     2     1   ar
     7     5     6   ar
     8     1     6   ar
     9     1    10   ar
    10     6     7   ar
    11    10     9   ar
    12     7     8   ar
    13     9     8   ar
