@<TRIPOS>MOLECULE
3eeb_IHP_A_1.pdb
 36 36 0 0 0
SMALL
GASTEIGER

@<TRIPOS>ATOM
      1  C1       -49.0310   -2.3850    4.0380 C.3   210  IHP210      0.1863
      2  C2       -47.7500   -2.4200    4.8560 C.3   210  IHP210      0.1863
      3  C3       -46.9100   -3.6170    4.4390 C.3   210  IHP210      0.1863
      4  C4       -46.5930   -3.5900    2.9330 C.3   210  IHP210      0.1863
      5  C5       -47.9150   -3.5640    2.1590 C.3   210  IHP210      0.1863
      6  C6       -48.7090   -2.3200    2.5500 C.3   210  IHP210      0.1863
      7  O11      -49.7780   -1.2370    4.3950 O.3   210  IHP210     -0.2675
      8  P1       -51.0690   -1.3070    5.3700 P.3   210  IHP210      0.5327
      9  O21      -51.6490    0.0700    5.1620 O.3   210  IHP210     -0.1145
     10  O31      -50.4940   -1.5660    6.7270 O.3   210  IHP210     -0.1145
     11  O41      -51.9240   -2.4330    4.8630 O.2   210  IHP210     -0.2224
     12  O12      -46.9970   -1.2400    4.6200 O.3   210  IHP210     -0.2675
     13  P2       -46.7620   -0.1240    5.7610 P.3   210  IHP210      0.5327
     14  O22      -46.5650    1.1140    4.9410 O.2   210  IHP210     -0.2224
     15  O32      -48.0490   -0.1500    6.5440 O.3   210  IHP210     -0.1145
     16  O42      -45.5840   -0.5790    6.5810 O.3   210  IHP210     -0.1145
     17  O13      -45.7340   -3.6460    5.2340 O.3   210  IHP210     -0.2675
     18  P3       -45.3100   -4.9800    6.0210 P.3   210  IHP210      0.5327
     19  O23      -43.9010   -5.2540    5.5400 O.2   210  IHP210     -0.2224
     20  O33      -46.3530   -5.9890    5.5820 O.3   210  IHP210     -0.1145
     21  O43      -45.3300   -4.5880    7.4760 O.3   210  IHP210     -0.1145
     22  O14      -45.8110   -4.7400    2.6150 O.3   210  IHP210     -0.2675
     23  P4       -44.2810   -4.6570    2.1060 P.3   210  IHP210      0.5327
     24  O24      -43.4930   -4.2030    3.3060 O.3   210  IHP210     -0.1145
     25  O34      -43.9550   -6.0630    1.6450 O.3   210  IHP210     -0.1145
     26  O44      -44.3270   -3.6960    0.9250 O.2   210  IHP210     -0.2224
     27  O15      -47.7300   -3.5570    0.7450 O.3   210  IHP210     -0.2675
     28  P5       -48.4700   -4.5970   -0.2310 P.3   210  IHP210      0.5327
     29  O25      -48.9330   -5.6980    0.6850 O.3   210  IHP210     -0.1145
     30  O35      -49.6010   -3.8830   -0.9170 O.3   210  IHP210     -0.1145
     31  O45      -47.3370   -5.0090   -1.1480 O.2   210  IHP210     -0.2224
     32  O16      -49.9200   -2.2030    1.7980 O.3   210  IHP210     -0.2675
     33  P6       -50.2140   -0.9490    0.8190 P.3   210  IHP210      0.5327
     34  O26      -49.7230   -1.3300   -0.5520 O.2   210  IHP210     -0.2224
     35  O36      -51.7220   -0.8140    0.8790 O.3   210  IHP210     -0.1145
     36  O46      -49.4430    0.2120    1.3920 O.3   210  IHP210     -0.1145
@<TRIPOS>BOND
     1    31    28    2
     2    30    28    1
     3    34    33    2
     4    28    29    1
     5    28    27    1
     6    27     5    1
     7    33    35    1
     8    33    36    1
     9    33    32    1
    10    26    23    2
    11    25    23    1
    12    32     6    1
    13    23    22    1
    14    23    24    1
    15     5     6    1
    16     5     4    1
    17     6     1    1
    18    22     4    1
    19     4     3    1
    20     1     7    1
    21     1     2    1
    22     7     8    1
    23     3     2    1
    24     3    17    1
    25    12     2    1
    26    12    13    1
    27    11     8    2
    28    14    13    2
    29     9     8    1
    30    17    18    1
    31     8    10    1
    32    19    18    2
    33    20    18    1
    34    13    15    1
    35    13    16    1
    36    18    21    1
