@<TRIPOS>MOLECULE
3eee_HEM_A_1.pdb
 43 50 0 0 0
SMALL
GASTEIGER

@<TRIPOS>ATOM
      1 FE         21.8960  -21.8720    6.2310 Fe    200  HEM200      0.0000
      2  CHA       20.7090  -21.1130    9.3500 C.2   200  HEM200      0.0000
      3  CHB       22.5080  -25.0640    7.1630 C.2   200  HEM200      0.0000
      4  CHC       23.6590  -22.3080    3.3260 C.2   200  HEM200      0.0000
      5  CHD       20.8320  -18.8100    5.0330 C.2   200  HEM200      0.0000
      6  NA        21.6780  -22.9000    7.9720 N.2   200  HEM200      0.0000
      7  C1A       21.1010  -22.4190    9.1280 C.2   200  HEM200      0.0000
      8  C2A       21.0030  -23.5300   10.0550 C.2   200  HEM200      0.0000
      9  C3A       21.4980  -24.6190    9.4450 C.2   200  HEM200      0.0000
     10  C4A       21.9360  -24.2440    8.1180 C.2   200  HEM200      0.0000
     11  CMA       21.6030  -26.0420   10.0430 C.3   200  HEM200      0.0000
     12  CAA       20.4160  -23.4740   11.4860 C.3   200  HEM200      0.0000
     13  CBA       18.9630  -23.0030   11.4610 C.3   200  HEM200      0.0000
     14  CGA       18.2930  -23.2320   12.8000 C.2   200  HEM200      0.0000
     15  O1A       18.9000  -23.8970   13.6700 O.co2 200  HEM200      0.0000
     16  O2A       17.1410  -22.7630   12.9980 O.co2 200  HEM200      0.0000
     17  NB        22.8890  -23.3950    5.4020 N.ar  200  HEM200      0.0000
     18  C1B       23.0260  -24.6580    5.9480 C.ar  200  HEM200      0.0000
     19  C2B       23.8170  -25.4520    5.0250 C.ar  200  HEM200      0.0000
     20  C3B       24.1350  -24.6780    3.9800 C.ar  200  HEM200      0.0000
     21  C4B       23.5490  -23.3750    4.1900 C.ar  200  HEM200      0.0000
     22  CMB       24.2130  -26.9320    5.2390 C.3   200  HEM200      0.0000
     23  CAB       24.9390  -25.0360    2.7070 C.2   200  HEM200      0.0000
     24  CBB       25.0490  -26.2920    2.2690 C.2   200  HEM200      0.0000
     25  NC        22.2120  -20.7360    4.4940 N.2   200  HEM200      0.0000
     26  C1C       22.9360  -21.1400    3.4020 C.2   200  HEM200      0.0000
     27  C2C       22.7890  -20.1440    2.3660 C.2   200  HEM200      0.0000
     28  C3C       22.0010  -19.1720    2.8470 C.2   200  HEM200      0.0000
     29  C4C       21.6220  -19.5440    4.1890 C.2   200  HEM200      0.0000
     30  CMC       23.4610  -20.2370    0.9810 C.3   200  HEM200      0.0000
     31  CAC       21.5120  -17.8700    2.1690 C.2   200  HEM200      0.0000
     32  CBC       21.6490  -17.6450    0.8620 C.2   200  HEM200      0.0000
     33  ND        20.8920  -20.2220    7.0560 N.ar  200  HEM200      0.0000
     34  C1D       20.6580  -19.0280    6.3790 C.ar  200  HEM200      0.0000
     35  C2D       20.1790  -18.0390    7.3160 C.ar  200  HEM200      0.0000
     36  C3D       20.1340  -18.7530    8.6660 C.ar  200  HEM200      0.0000
     37  C4D       20.5930  -20.1040    8.4130 C.ar  200  HEM200      0.0000
     38  CMD       19.7970  -16.5710    7.0190 C.3   200  HEM200      0.0000
     39  CAD       19.6740  -18.1290    9.9980 C.3   200  HEM200      0.0000
     40  CBD       18.3710  -18.8560   10.3060 C.3   200  HEM200      0.0000
     41  CGD       17.4160  -18.0100   11.1050 C.2   200  HEM200      0.0000
     42  O1D       16.5810  -18.6000   11.8310 O.co2 200  HEM200      0.0000
     43  O2D       17.4790  -16.7610   11.0240 O.co2 200  HEM200      0.0000
@<TRIPOS>BOND
     1    32    31    2
     2    30    27    1
     3    31    28    1
     4    24    23    2
     5    27    28    2
     6    27    26    1
     7    23    20    1
     8    28    29    1
     9     4    26    2
    10     4    21    1
    11    26    25    1
    12    20    21   ar
    13    20    19   ar
    14    29    25    2
    15    29     5    1
    16    21    17   ar
    17    25     1    1
    18    19    22    1
    19    19    18   ar
    20     5    34    2
    21    17    18   ar
    22    17     1    1
    23    18     3    1
    24     1    33    1
    25     1     6    1
    26    34    33   ar
    27    34    35   ar
    28    38    35    1
    29    33    37   ar
    30     3    10    2
    31    35    36   ar
    32     6    10    1
    33     6     7    2
    34    10     9    1
    35    37    36   ar
    36    37     2    2
    37    36    39    1
    38     7     2    1
    39     7     8    1
    40     9    11    1
    41     9     8    2
    42    39    40    1
    43     8    12    1
    44    40    41    1
    45    43    41   ar
    46    41    42   ar
    47    13    12    1
    48    13    14    1
    49    14    16   ar
    50    14    15   ar
