@<TRIPOS>MOLECULE
3eei_MTM_A_1.pdb
 20 22 0 0 0
SMALL
GASTEIGER

@<TRIPOS>ATOM
      1  CS       -36.6710    9.6960  -17.4290 C.3   234  MTM234      0.0692
      2  S5'      -36.4030    8.1030  -16.6790 S.3   234  MTM234     -0.1378
      3  C5'      -34.6780    7.7790  -16.8940 C.3   234  MTM234      0.0776
      4  C4'      -34.2360    7.4270  -18.3120 C.3   234  MTM234      0.1168
      5  N4'      -32.7850    7.5470  -18.3760 N.3   234  MTM234     -0.2101
      6  C2'      -33.2380    5.2700  -17.7130 C.3   234  MTM234      0.2035
      7  O2'      -32.7900    4.1040  -18.4270 O.3   234  MTM234     -0.2185
      8  C3'      -34.4680    5.8960  -18.3980 C.3   234  MTM234      0.2005
      9  O3'      -34.5980    5.4820  -19.7730 O.3   234  MTM234     -0.2188
     10  C1'      -32.1720    6.3710  -17.7380 C.3   234  MTM234      0.1309
     11  C9       -31.4950    6.5800  -16.3570 C.2   234  MTM234      0.0343
     12  C8       -30.6210    7.7850  -16.0640 C.2   234  MTM234      0.0978
     13  N7       -30.4590    7.9180  -14.6930 N.2   234  MTM234     -0.2350
     14  C5       -31.2280    6.9760  -14.0430 C.2   234  MTM234      0.1884
     15  C6       -31.4990    6.6500  -12.6440 C.2   234  MTM234      0.4315
     16  N6       -30.8890    7.3440  -11.6580 N.pl3 234  MTM234      0.2177
     17  N1       -32.3320    5.6050  -12.3350 N.2   234  MTM234     -0.0278
     18  C2       -32.9080    4.9150  -13.3450 C.3   234  MTM234      0.3922
     19  N3       -32.7230    5.1360  -14.6490 N.2   234  MTM234     -0.2171
     20  C4       -31.9390    6.1840  -15.0510 C.2   234  MTM234      0.1045
@<TRIPOS>BOND
     1     9     8    1
     2     7     6    1
     3     8     4    1
     4     8     6    1
     5     5     4    1
     6     5    10    1
     7     4     3    1
     8    10     6    1
     9    10    11    1
    10     1     2    1
    11     3     2    1
    12    11    12    2
    13    11    20    1
    14    12    13    1
    15    20    19    2
    16    20    14    1
    17    13    14    2
    18    19    18    1
    19    14    15    1
    20    18    17    1
    21    15    17    2
    22    15    16    1
