@<TRIPOS>MOLECULE
3eej_53R_A_1.pdb
 27 29 0 0 0
SMALL
GASTEIGER

@<TRIPOS>ATOM
      1  C20        8.9320   -5.5190   -5.5110 C.ar  229  53R229      0.0000
      2  C21        7.8270   -6.0290   -6.1760 C.ar  229  53R229      0.0000
      3  C22        7.7100   -5.8210   -7.5660 C.ar  229  53R229      0.0000
      4  C23        8.6780   -5.0960   -8.2850 C.ar  229  53R229      0.0000
      5  C24        9.7890   -4.5900   -7.5980 C.ar  229  53R229      0.0000
      6  C25        9.8970   -4.8000   -6.2140 C.ar  229  53R229      0.0001
      7  C18       10.9840   -4.3060   -5.5140 C.ar  229  53R229      0.0027
      8  C19       11.4350   -5.0060   -4.3780 C.ar  229  53R229     -0.0031
      9  C17       11.6270   -3.1260   -5.9450 C.ar  229  53R229      0.0369
     10  C16       12.7330   -2.6080   -5.2710 C.ar  229  53R229      0.1384
     11  O17       13.3670   -1.4240   -5.6740 O.3   229  53R229     -0.4714
     12  C2        14.7520   -1.1440   -5.0580 C.3   229  53R229      0.2525
     13  C15       13.1590   -3.2950   -4.1280 C.ar  229  53R229      0.0336
     14  C14       12.5310   -4.4700   -3.7120 C.ar  229  53R229     -0.0074
     15  C12       13.0840   -5.0810   -2.4640 C.3   229  53R229      0.0864
     16  C13       11.9770   -5.0740   -1.3970 C.3   229  53R229      0.0187
     17  C11       13.7760   -6.3670   -2.7310 C.1   229  53R229     -0.0868
     18  C10       14.3890   -7.3570   -2.8710 C.1   229  53R229     -0.0761
     19  C6        15.1390   -8.5480   -2.9270 C.3   229  53R229      0.1831
     20  C5        15.2670   -9.2510   -4.1400 C.2   229  53R229      0.1207
     21  C8        14.6160   -8.7960   -5.4710 C.3   229  53R229      0.0641
     22  N4        15.9900  -10.3790   -4.1350 N.2   229  53R229     -0.3332
     23  C3        16.6020  -10.8230   -3.0310 C.1   229  53R229      0.2419
     24  N7        17.2890  -11.9690   -3.0570 N.pl3 229  53R229     -0.0232
     25  N2        16.4770  -10.1860   -1.8920 N.2   229  53R229     -0.3105
     26  C1        15.7820   -9.0510   -1.7610 C.2   229  53R229      0.2282
     27  N9        15.7460   -8.4640   -0.5410 N.pl3 229  53R229     -0.0955
@<TRIPOS>BOND
     1     4     5   ar
     2     4     3   ar
     3     5     6   ar
     4     3     2   ar
     5     6     7    1
     6     6     1   ar
     7     2     1   ar
     8     9     7   ar
     9     9    10   ar
    10    11    10    1
    11    11    12    1
    12     7     8   ar
    13    21    20    1
    14    10    13   ar
    15     8    14   ar
    16    20    22    2
    17    20    19    1
    18    22    23    2
    19    13    14   ar
    20    14    15    1
    21    24    23    1
    22    23    25    2
    23    19    18    1
    24    19    26    1
    25    18    17    3
    26    17    15    1
    27    15    16    1
    28    25    26    2
    29    26    27    1
