@<TRIPOS>MOLECULE
3eek_53S_A_1.pdb
 28 30 0 0 0
SMALL
GASTEIGER

@<TRIPOS>ATOM
      1  C6        15.0430   -8.4550   -3.0160 C.3   229  53S229      0.1831
      2  C5        15.1350   -9.1610   -4.2350 C.2   229  53S229      0.1207
      3  C2        14.7710   -1.1920   -4.9650 C.3   229  53S229      0.2525
      4  C20        8.8750   -5.1870   -6.3030 C.ar  229  53S229     -0.0003
      5  C21        7.9580   -5.5750   -7.2910 C.ar  229  53S229     -0.0043
      6  C22        8.1650   -5.3250   -8.6690 C.ar  229  53S229     -0.0218
      7  C26        7.1020   -5.8040   -9.7190 C.3   229  53S229      0.0310
      8  C23        9.3350   -4.6810   -9.1040 C.ar  229  53S229     -0.0043
      9  C24       10.2550   -4.3010   -8.1140 C.ar  229  53S229     -0.0003
     10  C25       10.0400   -4.5360   -6.7250 C.ar  229  53S229      0.0001
     11  C18       11.0320   -4.1140   -5.8120 C.ar  229  53S229      0.0027
     12  C19       11.4010   -4.8910   -4.6670 C.ar  229  53S229     -0.0031
     13  C17       11.7120   -2.8920   -6.1210 C.ar  229  53S229      0.0369
     14  C16       12.7310   -2.4060   -5.2900 C.ar  229  53S229      0.1384
     15  O17       13.4100   -1.2130   -5.5630 O.3   229  53S229     -0.4714
     16  C15       13.0680   -3.1740   -4.1640 C.ar  229  53S229      0.0336
     17  C14       12.4310   -4.3790   -3.8510 C.ar  229  53S229     -0.0074
     18  C12       12.9410   -5.0130   -2.5750 C.3   229  53S229      0.0864
     19  C13       11.8520   -5.0950   -1.4730 C.3   229  53S229      0.0187
     20  C11       13.6350   -6.2910   -2.8210 C.1   229  53S229     -0.0868
     21  C10       14.2730   -7.2700   -2.9300 C.1   229  53S229     -0.0761
     22  C8        14.4640   -8.6990   -5.5800 C.3   229  53S229      0.0641
     23  N4        15.8780  -10.2830   -4.2350 N.2   229  53S229     -0.3332
     24  C3        16.4990  -10.7590   -3.1230 C.1   229  53S229      0.2419
     25  N7        17.1700  -11.9260   -3.1980 N.pl3 229  53S229     -0.0232
     26  N2        16.3670  -10.1210   -1.9630 N.2   229  53S229     -0.3105
     27  C1        15.7040   -8.9630   -1.8550 C.2   229  53S229      0.2282
     28  N9        15.6160   -8.3580   -0.6760 N.pl3 229  53S229     -0.0955
@<TRIPOS>BOND
     1     7     6    1
     2     8     6   ar
     3     8     9   ar
     4     6     5   ar
     5     9    10   ar
     6     5     4   ar
     7    10     4   ar
     8    10    11    1
     9    13    11   ar
    10    13    14   ar
    11    11    12   ar
    12    22     2    1
    13    15    14    1
    14    15     3    1
    15    14    16   ar
    16    12    17   ar
    17     2    23    2
    18     2     1    1
    19    23    24    2
    20    16    17   ar
    21    17    18    1
    22    25    24    1
    23    24    26    2
    24     1    21    1
    25     1    27    1
    26    21    20    3
    27    20    18    1
    28    18    19    1
    29    26    27    2
    30    27    28    1
