@<TRIPOS>MOLECULE
3eel_53T_A_1.pdb
 29 31 0 0 0
SMALL
GASTEIGER

@<TRIPOS>ATOM
      1  N2        16.4370  -10.1510   -1.8190 N.2   229  53T229     -0.3105
      2  C8        14.5480   -8.7460   -5.4170 C.3   229  53T229      0.0641
      3  C10       14.3600   -7.2690   -2.7130 C.1   229  53T229     -0.0761
      4  C11       13.7290   -6.2620   -2.5490 C.1   229  53T229     -0.0868
      5  C12       13.0720   -4.9760   -2.2460 C.3   229  53T229      0.0864
      6  C13       12.0090   -4.9750   -1.1250 C.3   229  53T229      0.0187
      7  C1        15.7610   -9.0030   -1.6940 C.2   229  53T229      0.2282
      8  C2        14.7180   -0.8130   -4.7140 C.3   229  53T229      0.2525
      9  C3        16.5330  -10.7770   -2.9890 C.1   229  53T229      0.2419
     10  C5        15.1990   -9.1760   -4.0680 C.2   229  53T229      0.1207
     11  C6        15.1060   -8.4850   -2.8410 C.3   229  53T229      0.1831
     12  C26        6.9540   -6.5740   -6.0030 C.3   229  53T229      0.0310
     13  C21        8.1010   -5.7760   -6.6620 C.ar  229  53T229     -0.0222
     14  C20        9.0970   -5.2690   -5.8250 C.ar  229  53T229     -0.0043
     15  C22        8.1460   -5.5540   -8.0530 C.ar  229  53T229     -0.0085
     16  C23        9.2240   -4.8140   -8.5960 C.ar  229  53T229     -0.0222
     17  C27        9.3210   -4.5560  -10.1140 C.3   229  53T229      0.0310
     18  C24       10.2310   -4.3150   -7.7510 C.ar  229  53T229     -0.0043
     19  C25       10.1770   -4.5460   -6.3510 C.ar  229  53T229     -0.0005
     20  C18       11.1870   -4.0670   -5.4930 C.ar  229  53T229      0.0027
     21  C19       11.5940   -4.7880   -4.3520 C.ar  229  53T229     -0.0031
     22  C17       11.8320   -2.8520   -5.7770 C.ar  229  53T229      0.0369
     23  C16       12.8500   -2.3460   -4.9730 C.ar  229  53T229      0.1384
     24  O17       13.4340   -1.1430   -5.3490 O.3   229  53T229     -0.4714
     25  C15       13.2360   -3.0580   -3.8160 C.ar  229  53T229      0.0336
     26  C14       12.6060   -4.2660   -3.5120 C.ar  229  53T229     -0.0074
     27  N4        15.9250  -10.3070   -4.0950 N.2   229  53T229     -0.3332
     28  N7        17.2010  -11.9180   -3.0710 N.pl3 229  53T229     -0.0232
     29  N9        15.6990   -8.4020   -0.4980 N.pl3 229  53T229     -0.0955
@<TRIPOS>BOND
     1    17    16    1
     2    16    15   ar
     3    16    18   ar
     4    15    13   ar
     5    18    19   ar
     6    13    12    1
     7    13    14   ar
     8    19    14   ar
     9    19    20    1
    10    22    20   ar
    11    22    23   ar
    12    20    21   ar
    13     2    10    1
    14    24    23    1
    15    24     8    1
    16    23    25   ar
    17    21    26   ar
    18    27    10    2
    19    27     9    2
    20    10    11    1
    21    25    26   ar
    22    26     5    1
    23    28     9    1
    24     9     1    2
    25    11     3    1
    26    11     7    1
    27     3     4    3
    28     4     5    1
    29     5     6    1
    30     1     7    2
    31     7    29    1
