@<TRIPOS>MOLECULE
3eem_53V_A_1.pdb
 29 31 0 0 0
SMALL
GASTEIGER

@<TRIPOS>ATOM
      1  C1        15.7950   -9.1040   -1.7620 C.2   229  53V229      0.2282
      2  C2        14.4170   -1.0300   -4.8270 C.3   229  53V229      0.2525
      3  C3        16.5920  -10.8510   -3.0920 C.1   229  53V229      0.2419
      4  C6        15.1330   -8.5800   -2.9110 C.3   229  53V229      0.1831
      5  C12       12.9880   -5.1330   -2.6100 C.3   229  53V229      0.0864
      6  C13       12.0130   -5.0350   -1.4080 C.3   229  53V229      0.0187
      7  C14       12.3530   -4.5530   -3.8540 C.ar  229  53V229     -0.0074
      8  C15       12.8640   -3.2810   -4.0970 C.ar  229  53V229      0.0336
      9  C16       12.4160   -2.5230   -5.1760 C.ar  229  53V229      0.1384
     10  C17       11.4310   -3.0790   -6.0210 C.ar  229  53V229      0.0369
     11  C18       10.8760   -4.3680   -5.7890 C.ar  229  53V229      0.0021
     12  C26       11.0660   -3.8330   -8.8250 C.3   229  53V229      0.0310
     13  C20        9.9450   -4.6170   -8.0970 C.ar  229  53V229     -0.0221
     14  C21        8.9360   -5.0730   -8.9660 C.ar  229  53V229     -0.0043
     15  C22        7.8490   -5.8010   -8.4610 C.ar  229  53V229     -0.0006
     16  C23        7.7530   -6.0540   -7.0720 C.ar  229  53V229     -0.0043
     17  C24        8.7380   -5.5880   -6.1950 C.ar  229  53V229     -0.0221
     18  C27        8.4610   -5.9500   -4.7560 C.3   229  53V229      0.0310
     19  C25        9.8860   -4.8580   -6.6720 C.ar  229  53V229     -0.0078
     20  C19       11.3590   -5.1160   -4.6740 C.ar  229  53V229     -0.0031
     21  O17       12.9770   -1.2610   -5.3610 O.3   229  53V229     -0.4714
     22  C11       13.7020   -6.4010   -2.8090 C.1   229  53V229     -0.0868
     23  C10       14.3540   -7.3940   -2.8700 C.1   229  53V229     -0.0761
     24  C5        15.2390   -9.2620   -4.1320 C.2   229  53V229      0.1207
     25  C8        14.5490   -8.7710   -5.4220 C.3   229  53V229      0.0641
     26  N4        15.9570  -10.3850   -4.1710 N.2   229  53V229     -0.3332
     27  N7        17.2690  -12.0050   -3.2060 N.pl3 229  53V229     -0.0232
     28  N2        16.4900  -10.2320   -1.9060 N.2   229  53V229     -0.3105
     29  N9        15.7610   -8.5220   -0.5650 N.pl3 229  53V229     -0.0955
@<TRIPOS>BOND
     1    14    15   ar
     2    14    13   ar
     3    12    13    1
     4    15    16   ar
     5    13    19   ar
     6    16    17   ar
     7    19    17   ar
     8    19    11    1
     9    17    18    1
    10    10    11   ar
    11    10     9   ar
    12    11    20   ar
    13    25    24    1
    14    21     9    1
    15    21     2    1
    16     9     8   ar
    17    20     7   ar
    18    26    24    2
    19    26     3    2
    20    24     4    1
    21     8     7   ar
    22     7     5    1
    23    27     3    1
    24     3    28    2
    25     4    23    1
    26     4     1    1
    27    23    22    3
    28    22     5    1
    29     5     6    1
    30    28     1    2
    31     1    29    1
