@<TRIPOS>MOLECULE
3eeo_SAM_A_1.pdb
 27 29 0 0 0
SMALL
GASTEIGER

@<TRIPOS>ATOM
      1  N        -17.2000   30.9160   80.1290 N.3   328  SAM328     -0.1208
      2  CA       -17.8980   30.1930   81.2070 C.3   328  SAM328      0.1952
      3  C        -19.3790   29.9820   80.8550 C.2   328  SAM328      0.3819
      4  O        -19.7530   29.7830   79.6090 O.co2 328  SAM328     -0.2441
      5  OXT      -20.1960   29.7340   81.8470 O.co2 328  SAM328     -0.2441
      6  CB       -17.7780   30.9570   82.5390 C.3   328  SAM328      0.0414
      7  CG       -16.3540   31.1050   83.0640 C.3   328  SAM328      0.0503
      8  SD       -16.1850   31.9260   84.6860 S.3   328  SAM328     -0.1761
      9  CE       -15.9220   33.3510   85.3310 C.3   328  SAM328      0.0590
     10  C5'      -14.6990   31.1470   85.3400 C.3   328  SAM328      0.0806
     11  C4'      -14.7840   29.6580   85.8000 C.3   328  SAM328      0.1622
     12  O4'      -13.4780   29.1840   86.1370 O.3   328  SAM328     -0.3153
     13  C3'      -15.6380   29.4630   87.0960 C.3   328  SAM328      0.2168
     14  O3'      -16.6900   28.5890   86.7090 O.3   328  SAM328     -0.2175
     15  C2'      -14.6440   28.9030   88.1010 C.3   328  SAM328      0.2569
     16  O2'      -15.2620   27.9070   88.9840 O.3   328  SAM328     -0.2130
     17  C1'      -13.5930   28.2700   87.2240 C.3   328  SAM328      0.3185
     18  N9       -12.2210   28.1000   87.9080 N.pl3 328  SAM328     -0.1439
     19  C8       -11.5070   28.9960   88.6750 C.3   328  SAM328      0.3377
     20  N7       -10.3310   28.5870   89.0570 N.2   328  SAM328     -0.2095
     21  C5       -10.2190   27.3060   88.5180 C.2   328  SAM328      0.2526
     22  C6        -9.1690   26.3550   88.5750 C.2   328  SAM328      0.4393
     23  N6        -8.0130   26.6310   89.1780 N.pl3 328  SAM328      0.2180
     24  N1        -9.3140   25.1640   87.9350 N.2   328  SAM328      0.0021
     25  C2       -10.5020   24.9780   87.2640 C.3   328  SAM328      0.5254
     26  N3       -11.5770   25.7950   87.1290 N.2   328  SAM328     -0.0055
     27  C4       -11.3550   26.9830   87.8080 C.2   328  SAM328      0.3518
@<TRIPOS>BOND
     1     4     3   ar
     2     1     2    1
     3     3     2    1
     4     3     5   ar
     5     2     6    1
     6     6     7    1
     7     7     8    1
     8     8     9    1
     9     8    10    1
    10    10    11    1
    11    11    12    1
    12    11    13    1
    13    12    17    1
    14    14    13    1
    15    13    15    1
    16    26    25    1
    17    26    27    2
    18    17    18    1
    19    17    15    1
    20    25    24    1
    21    27    18    1
    22    27    21    1
    23    18    19    1
    24    24    22    2
    25    15    16    1
    26    21    22    1
    27    21    20    2
    28    22    23    1
    29    19    20    1
