@<TRIPOS>MOLECULE
3eey_SAM_A_1.pdb
 27 29 0 0 0
SMALL
GASTEIGER

@<TRIPOS>ATOM
      1  N          3.5270   -6.8040  -50.0560 N.3   300  SAM300     -0.1208
      2  CA         4.1250   -5.4320  -50.0890 C.3   300  SAM300      0.1952
      3  C          3.8470   -4.6510  -48.8020 C.2   300  SAM300      0.3819
      4  O          3.9360   -3.4190  -48.7480 O.co2 300  SAM300     -0.2441
      5  OXT        3.5380   -5.2490  -47.7720 O.co2 300  SAM300     -0.2441
      6  CB         3.6740   -4.6810  -51.3360 C.3   300  SAM300      0.0414
      7  CG         4.5350   -5.0020  -52.5540 C.3   300  SAM300      0.0503
      8  SD         4.7340   -3.6050  -53.6930 S.3   300  SAM300     -0.1761
      9  CE         3.0800   -3.5510  -54.4370 C.3   300  SAM300      0.0590
     10  C5'        5.7530   -4.3760  -54.9800 C.3   300  SAM300      0.0806
     11  C4'        7.1790   -4.6110  -54.4720 C.3   300  SAM300      0.1622
     12  O4'        7.8680   -5.5370  -55.2910 O.3   300  SAM300     -0.3153
     13  C3'        8.0080   -3.3280  -54.4500 C.3   300  SAM300      0.2168
     14  O3'        8.5800   -3.1890  -53.1700 O.3   300  SAM300     -0.2175
     15  C2'        9.0760   -3.5370  -55.5060 C.3   300  SAM300      0.2569
     16  O2'       10.3090   -2.9240  -55.1790 O.3   300  SAM300     -0.2130
     17  C1'        9.1770   -5.0580  -55.5330 C.3   300  SAM300      0.3185
     18  N9         9.7150   -5.5980  -56.7970 N.pl3 300  SAM300     -0.1439
     19  C8         9.7080   -5.0290  -58.0490 C.3   300  SAM300      0.3377
     20  N7        10.3180   -5.8830  -58.9080 N.2   300  SAM300     -0.2095
     21  C5        10.7110   -6.9810  -58.2160 C.2   300  SAM300      0.2526
     22  C6        11.3730   -8.1500  -58.5760 C.2   300  SAM300      0.4393
     23  N6        11.7560   -8.3830  -59.8290 N.pl3 300  SAM300      0.2180
     24  N1        11.6400   -9.0880  -57.6040 N.2   300  SAM300      0.0021
     25  C2        11.2710   -8.8980  -56.2900 C.3   300  SAM300      0.5254
     26  N3        10.6090   -7.7470  -55.9460 N.2   300  SAM300     -0.0055
     27  C4        10.3390   -6.8070  -56.8880 C.2   300  SAM300      0.3518
@<TRIPOS>BOND
     1    23    22    1
     2    20    21    2
     3    20    19    1
     4    22    21    1
     5    22    24    2
     6    21    27    1
     7    19    18    1
     8    24    25    1
     9    27    18    1
    10    27    26    2
    11    18    17    1
    12    25    26    1
    13    17    15    1
    14    17    12    1
    15    15    16    1
    16    15    13    1
    17    12    11    1
    18    10    11    1
    19    10     8    1
    20    11    13    1
    21    13    14    1
    22     9     8    1
    23     8     7    1
    24     7     6    1
    25     6     2    1
    26     2     1    1
    27     2     3    1
    28     3     4   ar
    29     3     5   ar
