@<TRIPOS>MOLECULE
3ef2_GLA_A_1.pdb
 11 11 0 0 0
SMALL
GASTEIGER

@<TRIPOS>ATOM
      1  C1         0.8610   63.2000    6.2310 C.3   296  GLA296      0.1777
      2  C2        -0.0570   62.0140    5.9270 C.3   296  GLA296      0.2141
      3  C3        -1.4830   62.5180    5.6010 C.3   296  GLA296      0.2173
      4  C4        -1.9790   63.5210    6.6690 C.3   296  GLA296      0.2142
      5  C5        -0.9560   64.6620    6.8180 C.3   296  GLA296      0.1810
      6  C6        -1.3170   65.7300    7.8500 C.3   296  GLA296      0.2141
      7  O2         0.4840   61.2060    4.8460 O.3   296  GLA296     -0.2176
      8  O3        -2.3840   61.4030    5.5020 O.3   296  GLA296     -0.2175
      9  O4        -2.1370   62.8270    7.9070 O.3   296  GLA296     -0.2176
     10  O5         0.2850   64.0730    7.2180 O.3   296  GLA296     -0.3481
     11  O6        -0.3040   66.7670    7.9080 O.3   296  GLA296     -0.2176
@<TRIPOS>BOND
     1     7     2    1
     2     8     3    1
     3     3     2    1
     4     3     4    1
     5     2     1    1
     6     1    10    1
     7     4     5    1
     8     4     9    1
     9     5    10    1
    10     5     6    1
    11     6    11    1
