@<TRIPOS>MOLECULE
3ef2_GAL_A_1.pdb
 11 11 0 0 0
SMALL
GASTEIGER

@<TRIPOS>ATOM
      1  C1         3.1530   66.9500    4.0700 C.3   295  GAL295      0.2716
      2  C2         2.2140   65.7300    3.9550 C.3   295  GAL295      0.0999
      3  C3         2.0270   65.0460    5.3120 C.3   295  GAL295      0.1898
      4  C4         3.3790   64.7730    5.9940 C.3   295  GAL295      0.2118
      5  C5         4.2130   66.0750    5.9980 C.3   295  GAL295      0.1834
      6  C6         5.5870   65.9260    6.6590 C.3   295  GAL295      0.2142
      7  O1         3.4470   67.4110    2.7770 O.3   295  GAL295     -0.1898
      8  O3         1.2640   63.8530    5.1170 O.3   295  GAL295     -0.2201
      9  O4         4.0880   63.7880    5.2920 O.3   295  GAL295     -0.2177
     10  O5         4.3800   66.5560    4.6680 O.3   295  GAL295     -0.3255
     11  O6         6.5240   65.3060    5.7680 O.3   295  GAL295     -0.2176
@<TRIPOS>BOND
     1     7     1    1
     2     2     1    1
     3     2     3    1
     4     1    10    1
     5    10     5    1
     6     8     3    1
     7     9     4    1
     8     3     4    1
     9    11     6    1
    10     4     5    1
    11     5     6    1
