@<TRIPOS>MOLECULE
3ef3_NXC_A_1.pdb
 24 26 0 0 0
SMALL
GASTEIGER

@<TRIPOS>ATOM
      1 CL         -4.8030   25.4320   47.0580 Cl    215  NXC215      0.0000
      2 PT         -3.3470   23.9510   45.9220 Pt    215  NXC215      0.0000
      3  C1        -2.1120   22.7280   44.9010 C.ar  215  NXC215      0.0000
      4  C6        -2.0310   21.3190   45.3590 C.ar  215  NXC215      0.0000
      5  C10       -2.9300   21.0270   46.5380 C.3   215  NXC215      0.0000
      6  N2        -3.6740   22.2260   46.9530 N.4   215  NXC215      0.0000
      7  C12       -3.3170   22.5030   48.3500 C.3   215  NXC215      0.0000
      8  C11       -5.1110   21.9240   46.8890 C.3   215  NXC215      0.0000
      9  C5        -1.1690   20.4860   44.6550 C.ar  215  NXC215      0.0000
     10  C4        -0.4580   21.0290   43.5890 C.ar  215  NXC215      0.0000
     11  C3        -0.5050   22.3470   43.1430 C.ar  215  NXC215      0.0000
     12  C2        -1.3320   23.2760   43.7640 C.ar  215  NXC215      0.0000
     13  C7        -1.6410   24.7420   43.5640 C.3   215  NXC215      0.0000
     14  N1        -2.6330   25.2480   44.5250 N.4   215  NXC215      0.0000
     15  C9        -3.7970   25.6910   43.7470 C.3   215  NXC215      0.0000
     16  C8        -2.0830   26.4120   45.2320 C.3   215  NXC215      0.0000
     17  C13        0.4670   20.0210   42.9190 C.3   215  NXC215      0.0000
     18  C14       -0.2030   18.8430   42.2490 C.3   215  NXC215      0.0000
     19  C15        0.8730   18.1890   41.3960 C.3   215  NXC215      0.0000
     20  P          0.3370   16.5850   40.7710 P.3   215  NXC215      0.0000
     21  O2        -0.7900   16.6520   39.5740 O.3   215  NXC215      0.0000
     22  O1        -0.0210   15.3260   41.9490 O.3   215  NXC215      0.0000
     23  C16        0.8160   14.9790   43.0030 C.3   215  NXC215      0.0000
     24  C17       -0.1070   14.4650   44.0810 C.3   215  NXC215      0.0000
@<TRIPOS>BOND
     1    21    20    1
     2    20    19    1
     3    20    22    1
     4    19    18    1
     5    22    23    1
     6    18    17    1
     7    17    10    1
     8    23    24    1
     9    11    10   ar
    10    11    12   ar
    11    13    12    1
    12    13    14    1
    13    10     9   ar
    14    15    14    1
    15    12     3   ar
    16    14    16    1
    17    14     2    1
    18     9     4   ar
    19     3     4   ar
    20     3     2    1
    21     4     5    1
    22     2     6    1
    23     2     1    1
    24     5     6    1
    25     8     6    1
    26     6     7    1
