@<TRIPOS>MOLECULE
3ef5_DGT_A_1.pdb
 31 33 0 0 0
SMALL
GASTEIGER

@<TRIPOS>ATOM
      1  PG        29.6400   -7.6180  -15.6360 P.3   3800  DGT3800     0.5373
      2  O1G       28.3870   -7.5980  -14.7860 O.3   3800  DGT3800    -0.1143
      3  O2G       30.8320   -7.9400  -14.7630 O.3   3800  DGT3800    -0.1143
      4  O3G       29.8490   -6.2730  -16.2950 O.2   3800  DGT3800    -0.2221
      5  O3B       29.4880   -8.7720  -16.7530 O.3   3800  DGT3800    -0.2258
      6  PB        28.3930   -8.7270  -17.9390 P.3   3800  DGT3800     0.2277
      7  O1B       28.6770   -7.5670  -18.8670 O.2   3800  DGT3800    -0.5168
      8  O2B       28.3930  -10.0340  -18.7020 O.3   3800  DGT3800    -0.4368
      9  O3A       26.9790   -8.4760  -17.1930 O.3   3800  DGT3800    -0.2700
     10  PA        26.0790   -9.6770  -16.5990 P.3   3800  DGT3800     0.2189
     11  O1A       25.0600  -10.1240  -17.6210 O.2   3800  DGT3800    -0.5170
     12  O2A       26.9520  -10.8420  -16.1920 O.3   3800  DGT3800    -0.4371
     13  O5'       25.3350   -9.0110  -15.3290 O.3   3800  DGT3800    -0.3112
     14  C5'       24.4620   -9.7920  -14.5410 C.3   3800  DGT3800     0.1812
     15  C4'       24.2440   -9.1700  -13.1620 C.3   3800  DGT3800     0.1772
     16  O4'       23.1770   -9.8360  -12.5160 O.3   3800  DGT3800    -0.3347
     17  C3'       25.4450   -9.2860  -12.2370 C.3   3800  DGT3800     0.1857
     18  O3'       25.7030   -8.0210  -11.6670 O.3   3800  DGT3800    -0.2203
     19  C2'       25.0510  -10.2950  -11.1670 C.3   3800  DGT3800     0.0865
     20  C1'       23.5310  -10.3050  -11.2270 C.3   3800  DGT3800     0.1981
     21  N9        22.9060  -11.6250  -10.9760 N.pl3 3800  DGT3800    -0.2374
     22  C8        22.6820  -12.1940   -9.7480 C.3   3800  DGT3800     0.2245
     23  N7        22.0650  -13.3860   -9.9290 N.2   3800  DGT3800    -0.2322
     24  C5        21.8830  -13.6010  -11.2490 C.2   3800  DGT3800     0.2182
     25  C6        21.3130  -14.6500  -11.9700 C.1   3800  DGT3800     0.2372
     26  O6        20.8580  -15.6330  -11.3920 O.2   3800  DGT3800    -0.2069
     27  N1        21.2630  -14.5850  -13.3520 N.2   3800  DGT3800    -0.2485
     28  C2        21.7820  -13.4810  -14.0120 C.1   3800  DGT3800     0.2531
     29  N2        21.7420  -13.4100  -15.3380 N.pl3 3800  DGT3800    -0.0226
     30  N3        22.3460  -12.4440  -13.2890 N.2   3800  DGT3800    -0.3074
     31  C4        22.4010  -12.4960  -11.9250 C.2   3800  DGT3800     0.2299
@<TRIPOS>BOND
     1     7     6    2
     2     8     6    1
     3     6     9    1
     4     6     5    1
     5    11    10    2
     6     9    10    1
     7     5     1    1
     8    10    12    1
     9    10    13    1
    10     4     1    2
    11     1     2    1
    12     1     3    1
    13    29    28    1
    14    13    14    1
    15    14    15    1
    16    28    27    2
    17    28    30    2
    18    27    25    2
    19    30    31    2
    20    15    16    1
    21    15    17    1
    22    16    20    1
    23    17    18    1
    24    17    19    1
    25    25    26    2
    26    25    24    1
    27    31    24    1
    28    31    21    1
    29    24    23    2
    30    20    19    1
    31    20    21    1
    32    21    22    1
    33    23    22    1
