@<TRIPOS>MOLECULE
3ef7_MAL_A_1.pdb
 23 24 0 0 0
SMALL
GASTEIGER

@<TRIPOS>ATOM
      1  C1       -22.8010  -16.3340   58.9090 C.3   482  MAL482      0.2695
      2  C2       -23.0840  -17.6580   58.2080 C.3   482  MAL482      0.2406
      3  C3       -23.9040  -17.3890   56.9600 C.3   482  MAL482      0.2198
      4  C4       -25.2070  -16.7210   57.3880 C.3   482  MAL482      0.2144
      5  C5       -24.9000  -15.4120   58.1340 C.3   482  MAL482      0.1835
      6  C6       -26.2150  -14.8410   58.6960 C.3   482  MAL482      0.2142
      7  O1       -22.0300  -15.5780   58.0370 O.3   482  MAL482     -0.3257
      8  O2       -21.8650  -18.2990   57.8970 O.3   482  MAL482     -0.2149
      9  O3       -24.2240  -18.6210   56.3330 O.3   482  MAL482     -0.2174
     10  O4       -26.0320  -16.4730   56.2490 O.3   482  MAL482     -0.2176
     11  O5       -23.9880  -15.5770   59.2370 O.3   482  MAL482     -0.3256
     12  O6       -25.9670  -13.5100   59.1600 O.3   482  MAL482     -0.2176
     13  C1'      -18.6530  -13.1890   58.7340 C.3   482  MAL482      0.3023
     14  C2'      -18.6870  -14.6280   59.2580 C.3   482  MAL482      0.2433
     15  C3'      -19.7200  -15.4390   58.5170 C.3   482  MAL482      0.2168
     16  C4'      -21.0660  -14.8320   58.7910 C.3   482  MAL482      0.1804
     17  C5'      -21.0650  -13.3720   58.3720 C.3   482  MAL482      0.1804
     18  C6'      -22.4260  -12.7850   58.8990 C.3   482  MAL482      0.2141
     19  O1'      -18.1500  -13.1530   57.3640 O.3   482  MAL482     -0.1869
     20  O2'      -17.4010  -15.2430   59.0930 O.3   482  MAL482     -0.2148
     21  O3'      -19.6980  -16.7670   59.0160 O.3   482  MAL482     -0.2175
     22  O5'      -19.9640  -12.5970   58.8850 O.3   482  MAL482     -0.3237
     23  O6'      -22.7530  -11.5350   58.2640 O.3   482  MAL482     -0.2176
@<TRIPOS>BOND
     1    10     4    1
     2     9     3    1
     3     3     4    1
     4     3     2    1
     5    19    13    1
     6     4     5    1
     7     8     2    1
     8     7    16    1
     9     7     1    1
    10     5     6    1
    11     5    11    1
    12     2     1    1
    13    23    18    1
    14    17    16    1
    15    17    22    1
    16    17    18    1
    17    15    16    1
    18    15    21    1
    19    15    14    1
    20     6    12    1
    21    13    22    1
    22    13    14    1
    23     1    11    1
    24    20    14    1
