@<TRIPOS>MOLECULE
3efi_TRP_A_1.pdb
 15 16 0 0 0
SMALL
GASTEIGER

@<TRIPOS>ATOM
      1  N         -3.7730   12.4940    8.0260 N.3   300  TRP300     -0.1205
      2  CA        -4.1510   11.3330    8.8760 C.3   300  TRP300      0.1984
      3  C         -5.1650   10.4580    8.1430 C.2   300  TRP300      0.3822
      4  O         -4.6580    9.5570    7.4730 O.co2 300  TRP300     -0.2440
      5  CB        -4.5960   11.7320   10.2920 C.3   300  TRP300      0.0549
      6  CG        -3.8600   12.9620   10.8190 C.2   300  TRP300     -0.0138
      7  CD1       -2.5010   13.1390   10.9320 C.2   300  TRP300      0.0907
      8  CD2       -4.4560   14.1800   11.2360 C.3   300  TRP300      0.0819
      9  NE1       -2.2290   14.3930   11.4240 N.2   300  TRP300     -0.2482
     10  CE2       -3.4150   15.0460   11.6280 C.2   300  TRP300      0.0665
     11  CE3       -5.7830   14.6250   11.3430 C.2   300  TRP300     -0.0164
     12  CZ2       -3.6550   16.3420   12.0850 C.2   300  TRP300      0.0153
     13  CZ3       -6.0160   15.9180   11.8130 C.2   300  TRP300     -0.0038
     14  CH2       -4.9540   16.7590   12.1590 C.2   300  TRP300      0.0009
     15  OXT       -6.4120   10.5800    8.1730 O.co2 300  TRP300     -0.2440
@<TRIPOS>BOND
     1     4     3   ar
     2     1     2    1
     3     3    15   ar
     4     3     2    1
     5     2     5    1
     6     5     6    1
     7     6     7    2
     8     6     8    1
     9     7     9    1
    10     8    11    1
    11     8    10    1
    12    11    13    2
    13     9    10    2
    14    10    12    1
    15    13    14    1
    16    12    14    2
