@<TRIPOS>MOLECULE
3efj_MT3_A_1.pdb
 37 41 0 0 0
SMALL
GASTEIGER

@<TRIPOS>ATOM
      1  N1        62.4910   15.2630  110.3790 N.ar    1  MT31       -0.2818
      2  N3        64.0070   12.8630  121.0900 N.ar    1  MT31       -0.2478
      3  C4        66.9580   15.6790  106.7630 C.ar    1  MT31       -0.0000
      4  C5        65.7570   16.0580  106.1680 C.ar    1  MT31       -0.0003
      5  C6        64.7190   16.5520  106.9520 C.ar    1  MT31       -0.0038
      6  C7        62.6710   15.1320  112.7970 C.ar    1  MT31        0.0754
      7  C8        62.1690   14.6200  111.5940 C.ar    1  MT31        0.2632
      8  C10       63.4730   16.2650  112.7420 C.ar    1  MT31        0.1049
      9  C13       62.3990   13.1910  114.2650 C.ar    1  MT31        0.0330
     10  C15       62.0720   15.4190  115.1280 C.ar    1  MT31        0.0035
     11  C17       61.8860   12.4840  120.1070 C.ar    1  MT31        0.0340
     12  C20       60.9340   11.6390  122.5970 C.2     1  MT31        0.1519
     13  C21       62.2640   12.0490  122.4550 C.3     1  MT31        0.1122
     14  C22       62.7330   12.4680  121.2150 C.ar    1  MT31        0.0661
     15  C24       63.6970   13.3260  118.7800 C.ar    1  MT31        0.0578
     16  C26       57.9050   11.2980  120.6350 C.3     1  MT31        0.2521
     17  C28       63.7170   17.2120  109.1500 C.3     1  MT31        0.0903
     18  C27       61.2930   10.5380  124.6840 C.3     1  MT31        0.2521
     19  O2        60.3960   11.2090  123.7760 O.2     1  MT31       -0.4726
     20  C19       60.0890   11.6630  121.5050 C.2     1  MT31        0.1505
     21  O1        58.8170   11.2440  121.7320 O.2     1  MT31       -0.4726
     22  C18       60.5570   12.0830  120.2570 C.3     1  MT31        0.0973
     23  C23       64.4910   13.2810  119.9240 C.ar    1  MT31        0.1016
     24  C25       62.3700   12.9240  118.8680 C.ar    1  MT31        0.1445
     25  O3        61.5230   12.9450  117.7910 O.3     1  MT31       -0.4514
     26  C11       61.8180   13.5450  116.6020 C.ar    1  MT31        0.1725
     27  C12       62.1110   12.7070  115.5400 C.ar    1  MT31        0.1744
     28  F1        62.1220   11.3920  115.7930 F       1  MT31       -0.2009
     29  C16       61.7840   14.9240  116.4040 C.ar    1  MT31        0.0398
     30  C14       62.3880   14.5690  114.0540 C.ar    1  MT31        0.0085
     31  O4        61.4500   13.6140  111.5800 O.2     1  MT31       -0.2669
     32  C29       61.9550   14.7140  109.1000 C.3     1  MT31        0.1347
     33  N2        63.7680   16.8540  111.5940 N.ar    1  MT31       -0.2303
     34  C9        63.3260   16.4060  110.4070 C.ar    1  MT31        0.1270
     35  C1        64.8730   16.6580  108.3310 C.ar    1  MT31       -0.0147
     36  C2        66.0750   16.2860  108.9280 C.ar    1  MT31       -0.0038
     37  C3        67.1180   15.7910  108.1440 C.ar    1  MT31       -0.0003
@<TRIPOS>BOND
     1     4     3   ar
     2     4     5   ar
     3     3    37   ar
     4     5    35   ar
     5    37    36   ar
     6    35    36   ar
     7    35    17    1
     8    32     1    1
     9    17    34    1
    10     1    34   ar
    11     1     7   ar
    12    34    33   ar
    13    31     7    2
    14     7     6   ar
    15    33     8   ar
    16     8     6   ar
    17     6    30    1
    18    30     9   ar
    19    30    10   ar
    20     9    27   ar
    21    10    29   ar
    22    27    28    1
    23    27    26   ar
    24    29    26   ar
    25    26    25    1
    26    25    24    1
    27    15    24   ar
    28    15    23   ar
    29    24    11   ar
    30    23     2   ar
    31    11    22    1
    32    11    14   ar
    33    22    20    1
    34    16    21    1
    35     2    14   ar
    36    14    13    1
    37    20    21    1
    38    20    12    2
    39    13    12    1
    40    12    19    1
    41    19    18    1
