@<TRIPOS>MOLECULE
3efk_MT4_A_1.pdb
 38 42 0 0 0
SMALL
GASTEIGER

@<TRIPOS>ATOM
      1  N1        64.5820   12.5240  121.0950 N.ar    1  MT41       -0.2478
      2  N3        65.0080   15.1890  111.0510 N.ar    1  MT41       -0.2118
      3  C4        64.3200   13.0940  118.8090 C.ar    1  MT41        0.0578
      4  C5        62.9650   12.7540  118.8510 C.ar    1  MT41        0.1445
      5  C6        60.5950   11.4610  121.3880 C.2     1  MT41        0.1505
      6  C7        61.4230   11.3570  122.5030 C.2     1  MT41        0.1519
      7  C8        62.7750   11.7090  122.3980 C.3     1  MT41        0.1122
      8  C10       61.6580   10.8720  124.8540 C.3     1  MT41        0.2521
      9  C13       62.7350   12.8440  115.4850 C.ar    1  MT41        0.1744
     10  C15       63.3380   14.8260  114.2740 C.ar    1  MT41        0.0085
     11  C17       62.7460   14.9370  116.6600 C.ar    1  MT41        0.0398
     12  C20       64.8910   16.4950  110.7420 C.ar    1  MT41        0.2242
     13  C21       64.5090   14.6770  112.1700 C.ar    1  MT41        0.1065
     14  C22       64.0480   18.7970  111.3310 C.3     1  MT41        0.1364
     15  C24       66.0660   16.3510  107.4320 C.ar    1  MT41        0.0189
     16  C26       68.1850   15.2360  107.1250 C.ar    1  MT41        0.1402
     17  C28       67.4970   15.9060  109.3290 C.ar    1  MT41        0.0189
     18  O2        60.8560   10.8850  123.6640 O.2     1  MT41       -0.4726
     19  O1        59.2830   11.1060  121.5270 O.2     1  MT41       -0.4726
     20  C11       58.5190   11.1880  120.3220 C.3     1  MT41        0.2521
     21  C9        61.1050   11.9240  120.1720 C.3     1  MT41        0.0973
     22  C1        62.4480   12.2850  120.0660 C.ar    1  MT41        0.0340
     23  C2        63.2860   12.1740  121.1850 C.ar    1  MT41        0.0661
     24  C3        65.1030   12.9730  119.9600 C.ar    1  MT41        0.1016
     25  O3        62.1320   12.8550  117.7580 O.3     1  MT41       -0.4514
     26  C12       62.5410   13.5570  116.6590 C.ar    1  MT41        0.1725
     27  C14       63.1350   13.4500  114.3020 C.ar    1  MT41        0.0330
     28  F2        62.5240   11.5250  115.5180 F       1  MT41       -0.2009
     29  C16       63.1590   15.5440  115.4680 C.ar    1  MT41        0.0035
     30  C18       63.7970   15.4470  113.0960 C.ar    1  MT41        0.0755
     31  C19       63.6630   16.8160  112.8260 C.ar    1  MT41        0.2644
     32  O4        63.0700   17.5700  113.5940 O.2     1  MT41       -0.2668
     33  N2        64.2080   17.3480  111.6360 N.ar    1  MT41       -0.2653
     34  N4        65.4000   17.0080  109.6040 N.pl3   1  MT41       -0.1790
     35  C23       66.3070   16.4250  108.8080 C.ar    1  MT41        0.0737
     36  C25       67.0020   15.7510  106.5880 C.ar    1  MT41        0.0310
     37  F1        69.1000   14.6580  106.3250 F       1  MT41       -0.2042
     38  C27       68.4350   15.3150  108.4920 C.ar    1  MT41        0.0310
@<TRIPOS>BOND
     1    37    16    1
     2    36    16   ar
     3    36    15   ar
     4    16    38   ar
     5    15    35   ar
     6    38    17   ar
     7    35    17   ar
     8    35    34    1
     9    34    12    1
    10    12     2   ar
    11    12    33   ar
    12     2    13   ar
    13    14    33    1
    14    33    31   ar
    15    13    30   ar
    16    31    30   ar
    17    31    32    2
    18    30    10    1
    19    10    27   ar
    20    10    29   ar
    21    27     9   ar
    22    29    11   ar
    23     9    28    1
    24     9    26   ar
    25    26    11   ar
    26    26    25    1
    27    25     4    1
    28     3     4   ar
    29     3    24   ar
    30     4    22   ar
    31    24     1   ar
    32    22    21    1
    33    22    23   ar
    34    21     5    1
    35    20    19    1
    36     1    23   ar
    37    23     7    1
    38     5    19    1
    39     5     6    2
    40     7     6    1
    41     6    18    1
    42    18     8    1
