@<TRIPOS>MOLECULE
3efl_706_A_1.pdb
 28 31 0 0 0
SMALL
GASTEIGER

@<TRIPOS>ATOM
      1  C2        40.4480   40.8900   11.6350 C.3   501  706501      0.0027
      2  C1        39.0490   40.6710   11.0570 C.3   501  706501      0.0315
      3  C3        39.0040   40.9610    9.5550 C.3   501  706501      0.0027
      4  C28       38.0120   41.5100   11.8020 C.3   501  706501      0.1257
      5  N27       37.3530   40.5510   12.7020 N.2   501  706501     -0.2743
      6  C26       37.6590   39.2900   12.3990 C.2   501  706501      0.0587
      7  C22       37.1130   38.1040   12.8820 C.2   501  706501      0.0312
      8  C25       38.5690   39.2470   11.3430 C.3   501  706501      0.0636
      9  C23       38.9240   38.0250   10.7780 C.2   501  706501     -0.0191
     10  C24       38.3670   36.8450   11.2610 C.2   501  706501      0.0124
     11  C13       37.4530   36.8790   12.3120 C.2   501  706501      0.0745
     12  N12       36.8170   35.7720   12.6880 N.am  501  706501     -0.1753
     13  C10       37.4440   34.6330   12.9770 C.2   501  706501      0.2717
     14  O11       38.6650   34.4860   12.9500 O.2   501  706501     -0.2679
     15  C8        36.5290   33.4670   13.3620 C.ar  501  706501      0.0883
     16  C9        35.1670   33.5180   13.0870 C.ar  501  706501      0.0090
     17  C4        34.3660   32.4230   13.3970 C.ar  501  706501      0.0209
     18  C5        34.9520   31.3010   13.9750 C.ar  501  706501      0.1004
     19  N6        36.2500   31.2800   14.2260 N.ar  501  706501     -0.2276
     20  C7        37.0550   32.3170   13.9450 C.ar  501  706501      0.1522
     21  N14       38.3570   32.2490   14.2180 N.pl3 501  706501     -0.2153
     22  C15       38.9180   31.1300   14.9900 C.3   501  706501      0.1403
     23  C16       39.4300   30.0360   14.0490 C.ar  501  706501      0.0025
     24  C17       39.4280   30.2280   12.6700 C.ar  501  706501      0.0181
     25  C18       39.8750   29.1960   11.8520 C.ar  501  706501      0.0986
     26  N19       40.2950   28.0570   12.3790 N.ar  501  706501     -0.2423
     27  C20       40.3140   27.8410   13.6840 C.ar  501  706501      0.0986
     28  C21       39.8810   28.8250   14.5670 C.ar  501  706501      0.0181
@<TRIPOS>BOND
     1     3     2    1
     2     9    10    2
     3     9     8    1
     4     2     8    1
     5     2     1    1
     6     2     4    1
     7    10    11    1
     8     8     6    1
     9     4     5    1
    10    25    26   ar
    11    25    24   ar
    12    11    12    1
    13    11     7    2
    14    26    27   ar
    15     6     5    2
    16     6     7    1
    17    24    23   ar
    18    12    13   am
    19    14    13    2
    20    13    15    1
    21    16    15   ar
    22    16    17   ar
    23    15    20   ar
    24    17    18   ar
    25    27    28   ar
    26    20    21    1
    27    20    19   ar
    28    18    19   ar
    29    23    28   ar
    30    23    22    1
    31    21    22    1
