@<TRIPOS>MOLECULE
3efq_714_A_1.pdb
 25 25 0 0 0
SMALL
GASTEIGER

@<TRIPOS>ATOM
      1  O1        25.4280  -12.8690    7.6680 O.3   3001  7143001    -0.3568
      2  P1        26.1210  -14.1860    7.8400 P.3   3001  7143001     0.1253
      3  O3        25.1380  -15.3450    7.8900 O.3   3001  7143001    -0.3568
      4  O2        27.3530  -14.3570    7.0080 O.2   3001  7143001    -0.4596
      5  C1        26.8170  -14.1470    9.5450 C.3   3001  7143001     0.1236
      6  P2        25.4750  -13.9320   10.7610 P.3   3001  7143001     0.1253
      7  O4        24.7980  -12.6330   10.4000 O.2   3001  7143001    -0.4596
      8  O5        26.0430  -13.8330   12.1750 O.3   3001  7143001    -0.3568
      9  O6        24.5260  -15.1160   10.7060 O.3   3001  7143001    -0.3568
     10  C2        27.6000  -15.4500    9.7360 C.3   3001  7143001     0.1057
     11  N1        28.2560  -15.6840   11.0670 N.pl3 3001  7143001    -0.2992
     12  C7        28.2140  -16.9410   11.5280 C.3   3001  7143001     0.1556
     13  C6        28.7910  -17.2910   12.7520 C.2   3001  7143001     0.1360
     14  C5        29.4600  -16.3090   13.4810 C.2   3001  7143001     0.0354
     15  C4        29.5360  -15.0010   12.9910 C.2   3001  7143001     0.0186
     16  C3        28.9120  -14.7200   11.7440 C.2   3001  7143001     0.0618
     17  O7        28.7090  -18.5980   13.1830 O.2   3001  7143001    -0.4780
     18  C8        29.2640  -19.0290   14.4430 C.3   3001  7143001     0.2050
     19  C9        28.9020  -20.5080   14.5790 C.3   3001  7143001     0.0473
     20  C10       29.4160  -21.2050   15.8420 C.3   3001  7143001     0.0038
     21  C11       29.4800  -22.7250   15.6710 C.3   3001  7143001     0.0001
     22  C12       28.1080  -23.3580   15.7110 C.3   3001  7143001     0.0000
     23  C13       28.1890  -24.8180   16.1250 C.3   3001  7143001     0.0000
     24  C14       28.2370  -25.7120   14.8980 C.3   3001  7143001     0.0000
     25  C15       27.7000  -27.1030   15.1760 C.3   3001  7143001     0.0000
@<TRIPOS>BOND
     1     4     2    2
     2     1     2    1
     3     2     3    1
     4     2     5    1
     5     5    10    1
     6     5     6    1
     7    10    11    1
     8     7     6    2
     9     9     6    1
    10     6     8    1
    11    11    12    1
    12    11    16    1
    13    12    13    1
    14    16    15    2
    15    13    17    1
    16    13    14    2
    17    15    14    1
    18    17    18    1
    19    18    19    1
    20    19    20    1
    21    24    25    1
    22    24    23    1
    23    21    22    1
    24    21    20    1
    25    22    23    1
