@<TRIPOS>MOLECULE
3efr_BTN_A_1.pdb
 16 17 0 0 0
SMALL
GASTEIGER

@<TRIPOS>ATOM
      1  C11       13.1660    4.3510   12.8710 C.2   1001  BTN1001     0.3649
      2  O11       13.0800    5.1890   11.9470 O.co2 1001  BTN1001    -0.2457
      3  O12       14.1040    3.5220   12.8480 O.co2 1001  BTN1001    -0.2457
      4  C10       12.1400    4.3490   13.9810 C.3   1001  BTN1001     0.1141
      5  C9        12.7870    4.6550   15.3250 C.3   1001  BTN1001     0.0118
      6  C8        13.7330    3.5290   15.7180 C.3   1001  BTN1001     0.0015
      7  C7        13.2560    2.8390   16.9910 C.3   1001  BTN1001     0.0129
      8  C2        13.2070    3.7810   18.1840 C.3   1001  BTN1001     0.0729
      9  S1        14.4560    3.3770   19.2160 S.3   1001  BTN1001    -0.1369
     10  C6        13.4710    3.7360   20.6920 C.3   1001  BTN1001     0.0848
     11  C5        11.9910    3.7080   20.3690 C.3   1001  BTN1001     0.1509
     12  N1        11.3850    2.4580   20.7830 N.2   1001  BTN1001    -0.1859
     13  C3        10.9950    1.7370   19.7390 C.1   1001  BTN1001     0.2386
     14  O3        10.4040    0.4580   19.8090 O.2   1001  BTN1001    -0.2023
     15  N2        11.2410    2.3910   18.6120 N.2   1001  BTN1001    -0.1860
     16  C4        11.8470    3.6820   18.8610 C.3   1001  BTN1001     0.1500
@<TRIPOS>BOND
     1     2     1   ar
     2     3     1   ar
     3     1     4    1
     4     4     5    1
     5     5     6    1
     6     6     7    1
     7     7     8    1
     8     8    16    1
     9     8     9    1
    10    15    16    1
    11    15    13    2
    12    16    11    1
    13     9    10    1
    14    13    14    2
    15    13    12    2
    16    11    10    1
    17    11    12    1
