@<TRIPOS>MOLECULE
3efs_ATP_A_1.pdb
 31 33 0 0 0
SMALL
GASTEIGER

@<TRIPOS>ATOM
      1  PG       -11.6320   -3.5670    5.1340 P.3   1001  ATP1001     0.5373
      2  O1G      -12.6080   -4.2540    6.0580 O.3   1001  ATP1001    -0.1143
      3  O2G      -10.3680   -4.3470    4.8640 O.3   1001  ATP1001    -0.1143
      4  O3G      -12.2670   -2.9580    3.9080 O.2   1001  ATP1001    -0.2221
      5  PB       -10.2430   -2.4750    7.3140 P.3   1001  ATP1001     0.2277
      6  O1B       -9.1840   -1.3970    7.3230 O.2   1001  ATP1001    -0.5168
      7  O2B       -9.8430   -3.9260    7.4330 O.3   1001  ATP1001    -0.4368
      8  O3B      -11.1380   -2.2950    5.9870 O.3   1001  ATP1001    -0.2258
      9  PA       -10.9880   -1.1900    9.7130 P.3   1001  ATP1001     0.2189
     10  O1A      -10.7880    0.2110    9.1880 O.2   1001  ATP1001    -0.5170
     11  O2A       -9.9350   -1.8300   10.5830 O.3   1001  ATP1001    -0.4371
     12  O3A      -11.3230   -2.1440    8.4610 O.3   1001  ATP1001    -0.2700
     13  O5'      -12.3790   -1.2070   10.5170 O.3   1001  ATP1001    -0.3112
     14  C5'      -12.7960   -0.0440   11.2220 C.3   1001  ATP1001     0.1813
     15  C4'      -14.1450    0.3580   10.6450 C.3   1001  ATP1001     0.1821
     16  O4'      -15.1760   -0.4800   11.1680 O.3   1001  ATP1001    -0.3135
     17  C3'      -14.5220    1.7910   10.9840 C.3   1001  ATP1001     0.2184
     18  O3'      -14.3040    2.6320    9.8480 O.3   1001  ATP1001    -0.2174
     19  C2'      -15.9970    1.7490   11.3310 C.3   1001  ATP1001     0.2570
     20  O2'      -16.7520    2.4550   10.3440 O.3   1001  ATP1001    -0.2130
     21  C1'      -16.3770    0.2760   11.3210 C.3   1001  ATP1001     0.3186
     22  N9       -17.0350   -0.0720   12.6010 N.pl3 1001  ATP1001    -0.1439
     23  C8       -17.0270    0.6800   13.7180 C.3   1001  ATP1001     0.3377
     24  N7       -17.7300    0.0830   14.7120 N.2   1001  ATP1001    -0.2095
     25  C5       -18.2070   -1.0770   14.2250 C.2   1001  ATP1001     0.2526
     26  C6       -19.0280   -2.1940   14.7440 C.2   1001  ATP1001     0.4393
     27  N6       -19.4930   -2.1890   16.0160 N.pl3 1001  ATP1001     0.2180
     28  N1       -19.2980   -3.2170   13.9040 N.2   1001  ATP1001     0.0021
     29  C2       -18.8430   -3.2370   12.6380 C.3   1001  ATP1001     0.5254
     30  N3       -18.0930   -2.2600   12.1010 N.2   1001  ATP1001    -0.0055
     31  C4       -17.7520   -1.1720   12.8300 C.2   1001  ATP1001     0.3518
@<TRIPOS>BOND
     1     4     1    2
     2     3     1    1
     3     1     8    1
     4     1     2    1
     5     8     5    1
     6     5     6    2
     7     5     7    1
     8     5    12    1
     9    12     9    1
    10    10     9    2
    11     9    13    1
    12     9    11    1
    13    18    17    1
    14    20    19    1
    15    13    14    1
    16    15    17    1
    17    15    16    1
    18    15    14    1
    19    17    19    1
    20    16    21    1
    21    21    19    1
    22    21    22    1
    23    30    29    1
    24    30    31    2
    25    22    31    1
    26    22    23    1
    27    29    28    1
    28    31    25    1
    29    23    24    1
    30    28    26    2
    31    25    24    2
    32    25    26    1
    33    26    27    1
