@<TRIPOS>MOLECULE
3efs_BTN_A_1.pdb
 16 17 0 0 0
SMALL
GASTEIGER

@<TRIPOS>ATOM
      1  C11      -11.1330   -3.5340   13.6740 C.2   2001  BTN2001     0.3649
      2  O11      -10.5110   -2.5580   13.2020 O.co2 2001  BTN2001    -0.2457
      3  O12      -12.0360   -4.0550   12.9830 O.co2 2001  BTN2001    -0.2457
      4  C10      -10.8030   -4.0700   15.0500 C.3   2001  BTN2001     0.1141
      5  C9       -11.9540   -3.7650   16.0080 C.3   2001  BTN2001     0.0118
      6  C8       -11.6220   -4.2190   17.4310 C.3   2001  BTN2001     0.0015
      7  C7       -12.7560   -3.8680   18.3950 C.3   2001  BTN2001     0.0129
      8  C2       -12.5550   -4.5300   19.7580 C.3   2001  BTN2001     0.0729
      9  S1       -13.9350   -4.3650   20.6880 S.3   2001  BTN2001    -0.1369
     10  C6       -12.9810   -4.5590   22.2140 C.3   2001  BTN2001     0.0848
     11  C5       -11.5620   -4.0800   21.9930 C.3   2001  BTN2001     0.1509
     12  N1       -11.4070   -2.7260   22.4730 N.2   2001  BTN2001    -0.1859
     13  C3       -11.2830   -1.8690   21.4690 C.1   2001  BTN2001     0.2386
     14  O3       -11.1930   -0.4710   21.6140 O.2   2001  BTN2001    -0.2023
     15  N2       -11.2580   -2.5120   20.3080 N.2   2001  BTN2001    -0.1860
     16  C4       -11.3580   -3.9440   20.4960 C.3   2001  BTN2001     0.1500
@<TRIPOS>BOND
     1     3     1   ar
     2     2     1   ar
     3     1     4    1
     4     4     5    1
     5     5     6    1
     6     6     7    1
     7     7     8    1
     8     8    16    1
     9     8     9    1
    10    15    16    1
    11    15    13    2
    12    16    11    1
    13     9    10    1
    14    13    14    2
    15    13    12    2
    16    11    10    1
    17    11    12    1
