@<TRIPOS>MOLECULE
3eft_3BS_A_1.pdb
 26 27 0 0 0
SMALL
GASTEIGER

@<TRIPOS>ATOM
      1  CAQ       -2.4490    9.4920   12.1110 C.3   300  3BS300      0.0387
      2  CAR       -1.6850   10.7440   12.5470 C.3   300  3BS300      0.0744
      3  CAS       -1.7800   10.9200   14.0640 C.3   300  3BS300      0.0186
      4  CAH       -2.2490   11.9770   11.8380 C.3   300  3BS300      0.0186
      5  NAX       -0.2710   10.5930   12.1730 N.4   300  3BS300     -0.1383
      6  OAY       -0.1700   10.3440   10.7380 O.3   300  3BS300     -0.1181
      7  CAW        0.3310    9.4710   12.9090 C.3   300  3BS300      0.0744
      8  CAV        0.1430    9.7060   14.4100 C.3   300  3BS300      0.0186
      9  CAZ        1.8210    9.4060   12.5700 C.3   300  3BS300      0.0186
     10  CAU       -0.3620    8.1740   12.4870 C.3   300  3BS300      0.0387
     11  CAP       -1.8550    8.2650   12.8060 C.3   300  3BS300      0.0971
     12  NAO       -2.5350    7.0530   12.3270 N.am  300  3BS300     -0.2182
     13  CAN       -3.0170    6.1730   13.2000 C.2   300  3BS300      0.1744
     14  SAT       -2.8450    6.4540   14.8880 S.2   300  3BS300     -0.0152
     15  NAM       -3.6320    5.0760   12.7680 N.am  300  3BS300     -0.1897
     16  CAL       -4.1130    4.1960   13.6420 C.ar  300  3BS300      0.0830
     17  CAF       -5.4070    4.3380   14.1300 C.ar  300  3BS300      0.0742
     18  CAE       -5.9110    3.4200   15.0430 C.ar  300  3BS300      0.0327
     19 CLAG       -6.3910    5.6590   13.6000 Cl    300  3BS300     -0.0808
     20  CAK       -3.3230    3.1360   14.0680 C.ar  300  3BS300      0.0188
     21  CAJ       -3.8260    2.2170   14.9820 C.ar  300  3BS300      0.0214
     22  CAD       -5.1200    2.3590   15.4690 C.ar  300  3BS300      0.1260
     23  SAC       -5.7530    1.2020   16.6190 S.O2  300  3BS300      0.0935
     24  OAI       -7.2520    1.2570   16.6100 O.2   300  3BS300     -0.1503
     25  OAA       -5.2490    1.5340   17.9920 O.2   300  3BS300     -0.1503
     26  NAB       -5.2620   -0.2970   16.2090 N.3   300  3BS300      0.0392
@<TRIPOS>BOND
     1     6     5    1
     2     4     2    1
     3     1     2    1
     4     1    11    1
     5     5     2    1
     6     5     7    1
     7    12    11    1
     8    12    13    1
     9    10    11    1
    10    10     7    1
    11     2     3    1
    12     9     7    1
    13    15    13    1
    14    15    16    1
    15     7     8    1
    16    13    14    2
    17    19    17    1
    18    16    20   ar
    19    16    17   ar
    20    20    21   ar
    21    17    18   ar
    22    21    22   ar
    23    18    22   ar
    24    22    23    1
    25    26    23    1
    26    24    23    2
    27    23    25    2
