@<TRIPOS>MOLECULE
3efv_NAD_A_1.pdb
 44 48 0 0 0
SMALL
GASTEIGER

@<TRIPOS>ATOM
      1  PA        82.7100   41.8900   47.7860 P.3   463  NAD463      0.2189
      2  O1A       82.4210   41.3910   49.1500 O.3   463  NAD463     -0.4371
      3  O2A       82.6890   43.3640   47.7350 O.2   463  NAD463     -0.5170
      4  O5B       81.5840   41.2920   46.8000 O.3   463  NAD463     -0.3112
      5  C5B       81.3610   39.8950   46.6740 C.3   463  NAD463      0.1813
      6  C4B       79.9220   39.7190   46.1970 C.3   463  NAD463      0.1821
      7  O4B       79.0740   40.0980   47.2720 O.3   463  NAD463     -0.3135
      8  C3B       79.5340   40.6250   45.0140 C.3   463  NAD463      0.2184
      9  O3B       78.6370   39.9240   44.1640 O.3   463  NAD463     -0.2174
     10  C2B       78.7680   41.7670   45.6650 C.3   463  NAD463      0.2570
     11  O2B       77.7790   42.3070   44.8280 O.3   463  NAD463     -0.2130
     12  C1B       78.1010   41.0290   46.8180 C.3   463  NAD463      0.3186
     13  N9A       77.6660   41.8690   47.9400 N.pl3 463  NAD463     -0.1439
     14  C8A       78.4710   42.6420   48.7390 C.3   463  NAD463      0.3377
     15  N7A       77.6930   43.2400   49.6800 N.2   463  NAD463     -0.2095
     16  C5A       76.4070   42.8500   49.4910 C.2   463  NAD463      0.2526
     17  C6A       75.2300   43.1540   50.1590 C.2   463  NAD463      0.4393
     18  N6A       75.2750   43.9170   51.2500 N.pl3 463  NAD463      0.2180
     19  N1A       74.0330   42.5920   49.7340 N.2   463  NAD463      0.0021
     20  C2A       74.0090   41.7310   48.6540 C.3   463  NAD463      0.5254
     21  N3A       75.1870   41.4380   47.9930 N.2   463  NAD463     -0.0055
     22  C4A       76.3710   41.9760   48.4110 C.2   463  NAD463      0.3518
     23  O3        84.1170   41.1880   47.3800 O.3   463  NAD463     -0.2703
     24  PN        84.9200   41.3390   45.9780 P.3   463  NAD463      0.2189
     25  O1N       85.5730   42.6960   45.9760 O.3   463  NAD463     -0.4371
     26  O2N       84.0090   40.9580   44.8390 O.2   463  NAD463     -0.5170
     27  O5D       86.0690   40.1900   46.1080 O.3   463  NAD463     -0.3112
     28  C5D       87.2100   40.3400   46.9270 C.3   463  NAD463      0.1813
     29  C4D       87.0480   39.5630   48.2310 C.3   463  NAD463      0.1799
     30  O4D       86.6160   38.2290   47.9620 O.3   463  NAD463     -0.3327
     31  C3D       88.3670   39.4520   49.0000 C.3   463  NAD463      0.2158
     32  O3D       88.1970   39.7440   50.3700 O.3   463  NAD463     -0.2175
     33  C2D       88.7050   37.9810   48.7940 C.3   463  NAD463      0.2309
     34  O2D       89.5710   37.3750   49.7240 O.3   463  NAD463     -0.2158
     35  C1D       87.3300   37.3460   48.8110 C.3   463  NAD463      0.2263
     36  N1N       87.4720   35.9690   48.3230 N.pl3 463  NAD463     -0.2787
     37  C2N       87.3170   34.9050   49.1800 C.3   463  NAD463      0.1244
     38  C3N       87.4840   33.6030   48.6910 C.2   463  NAD463      0.0544
     39  C7N       87.3770   32.3670   49.5370 C.2   463  NAD463      0.2818
     40  O7N       87.5510   32.3560   50.9350 O.2   463  NAD463     -0.2670
     41  N7N       87.1160   31.2600   48.8740 N.am  463  NAD463     -0.0839
     42  C4N       87.8010   33.4110   47.3490 C.2   463  NAD463      0.0033
     43  C5N       87.9570   34.5120   46.5150 C.2   463  NAD463      0.0157
     44  C6N       87.7830   35.7900   47.0010 C.2   463  NAD463      0.0633
@<TRIPOS>BOND
     1     9     8    1
     2    11    10    1
     3    26    24    2
     4     8    10    1
     5     8     6    1
     6    10    12    1
     7    25    24    1
     8    24    27    1
     9    24    23    1
    10    27    28    1
    11     6     5    1
    12     6     7    1
    13    43    44    2
    14    43    42    1
    15     5     4    1
    16     4     1    1
    17    12     7    1
    18    12    13    1
    19    28    29    1
    20    44    36    1
    21    42    38    2
    22    23     1    1
    23     3     1    2
    24     1     2    1
    25    13    22    1
    26    13    14    1
    27    30    29    1
    28    30    35    1
    29    21    22    2
    30    21    20    1
    31    29    31    1
    32    36    35    1
    33    36    37    1
    34    22    16    1
    35    20    19    1
    36    38    37    1
    37    38    39    1
    38    14    15    1
    39    33    35    1
    40    33    31    1
    41    33    34    1
    42    41    39   am
    43    31    32    1
    44    16    15    2
    45    16    17    1
    46    39    40    2
    47    19    17    2
    48    17    18    1
