@<TRIPOS>MOLECULE
3efw_AK8_A_1.pdb
 36 39 0 0 0
SMALL
GASTEIGER

@<TRIPOS>ATOM
      1  N1        64.4400   30.4790    5.0730 N.2   404  AK8404     -0.3362
      2  N3        65.4140   26.0240    6.1320 N.ar  404  AK8404     -0.2098
      3  C4        64.7660   30.2380    2.3830 C.2   404  AK8404      0.1144
      4  C5        65.2660   28.3120    5.5060 C.ar  404  AK8404      0.0841
      5  C6        65.8180   28.6770    6.7320 C.ar  404  AK8404      0.0089
      6  C7        66.1570   27.6860    7.6460 C.ar  404  AK8404      0.0210
      7  C8        65.9400   26.3530    7.3060 C.ar  404  AK8404      0.1021
      8  C10       63.6270   32.9120    6.1860 C.3   404  AK8404      0.1494
      9  C13       65.4780   23.3750    2.5240 C.ar  404  AK8404      0.0198
     10  C15       63.4620   23.0610    3.8030 C.ar  404  AK8404      0.0154
     11  C17       62.3330   24.9370    5.0700 C.3   404  AK8404      0.0343
     12  C20       67.1230   18.0460    3.5800 C.ar  404  AK8404      0.0166
     13  C21       67.8720   16.8930    3.8070 C.ar  404  AK8404      0.0013
     14  C22       67.4390   15.6600    3.3190 C.ar  404  AK8404      0.0039
     15  C24       65.5020   16.7380    2.3730 C.ar  404  AK8404      0.0205
     16  N4        63.6130   32.6240    4.7330 N.pl3 404  AK8404     -0.1602
     17  C1        64.1080   31.4820    4.2410 C.1   404  AK8404      0.1653
     18  N2        64.2750   31.3470    2.9120 N.2   404  AK8404     -0.1686
     19  C3        65.1120   29.1850    3.2220 C.2   404  AK8404      0.0547
     20  C2        64.9300   29.3240    4.6030 C.2   404  AK8404      0.1502
     21  C9        65.0740   26.9530    5.2230 C.ar  404  AK8404      0.2320
     22  O1        64.5270   26.5810    4.0250 O.3   404  AK8404     -0.4363
     23  C11       64.4870   25.2480    3.7090 C.ar  404  AK8404      0.1432
     24  C16       63.4600   24.4100    4.1640 C.ar  404  AK8404      0.0140
     25  C12       65.4860   24.7240    2.8850 C.ar  404  AK8404      0.0386
     26  C14       64.4660   22.5310    2.9850 C.ar  404  AK8404      0.0749
     27  N5        64.4250   21.2210    2.6590 N.am  404  AK8404     -0.1607
     28  C18       65.3660   20.3390    3.0270 C.2   404  AK8404      0.3477
     29  O2        66.3510   20.6870    3.6840 O.2   404  AK8404     -0.2484
     30  N6        65.1640   19.0720    2.6180 N.am  404  AK8404     -0.1607
     31  C19       65.9340   17.9850    2.8520 C.ar  404  AK8404      0.0749
     32  C23       66.2480   15.5700    2.5970 C.ar  404  AK8404      0.0727
     33  C25       65.7870   14.1900    2.0580 C.3   404  AK8404      0.4186
     34  F2        64.4600   14.1080    1.9760 F     404  AK8404     -0.1659
     35  F3        66.2800   13.9880    0.8300 F     404  AK8404     -0.1659
     36  F1        66.2280   13.2300    2.8830 F     404  AK8404     -0.1659
@<TRIPOS>BOND
     1    35    33    1
     2    34    33    1
     3    33    32    1
     4    33    36    1
     5    15    32   ar
     6    15    31   ar
     7     3    18    1
     8     3    19    2
     9     9    25   ar
    10     9    26   ar
    11    32    14   ar
    12    30    31    1
    13    30    28   am
    14    27    26    1
    15    27    28   am
    16    31    12   ar
    17    25    23   ar
    18    18    17    2
    19    26    10   ar
    20    28    29    2
    21    19    20    1
    22    14    13   ar
    23    12    13   ar
    24    23    22    1
    25    23    24   ar
    26    10    24   ar
    27    22    21    1
    28    24    11    1
    29    17    16    1
    30    17     1    2
    31    20     1    2
    32    20     4    1
    33    16     8    1
    34    21     4   ar
    35    21     2   ar
    36     4     5   ar
    37     2     7   ar
    38     5     6   ar
    39     7     6   ar
