@<TRIPOS>MOLECULE
3efx_FUC_D_1.pdb
 10 10 0 0 0
SMALL
GASTEIGER

@<TRIPOS>ATOM
      1  C1        20.9750   13.0920   57.5740 C.3   203  FUC203      0.1776
      2  C2        21.1420   12.4820   58.9690 C.3   203  FUC203      0.2141
      3  C3        19.7600   12.1610   59.5230 C.3   203  FUC203      0.2172
      4  C4        18.9390   11.2910   58.5670 C.3   203  FUC203      0.2116
      5  C5        18.9480   11.9060   57.1670 C.3   203  FUC203      0.1483
      6  C6        18.2060   11.0830   56.1120 C.3   203  FUC203      0.0349
      7  O2        21.7900   13.3940   59.8320 O.3   203  FUC203     -0.2176
      8  O3        19.8430   11.5900   60.8080 O.3   203  FUC203     -0.2175
      9  O4        19.4070    9.9600   58.5410 O.3   203  FUC203     -0.2177
     10  O5        20.2680   12.1910   56.7260 O.3   203  FUC203     -0.3508
@<TRIPOS>BOND
     1     6     5    1
     2    10     5    1
     3    10     1    1
     4     5     4    1
     5     1     2    1
     6     9     4    1
     7     4     3    1
     8     2     3    1
     9     2     7    1
    10     3     8    1
