@<TRIPOS>MOLECULE
3eg5_GNP_A_1.pdb
 32 34 0 0 0
SMALL
GASTEIGER

@<TRIPOS>ATOM
      1  PG       -38.5400   18.9310   -9.8170 P.3   179  GNP179      0.4884
      2  O1G      -38.2270   20.4020   -9.9670 O.3   179  GNP179     -0.1240
      3  O2G      -38.5730   18.4380   -8.3940 O.3   179  GNP179     -0.1240
      4  O3G      -37.5430   18.2520  -10.7300 O.2   179  GNP179     -0.2331
      5  N3B      -40.0040   18.6690  -10.3890 N.3   179  GNP179     -0.0163
      6  PB       -40.7320   17.2550  -10.4500 P.3   179  GNP179      0.4669
      7  O1B      -40.4870   16.6130  -11.7520 O.2   179  GNP179     -0.2351
      8  O2B      -40.3780   16.5300   -9.2100 O.3   179  GNP179     -0.1253
      9  O3A      -42.2400   17.5110  -10.5060 O.3   179  GNP179     -0.2360
     10  PA       -43.2590   17.1920   -9.4130 P.3   179  GNP179      0.2220
     11  O1A      -43.2980   15.7120   -9.2690 O.2   179  GNP179     -0.5170
     12  O2A      -43.0090   17.9620   -8.1710 O.3   179  GNP179     -0.4370
     13  O5'      -44.6440   17.6490  -10.0230 O.3   179  GNP179     -0.3111
     14  C5'      -44.8730   19.0140  -10.3850 C.3   179  GNP179      0.1813
     15  C4'      -46.3520   19.3280  -10.5740 C.3   179  GNP179      0.1799
     16  O4'      -46.9050   18.4110  -11.5500 O.3   179  GNP179     -0.3326
     17  C3'      -47.2230   19.2320   -9.3230 C.3   179  GNP179      0.2158
     18  O3'      -47.9070   20.4560   -9.1210 O.3   179  GNP179     -0.2175
     19  C2'      -48.2210   18.1180   -9.6250 C.3   179  GNP179      0.2310
     20  O2'      -49.5430   18.4500   -9.2520 O.3   179  GNP179     -0.2158
     21  C1'      -48.1750   17.9600  -11.1380 C.3   179  GNP179      0.2293
     22  N9       -48.3130   16.5620  -11.5380 N.pl3 179  GNP179     -0.2354
     23  C8       -47.3930   15.5640  -11.3190 C.3   179  GNP179      0.2246
     24  N7       -47.7620   14.4040  -11.7770 N.2   179  GNP179     -0.2322
     25  C5       -49.0060   14.6380  -12.3370 C.2   179  GNP179      0.2182
     26  C6       -49.8940   13.7390  -12.9810 C.1   179  GNP179      0.2372
     27  O6       -49.7410   12.5270  -13.1930 O.2   179  GNP179     -0.2069
     28  N1       -51.0600   14.3700  -13.4020 N.2   179  GNP179     -0.2485
     29  C2       -51.3210   15.6990  -13.2220 C.1   179  GNP179      0.2531
     30  N2       -52.4930   16.1120  -13.7010 N.pl3 179  GNP179     -0.0226
     31  N3       -50.5060   16.5580  -12.6200 N.2   179  GNP179     -0.3074
     32  C4       -49.3640   15.9630  -12.1990 C.2   179  GNP179      0.2300
@<TRIPOS>BOND
     1    30    29    1
     2    28    29    2
     3    28    26    2
     4    29    31    2
     5    27    26    2
     6    26    25    1
     7    31    32    2
     8    25    32    1
     9    25    24    2
    10    32    22    1
    11    24    23    1
    12     7     6    2
    13    16    21    1
    14    16    15    1
    15    22    23    1
    16    22    21    1
    17    21    19    1
    18     4     1    2
    19    15    14    1
    20    15    17    1
    21     9     6    1
    22     9    10    1
    23     6     5    1
    24     6     8    1
    25     5     1    1
    26    14    13    1
    27    13    10    1
    28     2     1    1
    29     1     3    1
    30    19    17    1
    31    19    20    1
    32    10    11    2
    33    10    12    1
    34    17    18    1
