@<TRIPOS>MOLECULE
3eg9_III_C_1.pdb
 45 45 0 0 0
SMALL
GASTEIGER

@<TRIPOS>ATOM
      1  N        -64.2390  -24.3980   -5.1210 N.3   116  THR116     -0.1203
      2  CA       -65.3160  -24.0820   -4.1340 C.3   116  THR116      0.1994
      3  C        -66.7210  -24.3050   -4.6650 C.2   116  THR116      0.2619
      4  O        -67.1920  -23.5940   -5.5510 O.2   116  THR116     -0.2717
      5  CB       -65.2600  -22.6310   -3.6690 C.3   116  THR116      0.1784
      6  OG1      -64.0090  -22.3830   -3.0190 O.3   116  THR116     -0.2211
      7  CG2      -66.4080  -22.3570   -2.7070 C.3   116  THR116      0.0376
      8  N        -67.4030  -25.2820   -4.0930 N.am  117  THR117     -0.1938
      9  CA       -68.7510  -25.5830   -4.5210 C.3   117  THR117      0.2028
     10  C        -69.7480  -25.2270   -3.4310 C.2   117  THR117      0.2642
     11  O        -69.5000  -25.4590   -2.2440 O.2   117  THR117     -0.2714
     12  CB       -68.9030  -27.0640   -4.8500 C.3   117  THR117      0.1808
     13  OG1      -67.7900  -27.5010   -5.6430 O.3   117  THR117     -0.2208
     14  CG2      -70.1860  -27.2860   -5.6240 C.3   117  THR117      0.0379
     15  N        -70.8770  -24.6630   -3.8380 N.am  118  ILE118     -0.1963
     16  CA       -71.8960  -24.2870   -2.8790 C.3   118  ILE118      0.1712
     17  C        -73.2520  -24.8310   -3.2740 C.2   118  ILE118      0.2458
     18  O        -73.8170  -24.4350   -4.2920 O.2   118  ILE118     -0.2730
     19  CB       -72.0230  -22.7710   -2.7550 C.3   118  ILE118      0.0289
     20  CG1      -70.6590  -22.1530   -2.4750 C.3   118  ILE118      0.0022
     21  CG2      -72.9460  -22.4300   -1.6070 C.3   118  ILE118      0.0023
     22  CD1      -70.7190  -20.6690   -2.3180 C.3   118  ILE118      0.0001
     23  N        -73.7950  -25.7550   -2.4680 N.am  119  PRO119     -0.2716
     24  CA       -75.1030  -26.3360   -2.7650 C.3   119  PRO119      0.1536
     25  C        -76.2220  -25.3870   -2.3400 C.2   119  PRO119      0.2598
     26  O        -76.3220  -25.0130   -1.1720 O.2   119  PRO119     -0.2715
     27  CB       -75.0870  -27.6350   -1.9630 C.3   119  PRO119      0.0310
     28  CG       -74.3160  -27.2490   -0.7440 C.3   119  PRO119      0.0237
     29  CD       -73.1740  -26.4190   -1.3050 C.3   119  PRO119      0.0939
     30  N        -77.0460  -24.9900   -3.3040 N.am  120  MET120     -0.1964
     31  CA       -78.1620  -24.0900   -3.0510 C.3   120  MET120      0.1736
     32  C        -79.3540  -24.9040   -2.5530 C.2   120  MET120      0.2616
     33  O        -80.0140  -25.6010   -3.3250 O.2   120  MET120     -0.2715
     34  CB       -78.5190  -23.3530   -4.3370 C.3   120  MET120      0.0427
     35  CG       -77.3380  -22.6250   -4.9770 C.3   120  MET120      0.0599
     36  SD       -76.8470  -21.1090   -4.1140 S.3   120  MET120     -0.1393
     37  CE       -75.6270  -21.7170   -2.9750 C.3   120  MET120      0.0692
     38  N        -79.6190  -24.7950   -1.2540 N.am  121  ASP121     -0.1971
     39  CA       -80.6960  -25.5280   -0.5880 C.3   121  ASP121      0.1709
     40  C        -82.0560  -24.8320   -0.6600 C.2   121  ASP121      0.2293
     41  O        -82.1380  -23.7570   -1.2880 O.2   121  ASP121     -0.2864
     42  CB       -80.3130  -25.7510    0.8770 C.3   121  ASP121      0.1436
     43  CG       -78.8380  -26.0870    1.0480 C.2   121  ASP121      0.3671
     44  OD1      -78.4120  -27.1660    0.5800 O.co2 121  ASP121     -0.2456
     45  OD2      -78.1000  -25.2660    1.6400 O.co2 121  ASP121     -0.2456
@<TRIPOS>BOND
     1    13    12    1
     2    14    12    1
     3     4     3    2
     4     1     2    1
     5    35    34    1
     6    35    36    1
     7    12     9    1
     8     3     2    1
     9     3     8   am
    10     9     8    1
    11     9    10    1
    12    34    31    1
    13    18    17    2
    14     2     5    1
    15    36    37    1
    16    15    10   am
    17    15    16    1
    18     5     6    1
    19     5     7    1
    20    10    11    2
    21    33    32    2
    22    30    31    1
    23    30    25   am
    24    17    16    1
    25    17    23   am
    26    31    32    1
    27    16    19    1
    28    24    23    1
    29    24    25    1
    30    24    27    1
    31    19    20    1
    32    19    21    1
    33    32    38   am
    34    20    22    1
    35    23    29    1
    36    25    26    2
    37    27    28    1
    38    29    28    1
    39    41    40    2
    40    38    39    1
    41    40    39    1
    42    39    42    1
    43    44    43   ar
    44    42    43    1
    45    43    45   ar
