@<TRIPOS>MOLECULE
3egi_ADP_A_1.pdb
 27 29 0 0 0
SMALL
GASTEIGER

@<TRIPOS>ATOM
      1  PB        50.2890   13.7830   20.6430 P.3     3  ADP3        0.5373
      2  O1B       50.4280   14.9720   21.5080 O.3     3  ADP3       -0.1143
      3  O2B       51.5880   13.2600   20.1480 O.2     3  ADP3       -0.2221
      4  O3B       49.4310   12.7080   21.4270 O.3     3  ADP3       -0.1143
      5  PA        48.1130   15.0520   19.2360 P.3     3  ADP3        0.2231
      6  O1A       48.3690   15.7290   18.0030 O.2     3  ADP3       -0.5169
      7  O2A       47.7220   15.7860   20.4290 O.3     3  ADP3       -0.4370
      8  O3A       49.4620   14.2590   19.3730 O.3     3  ADP3       -0.2261
      9  O5'       47.1180   13.8510   19.1190 O.3     3  ADP3       -0.3111
     10  C5'       46.2350   13.5910   18.0950 C.3     3  ADP3        0.1813
     11  C4'       46.3420   12.1510   17.6910 C.3     3  ADP3        0.1821
     12  O4'       45.5510   12.0560   16.5540 O.3     3  ADP3       -0.3135
     13  C3'       47.7330   11.8680   17.2500 C.3     3  ADP3        0.2184
     14  O3'       48.0310   10.5320   17.5580 O.3     3  ADP3       -0.2174
     15  C2'       47.7150   12.1930   15.7770 C.3     3  ADP3        0.2570
     16  O2'       48.5690   11.3860   15.0260 O.3     3  ADP3       -0.2130
     17  C1'       46.3180   11.8400   15.4130 C.3     3  ADP3        0.3186
     18  N9        45.6810   12.5870   14.3490 N.pl3   3  ADP3       -0.1439
     19  C8        45.8130   13.8570   14.0340 C.3     3  ADP3        0.3377
     20  N7        45.0390   14.1730   13.0170 N.2     3  ADP3       -0.2095
     21  C5        44.3890   13.0870   12.6760 C.2     3  ADP3        0.2526
     22  C6        43.3970   12.7190   11.6700 C.2     3  ADP3        0.4393
     23  N6        42.9500   13.6280   10.8230 N.pl3   3  ADP3        0.2180
     24  N1        42.9520   11.4720   11.6460 N.2     3  ADP3        0.0021
     25  C2        43.4100   10.5770   12.4940 C.3     3  ADP3        0.5254
     26  N3        44.3090   10.8200   13.4260 N.2     3  ADP3       -0.0055
     27  C4        44.8220   12.0340   13.5590 C.2     3  ADP3        0.3518
@<TRIPOS>BOND
     1    23    22    1
     2    24    22    2
     3    24    25    1
     4    22    21    1
     5    25    26    1
     6    21    20    2
     7    21    27    1
     8    20    19    1
     9    26    27    2
    10    27    18    1
    11    19    18    1
    12    18    17    1
    13    16    15    1
    14    17    15    1
    15    17    12    1
    16    15    13    1
    17    12    11    1
    18    13    14    1
    19    13    11    1
    20    11    10    1
    21     6     5    2
    22    10     9    1
    23     9     5    1
    24     5     8    1
    25     5     7    1
    26     8     1    1
    27     3     1    2
    28     1     4    1
    29     1     2    1
