@<TRIPOS>MOLECULE
3egk_M18_H_1.pdb
 28 29 0 0 0
SMALL
GASTEIGER

@<TRIPOS>ATOM
      1  C1        13.9340  -10.4170   20.6290 C.3   601  M18601      0.1359
      2  C2        14.9190  -11.5260   20.8010 C.2   601  M18601      0.3215
      3  O1        15.0840  -12.3190   22.1040 O.2   601  M18601     -0.2497
      4  O2        15.6860  -11.7850   19.6640 O.3   601  M18601     -0.4464
      5  C3        16.4920  -12.9760   19.7510 C.3   601  M18601      0.2280
      6  C4        17.7270  -12.7070   20.6530 C.3   601  M18601      0.1191
      7  C5        18.7180  -11.7070   20.0080 C.3   601  M18601      0.0254
      8  C6        20.1290  -12.2110   20.3770 C.3   601  M18601      0.0233
      9  C7        19.9700  -13.7450   20.3340 C.3   601  M18601      0.0936
     10  N1        18.5810  -13.8930   20.7550 N.am  601  M18601     -0.2760
     11  C8        18.2180  -15.0190   21.4400 C.2   601  M18601      0.2479
     12  C9        19.1740  -16.1940   21.6060 C.3   601  M18601      0.2033
     13  N2        19.9790  -16.0540   22.8170 N.am  601  M18601     -0.1588
     14  C10       19.3760  -16.1830   24.0180 C.2   601  M18601      0.4214
     15  O3        19.7330  -15.2940   24.9400 O.3   601  M18601     -0.4408
     16  C11       20.2410  -14.0690   24.7970 C.3   601  M18601      0.1379
     17  C12       19.9230  -13.3640   26.1210 C.3   601  M18601      0.0437
     18  C13       21.7470  -14.2700   24.6780 C.3   601  M18601      0.0437
     19  C14       19.7880  -13.1950   23.6880 C.3   601  M18601      0.0437
     20  O4        18.5540  -17.0720   24.2370 O.2   601  M18601     -0.2246
     21  O5        17.3360  -14.9830   22.2930 O.2   601  M18601     -0.2729
     22  C15       12.8970  -10.2950   21.7520 C.ar  601  M18601     -0.0103
     23  C16       12.9510   -9.1850   22.6030 C.ar  601  M18601      0.0077
     24  C17       12.0350   -9.0400   23.6520 C.ar  601  M18601      0.0574
     25 CL1        12.1260   -7.6280   24.6940 Cl    601  M18601     -0.0823
     26  C18       11.0170   -9.9820   23.8150 C.ar  601  M18601      0.0114
     27  C19       10.9720  -11.1020   22.9800 C.ar  601  M18601      0.0006
     28  C20       11.9220  -11.2780   21.9620 C.ar  601  M18601     -0.0037
@<TRIPOS>BOND
     1     4     5    1
     2     4     2    1
     3     5     6    1
     4     7     8    1
     5     7     6    1
     6     9     8    1
     7     9    10    1
     8     1     2    1
     9     1    22    1
    10     6    10    1
    11    10    11   am
    12     2     3    2
    13    11    12    1
    14    11    21    2
    15    12    13    1
    16    22    28   ar
    17    22    23   ar
    18    28    27   ar
    19    23    24   ar
    20    13    14   am
    21    27    26   ar
    22    24    26   ar
    23    24    25    1
    24    19    16    1
    25    14    20    2
    26    14    15    1
    27    18    16    1
    28    16    15    1
    29    16    17    1
