@<TRIPOS>MOLECULE
3egt_722_A_1.pdb
 24 24 0 0 0
SMALL
GASTEIGER

@<TRIPOS>ATOM
      1  O1        25.4670  -12.5960    7.8980 O.3   3001  7223001    -0.3568
      2  P1        26.3160  -14.1170    8.0630 P.3   3001  7223001     0.1253
      3  O3        25.1690  -15.4530    8.0760 O.3   3001  7223001    -0.3568
      4  O2        27.7550  -14.2610    7.0480 O.2   3001  7223001    -0.4596
      5  C1        26.9900  -14.0850    9.7600 C.3   3001  7223001     0.1236
      6  P2        25.6350  -13.9070   10.9570 P.3   3001  7223001     0.1253
      7  O4        24.5940  -12.5470   10.4450 O.2   3001  7223001    -0.4596
      8  O5        26.1780  -13.7010   12.6220 O.3   3001  7223001    -0.3568
      9  O6        24.6330  -15.3480   11.0350 O.3   3001  7223001    -0.3568
     10  C2        27.7060  -15.4150    9.9140 C.3   3001  7223001     0.1057
     11  N1        28.3270  -15.6480   11.2230 N.pl3 3001  7223001    -0.2992
     12  C7        28.2790  -16.9100   11.6540 C.3   3001  7223001     0.1556
     13  C6        28.8300  -17.2830   12.8670 C.2   3001  7223001     0.1360
     14  C5        29.4760  -16.3190   13.6510 C.2   3001  7223001     0.0354
     15  C4        29.5330  -15.0090   13.1850 C.2   3001  7223001     0.0186
     16  C3        28.9540  -14.7030   11.9440 C.2   3001  7223001     0.0618
     17  O7        28.7260  -18.5970   13.2270 O.2   3001  7223001    -0.4780
     18  C8        29.3090  -19.0570   14.4480 C.3   3001  7223001     0.2050
     19  C9        28.9900  -20.5180   14.6930 C.3   3001  7223001     0.0473
     20  C10       29.8090  -20.9360   15.9300 C.3   3001  7223001     0.0038
     21  C11       29.3340  -22.2570   16.5040 C.3   3001  7223001     0.0001
     22  C12       29.1570  -23.3240   15.4450 C.3   3001  7223001     0.0000
     23  C13       27.8010  -23.9820   15.6100 C.3   3001  7223001     0.0000
     24  C14       27.8760  -25.4910   15.5730 C.3   3001  7223001     0.0000
@<TRIPOS>BOND
     1     4     2    2
     2     1     2    1
     3     2     3    1
     4     2     5    1
     5     5    10    1
     6     5     6    1
     7    10    11    1
     8     7     6    2
     9     6     9    1
    10     6     8    1
    11    11    12    1
    12    11    16    1
    13    12    13    1
    14    16    15    2
    15    13    17    1
    16    13    14    2
    17    15    14    1
    18    17    18    1
    19    18    19    1
    20    19    20    1
    21    22    23    1
    22    22    21    1
    23    24    23    1
    24    20    21    1
