@<TRIPOS>MOLECULE
3egv_SAH_A_1.pdb
 26 28 0 0 0
SMALL
GASTEIGER

@<TRIPOS>ATOM
      1  N        -48.4880  -35.1780    8.3520 N.3   256  SAH256     -0.1208
      2  CA       -47.1820  -35.8210    7.9730 C.3   256  SAH256      0.1952
      3  CB       -46.1160  -34.8110    7.5650 C.3   256  SAH256      0.0422
      4  CG       -45.5860  -33.9540    8.7350 C.3   256  SAH256      0.0597
      5  SD       -44.1700  -32.9000    8.2170 S.3   256  SAH256     -0.1375
      6  C        -46.6840  -36.6570    9.1280 C.2   256  SAH256      0.3819
      7  O        -47.3390  -36.6140   10.1630 O.co2 256  SAH256     -0.2441
      8  OXT      -45.6470  -37.3420    9.0250 O.co2 256  SAH256     -0.2441
      9  C5'      -44.9290  -31.2410    8.3610 C.3   256  SAH256      0.0899
     10  C4'      -45.5210  -30.6920    7.0650 C.3   256  SAH256      0.1630
     11  O4'      -46.1120  -29.4160    7.3520 O.3   256  SAH256     -0.3153
     12  C3'      -44.4890  -30.4520    5.9350 C.3   256  SAH256      0.2168
     13  O3'      -44.8720  -31.1930    4.7800 O.3   256  SAH256     -0.2175
     14  C2'      -44.5500  -28.9440    5.7050 C.3   256  SAH256      0.2569
     15  O2'      -44.4560  -28.5060    4.3680 O.3   256  SAH256     -0.2130
     16  C1'      -45.9240  -28.5770    6.2470 C.3   256  SAH256      0.3185
     17  N9       -46.0470  -27.2140    6.7840 N.pl3 256  SAH256     -0.1439
     18  C8       -45.1050  -26.4620    7.4690 C.3   256  SAH256      0.3377
     19  N7       -45.6820  -25.2980    7.8400 N.2   256  SAH256     -0.2095
     20  C5       -46.9920  -25.3200    7.4550 C.2   256  SAH256      0.2526
     21  C6       -48.0370  -24.4080    7.5710 C.2   256  SAH256      0.4393
     22  N6       -47.8550  -23.2120    8.1700 N.pl3 256  SAH256      0.2180
     23  N1       -49.2690  -24.7610    7.0630 N.2   256  SAH256      0.0021
     24  C2       -49.4780  -25.9670    6.4210 C.3   256  SAH256      0.5254
     25  N3       -48.4460  -26.8630    6.2820 N.2   256  SAH256     -0.0055
     26  C4       -47.2250  -26.5410    6.7990 C.2   256  SAH256      0.3518
@<TRIPOS>BOND
     1    15    14    1
     2    13    12    1
     3    14    12    1
     4    14    16    1
     5    12    10    1
     6    16    17    1
     7    16    11    1
     8    25    24    1
     9    25    26    2
    10    24    23    1
    11    17    26    1
    12    17    18    1
    13    26    20    1
    14    23    21    2
    15    10    11    1
    16    10     9    1
    17    20    21    1
    18    20    19    2
    19    18    19    1
    20     3     2    1
    21     3     4    1
    22    21    22    1
    23     2     1    1
    24     2     6    1
    25     5     9    1
    26     5     4    1
    27     8     6   ar
    28     6     7   ar
