@<TRIPOS>MOLECULE
3egv_4MM_B_1.pdb
 11 10 0 0 0
SMALL
GASTEIGER

@<TRIPOS>ATOM
      1  CAA      -39.6460  -29.4160   15.8830 C.3     1  4MM1        0.0692
      2  SAI      -38.2030  -29.8490   14.9480 S.3     1  4MM1       -0.1394
      3  CAG      -38.6630  -30.5270   13.3870 C.3     1  4MM1        0.0559
      4  CAH      -39.8940  -31.4190   13.6010 C.3     1  4MM1       -0.0010
      5  CAK      -40.6580  -31.6640   12.2910 C.3     1  4MM1        0.0130
      6  CAJ      -39.7690  -32.4180   11.3420 C.2     1  4MM1        0.1868
      7  NAL      -41.9670  -32.3550   12.4590 N.4     1  4MM1        0.3918
      8  CAB      -41.8650  -33.6260   13.2050 C.3     1  4MM1       -0.0953
      9  CAC      -42.5620  -32.6340   11.1420 C.3     1  4MM1       -0.0953
     10  CAD      -42.9030  -31.4510   13.1410 C.3     1  4MM1       -0.0953
     11  O        -39.3540  -33.5820   11.5290 O.2     1  4MM1       -0.2905
@<TRIPOS>BOND
     1     9     7    1
     2     6    11    2
     3     6     5    1
     4     5     7    1
     5     5     4    1
     6     7    10    1
     7     7     8    1
     8     3     4    1
     9     3     2    1
    10     2     1    1
