@<TRIPOS>MOLECULE
3egw_MD1_A_1.pdb
 47 51 0 0 0
SMALL
GASTEIGER

@<TRIPOS>ATOM
      1  PB      -124.2430  -63.4800  -23.9120 P.3   1245  MD11245     0.2189
      2  O3B     -125.5230  -62.5230  -23.7510 O.3   1245  MD11245    -0.2703
      3  O1B     -124.5920  -64.5800  -24.8360 O.2   1245  MD11245    -0.5170
      4  O2B     -123.0960  -62.6660  -24.2850 O.3   1245  MD11245    -0.4371
      5  O3A     -123.9650  -64.1300  -22.4820 O.3   1245  MD11245    -0.3108
      6  C10     -124.8320  -64.9750  -21.7630 C.3   1245  MD11245     0.1870
      7  C11     -123.9190  -65.4930  -20.6150 C.3   1245  MD11245     0.2107
      8  O11     -123.4510  -64.3300  -19.9180 O.3   1245  MD11245    -0.2150
      9  C12     -124.7280  -66.4260  -19.6260 C.2   1245  MD11245     0.0503
     10  S12     -126.3620  -66.9210  -20.0440 S.3   1245  MD11245    -0.0525
     11  C13     -124.2430  -66.9080  -18.3590 C.2   1245  MD11245     0.0425
     12  S13     -125.3520  -67.8670  -17.4140 S.3   1245  MD11245    -0.0531
     13  C14     -122.8750  -66.6960  -17.6860 C.3   1245  MD11245     0.1588
     14  N15     -123.2230  -65.9330  -16.4740 N.2   1245  MD11245    -0.2437
     15  C16     -122.1800  -65.4980  -15.6610 C.2   1245  MD11245     0.2466
     16  C15     -122.3620  -65.2760  -14.2600 C.1   1245  MD11245     0.2441
     17  O14     -123.4500  -65.4760  -13.7210 O.2   1245  MD11245    -0.2063
     18  N17     -121.2350  -64.8080  -13.5320 N.2   1245  MD11245    -0.2474
     19  C17     -119.9720  -64.5580  -14.1090 C.1   1245  MD11245     0.2608
     20  N16     -118.9750  -64.1150  -13.3420 N.pl3 1245  MD11245    -0.0220
     21  N18     -119.8120  -64.7770  -15.4440 N.2   1245  MD11245    -0.2683
     22  C20     -120.8480  -65.2320  -16.2460 C.1   1245  MD11245     0.1270
     23  N8      -120.6320  -65.4320  -17.6190 N.2   1245  MD11245    -0.2051
     24  C7      -121.7860  -65.9090  -18.4430 C.3   1245  MD11245     0.1666
     25  PA      -125.6830  -60.9570  -23.9060 P.3   1245  MD11245     0.2189
     26  O1A     -124.6950  -60.3340  -23.0230 O.3   1245  MD11245    -0.4371
     27  O2A     -127.1230  -60.6140  -23.7040 O.2   1245  MD11245    -0.5170
     28  O5'     -125.2200  -60.9010  -25.4550 O.3   1245  MD11245    -0.3112
     29  C5'     -126.1500  -60.6020  -26.4770 C.3   1245  MD11245     0.1813
     30  C4'     -125.5130  -59.7160  -27.5080 C.3   1245  MD11245     0.1799
     31  O4'     -126.0550  -60.0650  -28.7820 O.3   1245  MD11245    -0.3326
     32  C1'     -126.7230  -58.9370  -29.3600 C.3   1245  MD11245     0.2293
     33  N9      -127.8900  -59.5090  -30.0460 N.pl3 1245  MD11245    -0.2354
     34  C4      -127.8670  -59.9240  -31.3640 C.2   1245  MD11245     0.2300
     35  N3      -126.7740  -59.8710  -32.2440 N.2   1245  MD11245    -0.3074
     36  C2      -127.0220  -60.3520  -33.4910 C.1   1245  MD11245     0.2531
     37  N2      -126.0920  -60.3710  -34.4310 N.pl3 1245  MD11245    -0.0226
     38  N1      -128.2880  -60.8550  -33.8340 N.2   1245  MD11245    -0.2485
     39  C6      -129.4030  -60.9160  -32.9610 C.1   1245  MD11245     0.2372
     40  O6      -130.4870  -61.3750  -33.3340 O.2   1245  MD11245    -0.2069
     41  C5      -129.1580  -60.4120  -31.6400 C.2   1245  MD11245     0.2182
     42  N7      -129.9770  -60.3060  -30.5290 N.2   1245  MD11245    -0.2322
     43  C8      -129.1900  -59.7720  -29.6190 C.3   1245  MD11245     0.2246
     44  C2'     -127.0380  -57.9880  -28.1760 C.3   1245  MD11245     0.2310
     45  O2'     -127.1560  -56.6020  -28.5140 O.3   1245  MD11245    -0.2158
     46  C3'     -125.8440  -58.2440  -27.2290 C.3   1245  MD11245     0.2158
     47  O3'     -124.7170  -57.4020  -27.4630 O.3   1245  MD11245    -0.2175
@<TRIPOS>BOND
     1    37    36    1
     2    38    36    2
     3    38    39    2
     4    36    35    2
     5    40    39    2
     6    39    41    1
     7    35    34    2
     8    41    34    1
     9    41    42    2
    10    34    33    1
    11    42    43    1
    12    33    43    1
    13    33    32    1
    14    32    31    1
    15    32    44    1
    16    31    30    1
    17    45    44    1
    18    44    46    1
    19    30    46    1
    20    30    29    1
    21    47    46    1
    22    29    28    1
    23    28    25    1
    24     3     1    2
    25     4     1    1
    26     1     2    1
    27     1     5    1
    28    25     2    1
    29    25    27    2
    30    25    26    1
    31     5     6    1
    32     6     7    1
    33     7     8    1
    34     7     9    1
    35    10     9    1
    36     9    11    2
    37    24    13    1
    38    24    23    1
    39    11    13    1
    40    11    12    1
    41    13    14    1
    42    23    22    2
    43    14    15    2
    44    22    15    1
    45    22    21    2
    46    15    16    1
    47    21    19    2
    48    16    17    2
    49    16    18    2
    50    19    18    2
    51    19    20    1
