@<TRIPOS>MOLECULE
3egw_HEM_C_1.pdb
 43 50 0 0 0
SMALL
GASTEIGER

@<TRIPOS>ATOM
      1  CHA     -144.7220  -15.7130  -13.9020 C.2   806  HEM806      0.0000
      2  CHB     -149.0930  -15.9290  -11.8720 C.2   806  HEM806      0.0000
      3  CHC     -149.7650  -11.2830  -13.0720 C.2   806  HEM806      0.0000
      4  CHD     -145.4190  -11.0730  -15.1340 C.2   806  HEM806      0.0000
      5  C1A     -145.8380  -16.1980  -13.2490 C.2   806  HEM806      0.0000
      6  C2A     -146.0490  -17.5500  -12.7220 C.2   806  HEM806      0.0000
      7  C3A     -147.2570  -17.6050  -12.1600 C.2   806  HEM806      0.0000
      8  C4A     -147.8460  -16.2790  -12.3210 C.2   806  HEM806      0.0000
      9  CMA     -147.9860  -18.7910  -11.4500 C.3   806  HEM806      0.0000
     10  CAA     -145.0150  -18.6950  -12.8270 C.3   806  HEM806      0.0000
     11  CBA     -143.9690  -18.6240  -11.6320 C.3   806  HEM806      0.0000
     12  CGA     -143.0870  -19.8680  -11.4580 C.2   806  HEM806      0.0000
     13  O1A     -143.5030  -20.7540  -10.6560 O.co2 806  HEM806      0.0000
     14  O2A     -142.0280  -19.9150  -12.1590 O.co2 806  HEM806      0.0000
     15  C1B     -149.6690  -14.6760  -12.0170 C.ar  806  HEM806      0.0000
     16  C2B     -151.0040  -14.3050  -11.5420 C.ar  806  HEM806      0.0000
     17  C3B     -151.1990  -12.9990  -11.8770 C.ar  806  HEM806      0.0000
     18  C4B     -149.9790  -12.5490  -12.5650 C.ar  806  HEM806      0.0000
     19  CMB     -151.9510  -15.3050  -10.8040 C.3   806  HEM806      0.0000
     20  CAB     -152.4650  -12.0840  -11.6140 C.2   806  HEM806      0.0000
     21  CBB     -153.0530  -11.8780  -10.3860 C.2   806  HEM806      0.0000
     22  C1C     -148.6610  -10.8000  -13.7310 C.2   806  HEM806      0.0000
     23  C2C     -148.4890   -9.4380  -14.2510 C.2   806  HEM806      0.0000
     24  C3C     -147.2670   -9.3830  -14.8380 C.2   806  HEM806      0.0000
     25  C4C     -146.6710  -10.7120  -14.6770 C.2   806  HEM806      0.0000
     26  CMC     -149.5790   -8.3110  -14.1100 C.3   806  HEM806      0.0000
     27  CAC     -146.5090   -8.2140  -15.5690 C.2   806  HEM806      0.0000
     28  CBC     -147.1840   -7.4180  -16.4550 C.2   806  HEM806      0.0000
     29  C1D     -144.8420  -12.3140  -14.9810 C.ar  806  HEM806      0.0000
     30  C2D     -143.5050  -12.6740  -15.4630 C.ar  806  HEM806      0.0000
     31  C3D     -143.3110  -13.9620  -15.1060 C.ar  806  HEM806      0.0000
     32  C4D     -144.5280  -14.4290  -14.4120 C.ar  806  HEM806      0.0000
     33  CMD     -142.5290  -11.7190  -16.2260 C.3   806  HEM806      0.0000
     34  CAD     -142.0850  -14.9140  -15.3110 C.3   806  HEM806      0.0000
     35  CBD     -140.8960  -14.6760  -14.2890 C.3   806  HEM806      0.0000
     36  CGD     -139.6010  -15.3870  -14.6870 C.2   806  HEM806      0.0000
     37  O1D     -139.3110  -16.4380  -14.0250 O.co2 806  HEM806      0.0000
     38  O2D     -138.9420  -14.8390  -15.6400 O.co2 806  HEM806      0.0000
     39  NA      -146.9580  -15.4420  -12.9930 N.2   806  HEM806      0.0000
     40  NB      -149.0630  -13.5920  -12.6390 N.ar  806  HEM806      0.0000
     41  NC      -147.5350  -11.5630  -13.9970 N.2   806  HEM806      0.0000
     42  ND      -145.4330  -13.4100  -14.3440 N.ar  806  HEM806      0.0000
     43 FE       -147.2280  -13.5310  -13.4850 Fe    806  HEM806      0.0000
@<TRIPOS>BOND
     1    28    27    2
     2    33    30    1
     3    38    36   ar
     4    27    24    1
     5    30    31   ar
     6    30    29   ar
     7    34    31    1
     8    34    35    1
     9     4    29    2
    10     4    25    1
    11    31    32   ar
    12    29    42   ar
    13    24    25    1
    14    24    23    2
    15    36    35    1
    16    36    37   ar
    17    25    41    2
    18    32    42   ar
    19    32     1    2
    20    42    43    1
    21    23    26    1
    22    23    22    1
    23    41    22    1
    24    41    43    1
    25     1     5    1
    26    22     3    2
    27    43    39    1
    28    43    40    1
    29     5    39    2
    30     5     6    1
    31     3    18    1
    32    39     8    1
    33    10     6    1
    34    10    11    1
    35     6     7    2
    36    40    18   ar
    37    40    15   ar
    38    18    17   ar
    39     8     7    1
    40     8     2    2
    41     7     9    1
    42    14    12   ar
    43    15     2    1
    44    15    16   ar
    45    17    20    1
    46    17    16   ar
    47    11    12    1
    48    20    21    2
    49    16    19    1
    50    12    13   ar
