@<TRIPOS>MOLECULE
3egw_MGD_A_1.pdb
 47 52 0 0 0
SMALL
GASTEIGER

@<TRIPOS>ATOM
      1  PB      -128.6760  -66.3840  -10.1190 P.3   1246  MGD1246     0.2189
      2  O1B     -129.1850  -65.0460  -10.4150 O.2   1246  MGD1246    -0.5170
      3  O2B     -127.2150  -66.6080  -10.3190 O.3   1246  MGD1246    -0.4371
      4  O3B     -129.4220  -67.3300  -11.0780 O.3   1246  MGD1246    -0.2703
      5  O3A     -130.7590  -66.8860  -12.8220 O.3   1246  MGD1246    -0.3109
      6  PA      -130.8860  -67.7560  -11.5230 P.3   1246  MGD1246     0.2189
      7  O1A     -130.8850  -69.2120  -11.8580 O.2   1246  MGD1246    -0.5170
      8  O2A     -131.9950  -67.1200  -10.7780 O.3   1246  MGD1246    -0.4371
      9  O5'     -129.0690  -66.7840   -8.6280 O.3   1246  MGD1246    -0.3112
     10  C5'     -130.3740  -66.5770   -8.1140 C.3   1246  MGD1246     0.1813
     11  C4'     -130.3740  -66.1660   -6.6780 C.3   1246  MGD1246     0.1799
     12  O4'     -129.9390  -67.1840   -5.8040 O.3   1246  MGD1246    -0.3326
     13  C3'     -129.4950  -64.9630   -6.3900 C.3   1246  MGD1246     0.2158
     14  O3'     -130.1780  -63.7860   -6.8370 O.3   1246  MGD1246    -0.2175
     15  C2'     -129.3530  -65.0740   -4.8930 C.3   1246  MGD1246     0.2310
     16  O2'     -130.4520  -64.4760   -4.1710 O.3   1246  MGD1246    -0.2158
     17  C1'     -129.3080  -66.5850   -4.6740 C.3   1246  MGD1246     0.2293
     18  N9      -127.9120  -67.1180   -4.4590 N.pl3 1246  MGD1246    -0.2354
     19  C8      -126.6490  -66.6380   -4.8170 C.3   1246  MGD1246     0.2246
     20  N7      -125.6640  -67.4260   -4.4300 N.2   1246  MGD1246    -0.2322
     21  C5      -126.2970  -68.4830   -3.7830 C.2   1246  MGD1246     0.2182
     22  C6      -125.7940  -69.6800   -3.1280 C.1   1246  MGD1246     0.2372
     23  O6      -124.5750  -69.9490   -3.0540 O.2   1246  MGD1246    -0.2069
     24  N1      -126.7780  -70.5340   -2.5680 N.2   1246  MGD1246    -0.2485
     25  C2      -128.1560  -70.2730   -2.6250 C.1   1246  MGD1246     0.2531
     26  N2      -129.0250  -71.1210   -2.0690 N.pl3 1246  MGD1246    -0.0226
     27  N3      -128.6030  -69.1500   -3.2480 N.2   1246  MGD1246    -0.3074
     28  C4      -127.6610  -68.3020   -3.7980 C.2   1246  MGD1246     0.2300
     29  C10     -129.7760  -67.1200  -13.8430 C.3   1246  MGD1246     0.1837
     30  C11     -130.5180  -67.2310  -15.1370 C.3   1246  MGD1246     0.1762
     31  O11     -131.4510  -66.1110  -15.3100 O.3   1246  MGD1246    -0.3271
     32  C12     -129.6240  -67.4700  -16.4090 C.2   1246  MGD1246     0.0473
     33  S12     -128.2260  -68.5210  -16.4180 S.3   1246  MGD1246    -0.0526
     34  C13     -129.9530  -66.8110  -17.5920 C.2   1246  MGD1246     0.0449
     35  S13     -129.0130  -67.0650  -19.0160 S.3   1246  MGD1246    -0.0530
     36  C14     -131.1100  -65.8420  -17.6560 C.3   1246  MGD1246     0.1850
     37  N15     -130.4990  -64.4800  -17.4880 N.2   1246  MGD1246    -0.2411
     38  C16     -131.2890  -63.4510  -16.9300 C.2   1246  MGD1246     0.2467
     39  C17     -130.7620  -62.1110  -16.7500 C.1   1246  MGD1246     0.2441
     40  O17     -129.6020  -61.8040  -17.0680 O.2   1246  MGD1246    -0.2063
     41  N18     -131.6450  -61.1540  -16.1860 N.2   1246  MGD1246    -0.2474
     42  C19     -132.9660  -61.4630  -15.8110 C.1   1246  MGD1246     0.2608
     43  N19     -133.7520  -60.5480  -15.2960 N.pl3 1246  MGD1246    -0.0220
     44  N20     -133.4360  -62.7250  -15.9830 N.2   1246  MGD1246    -0.2682
     45  C21     -132.6480  -63.7340  -16.5280 C.1   1246  MGD1246     0.1293
     46  N22     -133.1570  -65.0370  -16.6930 N.2   1246  MGD1246    -0.1763
     47  C23     -132.1530  -66.1280  -16.5520 C.3   1246  MGD1246     0.2573
@<TRIPOS>BOND
     1    35    34    1
     2    36    34    1
     3    36    37    1
     4    36    47    1
     5    34    32    2
     6    37    38    2
     7    40    39    2
     8    38    39    1
     9    38    45    1
    10    39    41    2
    11    46    47    1
    12    46    45    2
    13    47    31    1
    14    45    44    2
    15    33    32    1
    16    32    30    1
    17    41    42    2
    18    44    42    2
    19    42    43    1
    20    31    30    1
    21    30    29    1
    22    29     5    1
    23     5     6    1
    24     7     6    2
    25     6     4    1
    26     6     8    1
    27     4     1    1
    28     2     1    2
    29     3     1    1
    30     1     9    1
    31     9    10    1
    32    10    11    1
    33    14    13    1
    34    11    13    1
    35    11    12    1
    36    13    15    1
    37    12    17    1
    38    15    17    1
    39    15    16    1
    40    19    18    1
    41    19    20    1
    42    17    18    1
    43    18    28    1
    44    20    21    2
    45    28    21    1
    46    28    27    2
    47    21    22    1
    48    27    25    2
    49    22    23    2
    50    22    24    2
    51    25    24    2
    52    25    26    1
