@<TRIPOS>MOLECULE
3egx_III_D_1.pdb
 45 44 0 0 0
SMALL
GASTEIGER

@<TRIPOS>ATOM
      1  N         31.0740   64.7340   45.9440 N.3    27  ALA27      -0.1231
      2  CA        32.1240   65.7330   46.3490 C.3    27  ALA27       0.1694
      3  C         31.6440   66.4640   47.6010 C.2    27  ALA27       0.2592
      4  O         32.2790   67.4470   48.0500 O.2    27  ALA27      -0.2718
      5  CB        32.3930   66.7150   45.2540 C.3    27  ALA27       0.0304
      6  N         30.4870   65.9720   48.0910 N.am   28  CYS28      -0.1956
      7  CA        29.7990   66.3660   49.3470 C.3    28  CYS28       0.1843
      8  C         30.1960   65.2080   50.2740 C.2    28  CYS28       0.2625
      9  O         30.2730   65.3730   51.4960 O.2    28  CYS28      -0.2714
     10  CB        28.2480   66.4040   49.2410 C.3    28  CYS28       0.0997
     11  SG        27.2610   65.8180   50.7140 S.3    28  CYS28      -0.0797
     12  N         30.4870   64.0460   49.6890 N.am   29  GLU29      -0.1963
     13  CA        30.9200   62.9210   50.4900 C.3    29  GLU29       0.1733
     14  C         32.4110   63.1190   50.7370 C.2    29  GLU29       0.2616
     15  O         32.8370   63.1910   51.8780 O.2    29  GLU29      -0.2715
     16  CB        30.6650   61.5970   49.7630 C.3    29  GLU29       0.0429
     17  CG        30.6410   60.3970   50.7020 C.3    29  GLU29       0.1163
     18  CD        32.0210   59.8520   50.9380 C.2    29  GLU29       0.3649
     19  OE1       32.5780   59.2890   49.9770 O.co2  29  GLU29      -0.2457
     20  OE2       32.5480   60.0040   52.0580 O.co2  29  GLU29      -0.2457
     21  N         33.1930   63.2250   49.6590 N.am   30  GLU30      -0.1963
     22  CA        34.6470   63.4010   49.7660 C.3    30  GLU30       0.1733
     23  C         35.0040   64.7470   50.3700 C.2    30  GLU30       0.2616
     24  O         36.0820   64.8950   50.9280 O.2    30  GLU30      -0.2715
     25  CB        35.3640   63.2690   48.4020 C.3    30  GLU30       0.0429
     26  CG        35.4370   61.8500   47.7850 C.3    30  GLU30       0.1163
     27  CD        36.6910   61.6370   46.9180 C.2    30  GLU30       0.3649
     28  OE1       36.9260   62.4860   46.0250 O.co2  30  GLU30      -0.2457
     29  OE2       37.4300   60.6330   47.1250 O.co2  30  GLU30      -0.2457
     30  N         34.1140   65.7310   50.2430 N.am   31  GLU31      -0.1963
     31  CA        34.3370   67.0650   50.8180 C.3    31  GLU31       0.1733
     32  C         35.8190   67.5180   50.7580 C.2    31  GLU31       0.2617
     33  O         36.3040   68.2220   51.6550 O.2    31  GLU31      -0.2715
     34  CB        33.8240   67.0500   52.2710 C.3    31  GLU31       0.0429
     35  CG        33.7730   68.3850   52.9790 C.3    31  GLU31       0.1163
     36  CD        32.8970   69.4010   52.2660 C.2    31  GLU31       0.3649
     37  OE1       32.0760   69.0030   51.4110 O.co2  31  GLU31      -0.2457
     38  OE2       33.0250   70.6080   52.5680 O.co2  31  GLU31      -0.2457
     39  N         36.5210   67.1270   49.6900 N.am   32  ASN32      -0.1942
     40  CA        37.9410   67.4580   49.5110 C.3    32  ASN32       0.1978
     41  C         38.2320   68.8710   48.9920 C.2    32  ASN32       0.3842
     42  O         37.2700   69.5540   48.5640 O.co2  32  ASN32      -0.2437
     43  CB        38.5870   66.4580   48.5580 C.3    32  ASN32       0.0333
     44  CG        38.2760   65.0140   48.8610 C.3    32  ASN32       0.0024
     45  OXT       39.4280   69.2670   49.0050 O.co2  32  ASN32      -0.2437
@<TRIPOS>BOND
     1     5     2    1
     2     1     2    1
     3    28    27   ar
     4     2     3    1
     5    27    29   ar
     6    27    26    1
     7     3     4    2
     8     3     6   am
     9    26    25    1
    10     6     7    1
    11    25    22    1
    12    43    44    1
    13    43    40    1
    14    42    41   ar
    15    41    45   ar
    16    41    40    1
    17    10     7    1
    18    10    11    1
    19     7     8    1
    20    40    39    1
    21    21    22    1
    22    21    14   am
    23    12     8   am
    24    12    13    1
    25    39    32   am
    26    16    13    1
    27    16    17    1
    28    22    23    1
    29    19    18   ar
    30    30    23   am
    31    30    31    1
    32     8     9    2
    33    23    24    2
    34    13    14    1
    35    17    18    1
    36    14    15    2
    37    32    31    1
    38    32    33    2
    39    31    34    1
    40    18    20   ar
    41    37    36   ar
    42    36    38   ar
    43    36    35    1
    44    34    35    1
