@<TRIPOS>MOLECULE
3eh3_HEM_A_1.pdb
 43 50 0 0 0
SMALL
GASTEIGER

@<TRIPOS>ATOM
      1  CHA      -39.9810   19.7780   -5.2210 C.2   800  HEM800      0.0000
      2  CHB      -43.7750   17.6540   -3.3250 C.2   800  HEM800      0.0000
      3  CHC      -45.9780   22.0450   -3.2500 C.2   800  HEM800      0.0000
      4  CHD      -41.5770   24.2520   -3.9980 C.2   800  HEM800      0.0000
      5  C1A      -40.7340   18.7260   -4.6720 C.2   800  HEM800      0.0000
      6  C2A      -40.4300   17.3010   -4.4300 C.2   800  HEM800      0.0000
      7  C3A      -41.5250   16.7640   -3.8910 C.2   800  HEM800      0.0000
      8  C4A      -42.5200   17.7880   -3.8040 C.2   800  HEM800      0.0000
      9  CMA      -41.7440   15.3120   -3.4300 C.3   800  HEM800      0.0000
     10  CAA      -39.1160   16.5480   -4.6890 C.3   800  HEM800      0.0000
     11  CBA      -38.8300   16.5850   -6.1760 C.3   800  HEM800      0.0000
     12  CGA      -37.6040   15.7340   -6.2290 C.2   800  HEM800      0.0000
     13  O1A      -37.7520   14.8060   -7.0770 O.co2 800  HEM800      0.0000
     14  O2A      -36.5740   15.9930   -5.4550 O.co2 800  HEM800      0.0000
     15  C1B      -44.6370   18.7000   -3.2770 C.ar  800  HEM800      0.0000
     16  C2B      -46.0810   18.5030   -3.0590 C.ar  800  HEM800      0.0000
     17  C3B      -46.6780   19.7110   -3.0580 C.ar  800  HEM800      0.0000
     18  C4B      -45.6400   20.6830   -3.2770 C.ar  800  HEM800      0.0000
     19  CMB      -46.7890   17.0930   -2.8600 C.3   800  HEM800      0.0000
     20  CAB      -48.2110   19.9560   -2.8250 C.2   800  HEM800      0.0000
     21  CBB      -49.0230   18.9190   -2.4850 C.2   800  HEM800      0.0000
     22  C1C      -44.9340   22.9930   -3.3390 C.2   800  HEM800      0.0000
     23  C2C      -45.0940   24.4320   -3.1060 C.2   800  HEM800      0.0000
     24  C3C      -43.9160   24.9980   -3.3350 C.2   800  HEM800      0.0000
     25  C4C      -42.9040   23.9840   -3.6830 C.2   800  HEM800      0.0000
     26  CMC      -46.3610   25.2500   -2.7100 C.3   800  HEM800      0.0000
     27  CAC      -43.6300   26.5330   -3.2500 C.2   800  HEM800      0.0000
     28  CBC      -43.9330   27.2930   -2.1950 C.2   800  HEM800      0.0000
     29  C1D      -40.7220   23.2840   -4.4910 C.ar  800  HEM800      0.0000
     30  C2D      -39.3970   23.5550   -5.0640 C.ar  800  HEM800      0.0000
     31  C3D      -38.8490   22.1220   -5.4610 C.ar  800  HEM800      0.0000
     32  C4D      -39.9440   21.1760   -5.0750 C.ar  800  HEM800      0.0000
     33  CMD      -38.7160   24.9640   -5.2510 C.3   800  HEM800      0.0000
     34  CAD      -37.4590   21.7910   -6.0900 C.3   800  HEM800      0.0000
     35  CBD      -37.4250   20.7650   -7.2220 C.3   800  HEM800      0.0000
     36  CGD      -36.1650   21.0550   -8.0270 C.2   800  HEM800      0.0000
     37  O1D      -36.1520   21.9050   -9.0420 O.co2 800  HEM800      0.0000
     38  O2D      -35.2070   20.3510   -7.5310 O.co2 800  HEM800      0.0000
     39  NA       -42.0050   18.9000   -4.3250 N.2   800  HEM800      0.0000
     40  NB       -44.3320   20.0520   -3.4320 N.ar  800  HEM800      0.0000
     41  NC       -43.5290   22.6830   -3.6820 N.2   800  HEM800      0.0000
     42  ND       -40.9720   21.9210   -4.5590 N.ar  800  HEM800      0.0000
     43 FE        -42.7220   20.8530   -4.0130 Fe    800  HEM800      0.0000
@<TRIPOS>BOND
     1    37    36   ar
     2    36    38   ar
     3    36    35    1
     4    35    34    1
     5    13    12   ar
     6    12    11    1
     7    12    14   ar
     8    11    10    1
     9    34    31    1
    10    31    32   ar
    11    31    30   ar
    12    33    30    1
    13     1    32    2
    14     1     5    1
    15    32    42   ar
    16    30    29   ar
    17    10     6    1
    18     5     6    1
    19     5    39    2
    20    42    29   ar
    21    42    43    1
    22    29     4    2
    23     6     7    2
    24    39    43    1
    25    39     8    1
    26    43    41    1
    27    43    40    1
    28     4    25    1
    29     7     8    1
    30     7     9    1
    31     8     2    2
    32    25    41    2
    33    25    24    1
    34    41    22    1
    35    40    18   ar
    36    40    15   ar
    37    22     3    2
    38    22    23    1
    39    24    27    1
    40    24    23    2
    41     2    15    1
    42    18     3    1
    43    18    17   ar
    44    15    16   ar
    45    27    28    2
    46    23    26    1
    47    16    17   ar
    48    16    19    1
    49    17    20    1
    50    20    21    2
