@<TRIPOS>MOLECULE
3eh4_HEM_A_1.pdb
 43 50 0 0 0
SMALL
GASTEIGER

@<TRIPOS>ATOM
      1  CHA      -40.8480   19.8780    4.6260 C.2   800  HEM800      0.0000
      2  CHB      -42.8070   15.9060    2.9430 C.2   800  HEM800      0.0000
      3  CHC      -38.4130   13.8460    2.7670 C.2   800  HEM800      0.0000
      4  CHD      -36.2700   18.1600    3.7210 C.2   800  HEM800      0.0000
      5  C1A      -41.7720   18.9870    4.1320 C.ar  800  HEM800      0.0000
      6  C2A      -43.1710   19.2740    3.8940 C.ar  800  HEM800      0.0000
      7  C3A      -43.7210   18.1760    3.4210 C.ar  800  HEM800      0.0000
      8  C4A      -42.6670   17.1630    3.3690 C.ar  800  HEM800      0.0000
      9  CMA      -45.2090   17.9980    2.9680 C.3   800  HEM800      0.0000
     10  CAA      -43.9050   20.5900    4.0900 C.3   800  HEM800      0.0000
     11  CBA      -44.5430   20.7160    5.4890 C.3   800  HEM800      0.0000
     12  CGA      -44.8960   22.1640    5.8330 C.2   800  HEM800      0.0000
     13  O1A      -45.7640   22.2940    6.7810 O.co2 800  HEM800      0.0000
     14  O2A      -44.3510   23.1480    5.1670 O.co2 800  HEM800      0.0000
     15  C1B      -41.7700   15.0450    2.8510 C.2   800  HEM800      0.0000
     16  C2B      -41.9720   13.6170    2.5650 C.2   800  HEM800      0.0000
     17  C3B      -40.7230   13.0200    2.5340 C.2   800  HEM800      0.0000
     18  C4B      -39.7480   14.0590    2.7760 C.2   800  HEM800      0.0000
     19  CMB      -43.4110   13.0020    2.3850 C.3   800  HEM800      0.0000
     20  CAB      -40.3530   11.5140    2.3150 C.3   800  HEM800      0.0000
     21  CBB      -41.2680   10.4820    2.5820 C.3   800  HEM800      0.0000
     22  C1C      -37.5250   14.9090    2.9490 C.ar  800  HEM800      0.0000
     23  C2C      -36.0620   14.7190    2.8150 C.ar  800  HEM800      0.0000
     24  C3C      -35.3920   15.8440    3.0680 C.ar  800  HEM800      0.0000
     25  C4C      -36.4460   16.8470    3.3750 C.ar  800  HEM800      0.0000
     26  CMC      -35.3420   13.4290    2.3940 C.3   800  HEM800      0.0000
     27  CAC      -33.8470   15.7080    2.9600 C.2   800  HEM800      0.0000
     28  CBC      -32.8430   16.5400    2.6170 C.2   800  HEM800      0.0000
     29  C1D      -37.3570   18.9490    4.1170 C.2   800  HEM800      0.0000
     30  C2D      -37.1890   20.3000    4.6690 C.2   800  HEM800      0.0000
     31  C3D      -38.5920   20.8170    4.9480 C.2   800  HEM800      0.0000
     32  C4D      -39.4800   19.7380    4.5400 C.2   800  HEM800      0.0000
     33  CMD      -35.9310   21.1610    4.9510 C.3   800  HEM800      0.0000
     34  CAD      -38.8520   22.2330    5.5230 C.3   800  HEM800      0.0000
     35  CBD      -39.5370   22.2080    6.9050 C.3   800  HEM800      0.0000
     36  CGD      -39.5770   23.6380    7.3710 C.2   800  HEM800      0.0000
     37  O1D      -39.0860   23.9030    8.5130 O.co2 800  HEM800      0.0000
     38  O2D      -40.0730   24.5000    6.5730 O.co2 800  HEM800      0.0000
     39  NA       -41.4820   17.6510    3.8060 N.ar  800  HEM800      0.0000
     40  NB       -40.4380   15.3000    2.9860 N.2   800  HEM800      0.0000
     41  NC       -37.7430   16.2810    3.3040 N.ar  800  HEM800      0.0000
     42  ND       -38.7350   18.6260    4.0490 N.2   800  HEM800      0.0000
     43 FE        -39.7960   17.0430    3.4840 Fe    800  HEM800      0.0000
@<TRIPOS>BOND
     1    20    17    1
     2    20    21    1
     3    19    16    1
     4    26    23    1
     5    17    16    2
     6    17    18    1
     7    16    15    1
     8    28    27    2
     9     3    18    2
    10     3    22    1
    11    18    40    1
    12    23    22   ar
    13    23    24   ar
    14    15     2    1
    15    15    40    2
    16     2     8    2
    17    22    41   ar
    18    27    24    1
    19     9     7    1
    20    40    43    1
    21    24    25   ar
    22    41    25   ar
    23    41    43    1
    24     8     7   ar
    25     8    39   ar
    26    25     4    1
    27     7     6   ar
    28    43    39    1
    29    43    42    1
    30     4    29    2
    31    39     5   ar
    32     6    10    1
    33     6     5   ar
    34    42    29    1
    35    42    32    2
    36    10    11    1
    37    29    30    1
    38     5     1    2
    39    32     1    1
    40    32    31    1
    41    30    31    2
    42    30    33    1
    43    31    34    1
    44    14    12   ar
    45    11    12    1
    46    34    35    1
    47    12    13   ar
    48    38    36   ar
    49    35    36    1
    50    36    37   ar
