@<TRIPOS>MOLECULE
3eh5_HEM_A_1.pdb
 43 50 0 0 0
SMALL
GASTEIGER

@<TRIPOS>ATOM
      1  CHA      -37.9410   18.9090    3.9830 C.2   800  HEM800      0.0000
      2  CHB      -40.2080   14.9450    2.1830 C.2   800  HEM800      0.0000
      3  CHC      -35.9310   12.5900    1.9620 C.2   800  HEM800      0.0000
      4  CHD      -33.5700   16.7690    3.0160 C.2   800  HEM800      0.0000
      5  C1A      -38.9120   18.0650    3.4330 C.ar  800  HEM800      0.0000
      6  C2A      -40.3030   18.4330    3.1240 C.ar  800  HEM800      0.0000
      7  C3A      -40.8990   17.3100    2.6290 C.ar  800  HEM800      0.0000
      8  C4A      -39.9350   16.2520    2.6110 C.ar  800  HEM800      0.0000
      9  CMA      -42.3100   17.0120    2.1010 C.3   800  HEM800      0.0000
     10  CAA      -40.8400   19.8880    3.3550 C.3   800  HEM800      0.0000
     11  CBA      -41.4760   20.0690    4.7410 C.3   800  HEM800      0.0000
     12  CGA      -41.4520   21.5070    5.2690 C.2   800  HEM800      0.0000
     13  O1A      -42.1280   21.8210    6.3080 O.co2 800  HEM800      0.0000
     14  O2A      -40.7260   22.3270    4.6420 O.co2 800  HEM800      0.0000
     15  C1B      -39.2630   13.9090    2.0690 C.2   800  HEM800      0.0000
     16  C2B      -39.5480   12.5110    1.7860 C.2   800  HEM800      0.0000
     17  C3B      -38.3300   11.9100    1.7170 C.2   800  HEM800      0.0000
     18  C4B      -37.2670   12.8640    1.9920 C.2   800  HEM800      0.0000
     19  CMB      -40.9660   11.8110    1.5400 C.3   800  HEM800      0.0000
     20  CAB      -38.0470   10.4140    1.4080 C.2   800  HEM800      0.0000
     21  CBB      -37.2800    9.6710    2.2270 C.2   800  HEM800      0.0000
     22  C1C      -34.9670   13.5810    2.1750 C.ar  800  HEM800      0.0000
     23  C2C      -33.5330   13.3360    2.0680 C.ar  800  HEM800      0.0000
     24  C3C      -32.9110   14.4910    2.3410 C.ar  800  HEM800      0.0000
     25  C4C      -33.9080   15.5010    2.6290 C.ar  800  HEM800      0.0000
     26  CMC      -32.9290   11.9440    1.6560 C.3   800  HEM800      0.0000
     27  CAC      -31.4150   14.8660    2.3720 C.2   800  HEM800      0.0000
     28  CBC      -30.3930   13.9820    2.3490 C.2   800  HEM800      0.0000
     29  C1D      -34.5220   17.6460    3.4800 C.2   800  HEM800      0.0000
     30  C2D      -34.2360   18.9430    4.0840 C.2   800  HEM800      0.0000
     31  C3D      -35.6150   19.6090    4.3690 C.2   800  HEM800      0.0000
     32  C4D      -36.5780   18.6470    3.9220 C.2   800  HEM800      0.0000
     33  CMD      -32.8470   19.5400    4.3740 C.3   800  HEM800      0.0000
     34  CAD      -36.0000   20.9630    4.9660 C.3   800  HEM800      0.0000
     35  CBD      -35.5160   21.1750    6.3960 C.3   800  HEM800      0.0000
     36  CGD      -36.0010   22.5040    6.9150 C.2   800  HEM800      0.0000
     37  O1D      -35.6060   22.8600    8.0300 O.co2 800  HEM800      0.0000
     38  O2D      -36.7490   23.2360    6.2440 O.co2 800  HEM800      0.0000
     39  NA       -38.7240   16.7050    3.1090 N.ar  800  HEM800      0.0000
     40  NB       -37.8640   14.1180    2.2280 N.2   800  HEM800      0.0000
     41  NC       -35.1860   14.9110    2.5370 N.ar  800  HEM800      0.0000
     42  ND       -35.8860   17.4960    3.4120 N.2   800  HEM800      0.0000
     43 FE        -36.8190   15.8210    2.9680 Fe    800  HEM800      0.0000
@<TRIPOS>BOND
     1    20    17    1
     2    20    21    2
     3    19    16    1
     4    26    23    1
     5    17    16    2
     6    17    18    1
     7    16    15    1
     8     3    18    2
     9     3    22    1
    10    18    40    1
    11    23    22   ar
    12    23    24   ar
    13    15     2    1
    14    15    40    2
    15     9     7    1
    16    22    41   ar
    17     2     8    2
    18    40    43    1
    19    24    27    1
    20    24    25   ar
    21    28    27    2
    22    41    25   ar
    23    41    43    1
    24     8     7   ar
    25     8    39   ar
    26     7     6   ar
    27    25     4    1
    28    43    39    1
    29    43    42    1
    30     4    29    2
    31    39     5   ar
    32     6    10    1
    33     6     5   ar
    34    10    11    1
    35    42    29    1
    36    42    32    2
    37     5     1    2
    38    29    30    1
    39    32     1    1
    40    32    31    1
    41    30    31    2
    42    30    33    1
    43    31    34    1
    44    14    12   ar
    45    11    12    1
    46    34    35    1
    47    12    13   ar
    48    38    36   ar
    49    35    36    1
    50    36    37   ar
