@<TRIPOS>MOLECULE
3eh9_ADP_A_1.pdb
 27 29 0 0 0
SMALL
GASTEIGER

@<TRIPOS>ATOM
      1  PB       -18.4830   -2.0610  -10.8770 P.3     1  ADP1        0.5373
      2  O1B      -17.5910   -1.4420  -11.9210 O.2     1  ADP1       -0.2221
      3  O2B      -19.2070   -3.2940  -11.3580 O.3     1  ADP1       -0.1143
      4  O3B      -17.7970   -2.2910   -9.5670 O.3     1  ADP1       -0.1143
      5  PA       -19.9290    0.4710  -11.0680 P.3     1  ADP1        0.2231
      6  O1A      -18.9190    0.6950  -12.1780 O.2     1  ADP1       -0.5169
      7  O2A      -19.9060    1.3880   -9.8630 O.3     1  ADP1       -0.4370
      8  O3A      -19.7560   -1.0670  -10.5670 O.3     1  ADP1       -0.2261
      9  O5'      -21.3800    0.6380  -11.7410 O.3     1  ADP1       -0.3111
     10  C5'      -21.8110   -0.1440  -12.8650 C.3     1  ADP1        0.1813
     11  C4'      -22.8050    0.5890  -13.7360 C.3     1  ADP1        0.1821
     12  O4'      -24.0300    0.7950  -13.0000 O.3     1  ADP1       -0.3135
     13  C3'      -22.3620    1.9820  -14.1680 C.3     1  ADP1        0.2184
     14  O3'      -21.4990    1.9580  -15.3180 O.3     1  ADP1       -0.2174
     15  C2'      -23.6820    2.6910  -14.3920 C.3     1  ADP1        0.2570
     16  O2'      -24.3050    2.3290  -15.6420 O.3     1  ADP1       -0.2130
     17  C1'      -24.5480    2.1090  -13.2720 C.3     1  ADP1        0.3186
     18  N9       -24.4600    2.9600  -12.0420 N.pl3   1  ADP1       -0.1439
     19  C8       -23.5190    2.9210  -11.0920 C.3     1  ADP1        0.3377
     20  N7       -23.7630    3.8210  -10.0930 N.2     1  ADP1       -0.2095
     21  C5       -24.9010    4.4170  -10.4110 C.2     1  ADP1        0.2526
     22  C6       -25.7360    5.4460   -9.7920 C.2     1  ADP1        0.4393
     23  N6       -25.3140    6.0000   -8.6290 N.pl3   1  ADP1        0.2180
     24  N1       -26.8520    5.8290  -10.4340 N.2     1  ADP1        0.0021
     25  C2       -27.2510    5.2730  -11.5940 C.3     1  ADP1        0.5254
     26  N3       -26.5170    4.3230  -12.2150 N.2     1  ADP1       -0.0055
     27  C4       -25.3730    3.8550  -11.6810 C.2     1  ADP1        0.3518
@<TRIPOS>BOND
     1    16    15    1
     2    14    13    1
     3    15    13    1
     4    15    17    1
     5    13    11    1
     6    11    12    1
     7    11    10    1
     8    17    12    1
     9    17    18    1
    10    10     9    1
    11    26    27    2
    12    26    25    1
    13     6     5    2
    14    18    27    1
    15    18    19    1
    16     2     1    2
    17     9     5    1
    18    27    21    1
    19    25    24    1
    20     3     1    1
    21    19    20    1
    22     5     8    1
    23     5     7    1
    24     1     8    1
    25     1     4    1
    26    24    22    2
    27    21    20    2
    28    21    22    1
    29    22    23    1
