@<TRIPOS>MOLECULE
3eha_ANP_A_1.pdb
 31 33 0 0 0
SMALL
GASTEIGER

@<TRIPOS>ATOM
      1  PG        16.3000   -1.5140   12.7560 P.3     1  ANP1        0.4884
      2  O1G       17.5930   -1.1680   13.4650 O.3     1  ANP1       -0.1240
      3  O2G       15.9110   -2.9570   13.0130 O.3     1  ANP1       -0.1240
      4  O3G       15.1760   -0.5340   12.9720 O.2     1  ANP1       -0.2331
      5  PB        17.9040   -2.0020   10.2460 P.3     1  ANP1        0.4669
      6  O1B       18.1590   -3.3940   10.7500 O.3     1  ANP1       -0.1253
      7  O2B       17.4980   -1.8480    8.7870 O.2     1  ANP1       -0.2351
      8  N3B       16.5970   -1.2570   11.0690 N.3     1  ANP1       -0.0163
      9  PA        19.5900    0.3900   10.8280 P.3     1  ANP1        0.2220
     10  O1A       19.5510    1.3080    9.6430 O.2     1  ANP1       -0.5170
     11  O2A       18.8060    0.7890   12.0650 O.3     1  ANP1       -0.4370
     12  O3A       19.2850   -1.1600   10.4190 O.3     1  ANP1       -0.2360
     13  O5'       21.1260    0.2370   11.2260 O.3     1  ANP1       -0.3111
     14  C5'       21.5060   -0.5650   12.3610 C.3     1  ANP1        0.1813
     15  C4'       22.4960    0.1910   13.2400 C.3     1  ANP1        0.1821
     16  O4'       23.6600    0.5470   12.4810 O.3     1  ANP1       -0.3135
     17  C3'       21.9460    1.5090   13.7840 C.3     1  ANP1        0.2184
     18  O3'       21.1970    1.3460   14.9910 O.3     1  ANP1       -0.2174
     19  C2'       23.1930    2.3230   13.9980 C.3     1  ANP1        0.2570
     20  O2'       23.8300    1.8980   15.2120 O.3     1  ANP1       -0.2130
     21  C1'       24.0900    1.8550   12.8630 C.3     1  ANP1        0.3186
     22  N9        23.9950    2.7300   11.6780 N.pl3   1  ANP1       -0.1439
     23  C8        23.0230    2.7380   10.7240 C.3     1  ANP1        0.3377
     24  N7        23.2720    3.6810    9.7870 N.2     1  ANP1       -0.2095
     25  C5        24.4210    4.2650   10.1360 C.2     1  ANP1        0.2526
     26  C6        25.2420    5.3210    9.5600 C.2     1  ANP1        0.4393
     27  N6        24.8310    5.9430    8.4260 N.pl3   1  ANP1        0.2180
     28  N1        26.3840    5.6600   10.2010 N.2     1  ANP1        0.0021
     29  C2        26.7650    5.0540   11.3430 C.3     1  ANP1        0.5254
     30  N3        26.0610    4.0670   11.9350 N.2     1  ANP1       -0.0055
     31  C4        24.8970    3.6400   11.3760 C.2     1  ANP1        0.3518
@<TRIPOS>BOND
     1    27    26    1
     2     7     5    2
     3    26    25    1
     4    26    28    2
     5    10     9    2
     6    24    25    2
     7    24    23    1
     8    25    31    1
     9    28    29    1
    10     5    12    1
    11     5     6    1
    12     5     8    1
    13    12     9    1
    14    23    22    1
    15     9    13    1
    16     9    11    1
    17     8     1    1
    18    13    14    1
    19    29    30    1
    20    31    22    1
    21    31    30    2
    22    22    21    1
    23    14    15    1
    24    16    21    1
    25    16    15    1
    26     1     4    2
    27     1     3    1
    28     1     2    1
    29    21    19    1
    30    15    17    1
    31    17    19    1
    32    17    18    1
    33    19    20    1
