@<TRIPOS>MOLECULE
3ehe_NAD_A_1.pdb
 44 48 0 0 0
SMALL
GASTEIGER

@<TRIPOS>ATOM
      1  PA        37.7280   16.0650   26.6520 P.3   900  NAD900      0.2189
      2  O1A       36.3230   16.6170   26.6410 O.3   900  NAD900     -0.4371
      3  O2A       38.8030   17.0080   26.4390 O.2   900  NAD900     -0.5170
      4  O5B       37.8580   15.2570   28.0430 O.3   900  NAD900     -0.3112
      5  C5B       39.1640   15.0010   28.6500 C.3   900  NAD900      0.1813
      6  C4B       39.1690   15.6140   30.0600 C.3   900  NAD900      0.1821
      7  O4B       40.4730   15.3150   30.6280 O.3   900  NAD900     -0.3135
      8  C3B       39.0450   17.1580   30.0970 C.3   900  NAD900      0.2184
      9  O3B       37.8890   17.5960   30.8380 O.3   900  NAD900     -0.2174
     10  C2B       40.3540   17.6130   30.6960 C.3   900  NAD900      0.2570
     11  O2B       40.1720   18.7610   31.5400 O.3   900  NAD900     -0.2130
     12  C1B       40.8800   16.3700   31.4490 C.3   900  NAD900      0.3186
     13  N9A       42.3720   16.3440   31.5220 N.pl3 900  NAD900     -0.1439
     14  C8A       43.2830   16.4180   30.5240 C.3   900  NAD900      0.3377
     15  N7A       44.5720   16.3710   30.9240 N.2   900  NAD900     -0.2095
     16  C5A       44.4500   16.2560   32.2920 C.2   900  NAD900      0.2526
     17  C6A       45.4320   16.1570   33.3440 C.2   900  NAD900      0.4393
     18  N6A       46.7380   16.1650   33.1070 N.pl3 900  NAD900      0.2180
     19  N1A       44.9490   16.0540   34.6140 N.2   900  NAD900      0.0021
     20  C2A       43.5930   16.0490   34.8560 C.3   900  NAD900      0.5254
     21  N3A       42.6130   16.1360   33.9450 N.2   900  NAD900     -0.0055
     22  C4A       43.1070   16.2380   32.6860 C.2   900  NAD900      0.3518
     23  O3        37.8180   14.9510   25.5510 O.3   900  NAD900     -0.2703
     24  PN        36.9160   13.6650   25.2450 P.3   900  NAD900      0.2189
     25  O1N       36.4040   13.8800   23.8780 O.2   900  NAD900     -0.5170
     26  O2N       35.8390   13.5330   26.2160 O.3   900  NAD900     -0.4371
     27  O5D       37.8690   12.3840   25.1810 O.3   900  NAD900     -0.3112
     28  C5D       37.9840   11.5770   26.3750 C.3   900  NAD900      0.1813
     29  C4D       38.9170   10.3920   26.0810 C.3   900  NAD900      0.1799
     30  O4D       38.4280    9.6840   24.8950 O.3   900  NAD900     -0.3327
     31  C3D       40.3720   10.7500   25.8100 C.3   900  NAD900      0.2158
     32  O3D       41.2720    9.8610   26.4960 O.3   900  NAD900     -0.2175
     33  C2D       40.4370   10.6680   24.2730 C.3   900  NAD900      0.2309
     34  O2D       41.7920   10.4110   23.8140 O.3   900  NAD900     -0.2158
     35  C1D       39.4200    9.5800   23.9490 C.3   900  NAD900      0.2263
     36  N1N       38.7880    9.6370   22.5860 N.pl3 900  NAD900     -0.2787
     37  C2N       37.7950   10.6150   22.3420 C.3   900  NAD900      0.1244
     38  C3N       37.2160   10.6280   21.0510 C.2   900  NAD900      0.0544
     39  C7N       36.1410   11.6180   20.6450 C.2   900  NAD900      0.2818
     40  O7N       35.6730   11.5800   19.5040 O.2   900  NAD900     -0.2670
     41  N7N       35.7090   12.5190   21.5280 N.am  900  NAD900     -0.0839
     42  C4N       37.6280    9.6840   20.0240 C.2   900  NAD900      0.0033
     43  C5N       38.6340    8.7620   20.4040 C.2   900  NAD900      0.0157
     44  C6N       39.2440    8.6820   21.6380 C.2   900  NAD900      0.0633
@<TRIPOS>BOND
     1    40    39    2
     2    42    43    1
     3    42    38    2
     4    43    44    2
     5    39    38    1
     6    39    41   am
     7    38    37    1
     8    44    36    1
     9    37    36    1
    10    36    35    1
    11    34    33    1
    12    25    24    2
    13    35    33    1
    14    35    30    1
    15    33    31    1
    16    30    29    1
    17    27    24    1
    18    27    28    1
    19    24    23    1
    20    24    26    1
    21    23     1    1
    22    31    29    1
    23    31    32    1
    24    29    28    1
    25     3     1    2
    26     2     1    1
    27     1     4    1
    28     4     5    1
    29     5     6    1
    30     6     8    1
    31     6     7    1
    32     8    10    1
    33     8     9    1
    34    14    15    1
    35    14    13    1
    36     7    12    1
    37    10    12    1
    38    10    11    1
    39    15    16    2
    40    12    13    1
    41    13    22    1
    42    16    22    1
    43    16    17    1
    44    22    21    2
    45    18    17    1
    46    17    19    2
    47    21    20    1
    48    19    20    1
