@<TRIPOS>MOLECULE
3ehf_ACP_A_1.pdb
 31 33 0 0 0
SMALL
GASTEIGER

@<TRIPOS>ATOM
      1  PG        34.6030    9.8650    6.6050 P.3   500  ACP500      0.1295
      2  O1G       34.6510    9.1280    7.9290 O.3   500  ACP500     -0.3567
      3  O2G       35.9150    9.9390    5.8580 O.2   500  ACP500     -0.4595
      4  O3G       33.8280   11.1760    6.6470 O.3   500  ACP500     -0.3567
      5  PB        31.8600    8.9540    5.9280 P.3   500  ACP500      0.3815
      6  O1B       31.1270    7.7730    5.3410 O.2   500  ACP500     -0.2547
      7  O2B       31.4860   10.3640    5.4970 O.3   500  ACP500     -0.1391
      8  C3B       33.6090    8.7900    5.5520 C.3   500  ACP500      0.1768
      9  PA        30.9600    9.9120    8.4640 P.3   500  ACP500      0.2209
     10  O1A       31.1560   11.3080    7.9050 O.2   500  ACP500     -0.5170
     11  O2A       31.3280    9.7200    9.9110 O.3   500  ACP500     -0.4371
     12  O3A       31.7780    8.8630    7.5460 O.3   500  ACP500     -0.2483
     13  O5'       29.4590    9.3210    8.2990 O.3   500  ACP500     -0.3111
     14  C5'       29.2240    7.9210    8.0830 C.3   500  ACP500      0.1813
     15  C4'       27.8380    7.5930    7.5000 C.3   500  ACP500      0.1821
     16  O4'       26.8680    8.5580    7.8970 O.3   500  ACP500     -0.3135
     17  C3'       27.7000    7.5400    5.9790 C.3   500  ACP500      0.2184
     18  O3'       28.0740    6.2850    5.4030 O.3   500  ACP500     -0.2174
     19  C2'       26.2290    7.8040    5.7510 C.3   500  ACP500      0.2570
     20  O2'       25.4460    6.6100    5.7920 O.3   500  ACP500     -0.2130
     21  C1'       25.8240    8.6550    6.9310 C.3   500  ACP500      0.3186
     22  N9        25.6260   10.0830    6.5710 N.pl3 500  ACP500     -0.1439
     23  C8        26.3570   11.1140    7.0240 C.3   500  ACP500      0.3377
     24  N7        25.8780   12.2680    6.4960 N.2   500  ACP500     -0.2095
     25  C5        24.8230   11.9560    5.6930 C.2   500  ACP500      0.2526
     26  C6        23.9330   12.6920    4.8800 C.2   500  ACP500      0.4393
     27  N6        24.0240   14.0480    4.7840 N.pl3 500  ACP500      0.2180
     28  N1        22.9540   12.0460    4.1760 N.2   500  ACP500      0.0021
     29  C2        22.8350   10.7050    4.2330 C.3   500  ACP500      0.5254
     30  N3        23.6640    9.9820    5.0020 N.2   500  ACP500     -0.0055
     31  C4        24.6650   10.5700    5.7490 C.2   500  ACP500      0.3518
@<TRIPOS>BOND
     1    28    29    1
     2    28    26    2
     3    29    30    1
     4    27    26    1
     5    26    25    1
     6    30    31    2
     7     6     5    2
     8    18    17    1
     9     7     5    1
    10     8     5    1
    11     8     1    1
    12    25    31    1
    13    25    24    2
    14    31    22    1
    15    19    20    1
    16    19    17    1
    17    19    21    1
    18     3     1    2
    19     5    12    1
    20    17    15    1
    21    24    23    1
    22    22    21    1
    23    22    23    1
    24     1     4    1
    25     1     2    1
    26    21    16    1
    27    15    16    1
    28    15    14    1
    29    12     9    1
    30    10     9    2
    31    14    13    1
    32    13     9    1
    33     9    11    1
