@<TRIPOS>MOLECULE
3ehg_ATP_A_1.pdb
 31 33 0 0 0
SMALL
GASTEIGER

@<TRIPOS>ATOM
      1  PG        24.7680   50.8790    9.4740 P.3     1  ATP1        0.5373
      2  O1G       25.7100   51.3080    8.3500 O.2     1  ATP1       -0.2221
      3  O2G       25.4470   50.4900   10.7660 O.3     1  ATP1       -0.1143
      4  O3G       23.7180   49.8820    9.0170 O.3     1  ATP1       -0.1143
      5  PB        22.4760   52.4420   10.0670 P.3     1  ATP1        0.2277
      6  O1B       22.2550   53.8220   10.5660 O.2     1  ATP1       -0.5168
      7  O2B       22.1040   51.2460   10.9270 O.3     1  ATP1       -0.4368
      8  O3B       24.0140   52.2840    9.7360 O.3     1  ATP1       -0.2258
      9  PA        20.6800   51.3720    8.0610 P.3     1  ATP1        0.2189
     10  O1A       20.7840   50.0490    8.7170 O.3     1  ATP1       -0.4371
     11  O2A       20.7180   51.4170    6.5640 O.2     1  ATP1       -0.5170
     12  O3A       21.8750   52.3540    8.5880 O.3     1  ATP1       -0.2700
     13  O5'       19.3530   52.0590    8.5550 O.3     1  ATP1       -0.3112
     14  C5'       19.0810   53.3990    8.0710 C.3     1  ATP1        0.1813
     15  C4'       18.2410   54.1560    9.0640 C.3     1  ATP1        0.1821
     16  O4'       16.9480   53.5520    9.1870 O.3     1  ATP1       -0.3135
     17  C3'       18.8140   54.1860   10.4760 C.3     1  ATP1        0.2184
     18  O3'       19.8970   55.1380   10.7270 O.3     1  ATP1       -0.2174
     19  C2'       17.5610   54.5160   11.2540 C.3     1  ATP1        0.2570
     20  O2'       17.2260   55.9180   11.1880 O.3     1  ATP1       -0.2130
     21  C1'       16.5090   53.7180   10.5380 C.3     1  ATP1        0.3186
     22  N9        16.2250   52.3530   11.0580 N.pl3   1  ATP1       -0.1439
     23  C8        16.6420   51.2010   10.5120 C.3     1  ATP1        0.3377
     24  N7        16.1560   50.1330   11.1860 N.2     1  ATP1       -0.2095
     25  C5        15.3780   50.6880   12.1710 C.2     1  ATP1        0.2526
     26  C6        14.5740   50.1730   13.2710 C.2     1  ATP1        0.4393
     27  N6        14.4570   48.8550   13.4360 N.pl3   1  ATP1        0.2180
     28  N1        13.9610   50.9940   14.0900 N.2     1  ATP1        0.0021
     29  C2        14.0820   52.3460   13.9500 C.3     1  ATP1        0.5254
     30  N3        14.8300   52.9720   12.9990 N.2     1  ATP1       -0.0055
     31  C4        15.4790   52.1510   12.1080 C.2     1  ATP1        0.3518
@<TRIPOS>BOND
     1    11     9    2
     2     9    13    1
     3     9    12    1
     4     9    10    1
     5    14    13    1
     6    14    15    1
     7     2     1    2
     8    12     5    1
     9     4     1    1
    10    15    16    1
    11    15    17    1
    12    16    21    1
    13     1     8    1
    14     1     3    1
    15     8     5    1
    16     5     6    2
    17     5     7    1
    18    17    18    1
    19    17    19    1
    20    23    22    1
    21    23    24    1
    22    21    22    1
    23    21    19    1
    24    22    31    1
    25    24    25    2
    26    20    19    1
    27    31    25    1
    28    31    30    2
    29    25    26    1
    30    30    29    1
    31    26    27    1
    32    26    28    2
    33    29    28    1
