@<TRIPOS>MOLECULE
3ehh_ADP_A_1.pdb
 27 29 0 0 0
SMALL
GASTEIGER

@<TRIPOS>ATOM
      1  PB        12.7560   50.3390   16.1880 P.3   2500  ADP2500     0.5373
      2  O1B       12.3530   49.3740   15.0950 O.2   2500  ADP2500    -0.2221
      3  O2B       14.1780   50.4410   16.5840 O.3   2500  ADP2500    -0.1143
      4  O3B       12.1340   51.7230   16.1580 O.3   2500  ADP2500    -0.1143
      5  PA        10.8000   49.7450   18.2460 P.3   2500  ADP2500     0.2231
      6  O1A       10.7400   48.7610   19.3820 O.3   2500  ADP2500    -0.4370
      7  O2A       10.6570   51.2070   18.5990 O.2   2500  ADP2500    -0.5169
      8  O3A       12.1640   49.4980   17.4370 O.3   2500  ADP2500    -0.2261
      9  O5'        9.6300   49.3310   17.2830 O.3   2500  ADP2500    -0.3111
     10  C5'        9.5810   47.9690   16.8700 C.3   2500  ADP2500     0.1813
     11  C4'        8.9150   47.8930   15.5140 C.3   2500  ADP2500     0.1821
     12  O4'        7.5020   47.9370   15.7000 O.3   2500  ADP2500    -0.3135
     13  C3'        9.2070   49.0650   14.5870 C.3   2500  ADP2500     0.2184
     14  O3'       10.3820   48.9070   13.8140 O.3   2500  ADP2500    -0.2174
     15  C2'        7.9980   49.0660   13.7040 C.3   2500  ADP2500     0.2570
     16  O2'        8.1560   48.0250   12.7540 O.3   2500  ADP2500    -0.2130
     17  C1'        6.8790   48.7080   14.6640 C.3   2500  ADP2500     0.3186
     18  N9         6.2690   49.9490   15.1810 N.pl3 2500  ADP2500    -0.1439
     19  C8         6.4620   50.5010   16.3890 C.3   2500  ADP2500     0.3377
     20  N7         5.7480   51.6480   16.5120 N.2   2500  ADP2500    -0.2095
     21  C5         5.0650   51.8350   15.3770 C.2   2500  ADP2500     0.2526
     22  C6         4.1190   52.8330   14.8300 C.2   2500  ADP2500     0.4393
     23  N6         3.7170   53.9020   15.5320 N.pl3 2500  ADP2500     0.2180
     24  N1         3.6530   52.6440   13.5750 N.2   2500  ADP2500     0.0021
     25  C2         4.0320   51.5890   12.8510 C.3   2500  ADP2500     0.5254
     26  N3         4.8760   50.6360   13.2850 N.2   2500  ADP2500    -0.0055
     27  C4         5.4170   50.7040   14.5090 C.2   2500  ADP2500     0.3518
@<TRIPOS>BOND
     1    16    15    1
     2    25    26    1
     3    25    24    1
     4    26    27    2
     5    24    22    2
     6    15    13    1
     7    15    17    1
     8    14    13    1
     9    27    18    1
    10    27    21    1
    11    13    11    1
    12    17    18    1
    13    17    12    1
    14    22    21    1
    15    22    23    1
    16     2     1    2
    17    18    19    1
    18    21    20    2
    19    11    12    1
    20    11    10    1
    21     4     1    1
    22     1     3    1
    23     1     8    1
    24    19    20    1
    25    10     9    1
    26     9     5    1
    27     8     5    1
    28     5     7    2
    29     5     6    1
