@<TRIPOS>MOLECULE
3ehj_ACP_A_1.pdb
 31 33 0 0 0
SMALL
GASTEIGER

@<TRIPOS>ATOM
      1  PG        33.6850    2.2000   56.0570 P.3   1303  ACP1303     0.1295
      2  O1G       33.8630    3.1890   54.9060 O.2   1303  ACP1303    -0.4595
      3  O2G       33.2470    0.7650   55.6900 O.3   1303  ACP1303    -0.3567
      4  O3G       32.9430    2.7200   57.2940 O.3   1303  ACP1303    -0.3567
      5  PB        35.6720    3.8950   56.9480 P.3   1303  ACP1303     0.3815
      6  O1B       36.9450    4.2140   57.6990 O.3   1303  ACP1303    -0.1391
      7  O2B       34.4050    4.6050   57.4760 O.2   1303  ACP1303    -0.2547
      8  C3B       35.3560    2.1540   56.6770 C.3   1303  ACP1303     0.1768
      9  PA        35.5770    5.7470   54.9880 P.3   1303  ACP1303     0.2209
     10  O1A       34.1160    5.7760   55.4150 O.3   1303  ACP1303    -0.4371
     11  O2A       36.2930    5.8690   53.6680 O.2   1303  ACP1303    -0.5170
     12  O3A       36.0560    4.3020   55.4550 O.3   1303  ACP1303    -0.2483
     13  O5'       36.3920    6.7970   55.8650 O.3   1303  ACP1303    -0.3111
     14  C5'       37.8210    6.6330   55.9010 C.3   1303  ACP1303     0.1813
     15  C4'       38.3970    7.1370   57.2190 C.3   1303  ACP1303     0.1821
     16  O4'       38.3180    8.5540   57.1110 O.3   1303  ACP1303    -0.3135
     17  C3'       37.6170    6.7610   58.4820 C.3   1303  ACP1303     0.2184
     18  O3'       38.0230    5.5560   59.1470 O.3   1303  ACP1303    -0.2174
     19  C2'       37.9100    7.9500   59.3350 C.3   1303  ACP1303     0.2570
     20  O2'       39.2670    7.8690   59.7550 O.3   1303  ACP1303    -0.2130
     21  C1'       37.9500    9.1180   58.3770 C.3   1303  ACP1303     0.3186
     22  N9        36.7260    9.9790   58.3360 N.pl3 1303  ACP1303    -0.1439
     23  C8        35.8230    9.9850   57.3560 C.3   1303  ACP1303     0.3377
     24  N7        34.8640   10.8870   57.6320 N.2   1303  ACP1303    -0.2095
     25  C5        35.1690   11.5110   58.7850 C.2   1303  ACP1303     0.2526
     26  C6        34.5470   12.5320   59.5320 C.2   1303  ACP1303     0.4393
     27  N6        33.4060   13.1210   59.1380 N.pl3 1303  ACP1303     0.2180
     28  N1        35.1160   12.9020   60.6940 N.2   1303  ACP1303     0.0021
     29  C2        36.2520   12.3100   61.1270 C.3   1303  ACP1303     0.5254
     30  N3        36.8760   11.3450   60.4270 N.2   1303  ACP1303    -0.0055
     31  C4        36.3550   10.9170   59.2420 C.2   1303  ACP1303     0.3518
@<TRIPOS>BOND
     1    11     9    2
     2     2     1    2
     3     9    10    1
     4     9    12    1
     5     9    13    1
     6    12     5    1
     7     3     1    1
     8    13    14    1
     9    14    15    1
    10     1     8    1
    11     1     4    1
    12     8     5    1
    13     5     7    2
    14     5     6    1
    15    16    15    1
    16    16    21    1
    17    15    17    1
    18    23    24    1
    19    23    22    1
    20    24    25    2
    21    22    21    1
    22    22    31    1
    23    21    19    1
    24    17    18    1
    25    17    19    1
    26    25    31    1
    27    25    26    1
    28    27    26    1
    29    31    30    2
    30    19    20    1
    31    26    28    2
    32    30    29    1
    33    28    29    1
