@<TRIPOS>MOLECULE
3ehn_NLC_A_1.pdb
 26 27 0 0 0
SMALL
GASTEIGER

@<TRIPOS>ATOM
      1  C1       -43.5210  -29.7570   20.0550 C.3   600  NLC600      0.2917
      2  O1       -42.3220  -30.4950   19.9390 O.3   600  NLC600     -0.1879
      3  C2       -44.5710  -29.9290   18.9500 C.3   600  NLC600      0.1870
      4  N        -44.0170  -29.6290   17.7450 N.am  600  NLC600     -0.1991
      5  C7       -44.1270  -30.0270   16.4810 C.2   600  NLC600      0.2420
      6  C8       -45.2310  -29.4760   15.5690 C.3   600  NLC600      0.0964
      7  O7       -43.5130  -31.0330   16.1620 O.2   600  NLC600     -0.2733
      8  C3       -45.6770  -28.8910   19.3060 C.3   600  NLC600      0.2063
      9  O3       -46.7510  -28.7660   18.3820 O.3   600  NLC600     -0.2184
     10  C4       -46.2940  -29.2560   20.6420 C.3   600  NLC600      0.1796
     11  O4       -47.3960  -28.3960   21.1810 O.3   600  NLC600     -0.3258
     12  C5       -45.1760  -29.2970   21.7650 C.3   600  NLC600      0.1803
     13  C6       -45.7750  -29.5490   23.1830 C.3   600  NLC600      0.2141
     14  O6       -44.6820  -29.8840   24.0440 O.3   600  NLC600     -0.2176
     15  O5       -43.9730  -30.0120   21.4140 O.3   600  NLC600     -0.3243
     16  C12      -49.6580  -28.3190   21.9090 C.3   600  NLC600      0.2406
     17  O12      -49.2200  -28.4650   23.2670 O.3   600  NLC600     -0.2149
     18  C13      -51.0450  -28.9570   21.7310 C.3   600  NLC600      0.2198
     19  O13      -51.9870  -28.3060   22.5930 O.3   600  NLC600     -0.2174
     20  C14      -51.4890  -28.8080   20.2520 C.3   600  NLC600      0.2144
     21  C15      -50.4280  -29.5060   19.3580 C.3   600  NLC600      0.1835
     22  C16      -50.8520  -29.3460   17.9010 C.3   600  NLC600      0.2142
     23  C10      -48.6720  -29.0310   20.9750 C.3   600  NLC600      0.2695
     24  O16      -49.9170  -29.9770   17.0170 O.3   600  NLC600     -0.2176
     25  O15      -49.1160  -28.8800   19.5780 O.3   600  NLC600     -0.3256
     26  O40      -51.6010  -27.4120   19.9010 O.3   600  NLC600     -0.2176
@<TRIPOS>BOND
     1     6     5    1
     2     7     5    2
     3     5     4   am
     4    24    22    1
     5     4     3    1
     6    22    21    1
     7     9     8    1
     8     3     8    1
     9     3     1    1
    10     8    10    1
    11    21    25    1
    12    21    20    1
    13    25    23    1
    14    26    20    1
    15     2     1    1
    16     1    15    1
    17    20    18    1
    18    10    11    1
    19    10    12    1
    20    23    11    1
    21    23    16    1
    22    15    12    1
    23    18    16    1
    24    18    19    1
    25    12    13    1
    26    16    17    1
    27    13    14    1
