@<TRIPOS>MOLECULE
3ehs_MAL_A_1.pdb
 23 24 0 0 0
SMALL
GASTEIGER

@<TRIPOS>ATOM
      1  C1        20.8710   57.7060   14.9250 C.3   126  MAL126      0.2695
      2  C2        22.2490   57.9970   14.3470 C.3   126  MAL126      0.2406
      3  C3        22.5800   56.9340   13.3120 C.3   126  MAL126      0.2198
      4  C4        22.5340   55.5640   13.9670 C.3   126  MAL126      0.2144
      5  C5        21.1710   55.3200   14.5940 C.3   126  MAL126      0.1835
      6  C6        21.2110   54.0490   15.4250 C.3   126  MAL126      0.2142
      7  O1        19.8560   57.8410   13.9500 O.3   126  MAL126     -0.3257
      8  O2        22.2450   59.2720   13.7550 O.3   126  MAL126     -0.2149
      9  O3        23.8590   57.1380   12.7580 O.3   126  MAL126     -0.2174
     10  O4        22.7820   54.5570   13.0170 O.3   126  MAL126     -0.2176
     11  O5        20.8370   56.3900   15.4490 O.3   126  MAL126     -0.3256
     12  O6        19.8850   53.6110   15.6500 O.3   126  MAL126     -0.2176
     13  C1'       16.1740   59.8360   13.6970 C.3   126  MAL126      0.3023
     14  C2'       17.4090   60.6370   14.0880 C.3   126  MAL126      0.2433
     15  C3'       18.6790   59.8920   13.7020 C.3   126  MAL126      0.2168
     16  C4'       18.6750   58.5100   14.3310 C.3   126  MAL126      0.1804
     17  C5'       17.4590   57.7640   13.8040 C.3   126  MAL126      0.1804
     18  C6'       17.2980   56.4340   14.4970 C.3   126  MAL126      0.2141
     19  O1'       15.9810   59.8680   12.2960 O.3   126  MAL126     -0.1869
     20  O2'       17.4020   61.9060   13.4810 O.3   126  MAL126     -0.2148
     21  O3'       19.8140   60.5570   14.1790 O.3   126  MAL126     -0.2175
     22  O5'       16.2860   58.4750   14.1020 O.3   126  MAL126     -0.3237
     23  O6'       16.6810   55.5440   13.5670 O.3   126  MAL126     -0.2176
@<TRIPOS>BOND
     1    19    13    1
     2     9     3    1
     3    10     4    1
     4     3     4    1
     5     3     2    1
     6    20    14    1
     7    23    18    1
     8    13    14    1
     9    13    22    1
    10    15    14    1
    11    15    21    1
    12    15    16    1
    13     8     2    1
    14    17    22    1
    15    17    16    1
    16    17    18    1
    17     7    16    1
    18     7     1    1
    19     4     5    1
    20     2     1    1
    21     5     6    1
    22     5    11    1
    23     1    11    1
    24     6    12    1
