@<TRIPOS>MOLECULE
3eht_MAL_A_1.pdb
 23 24 0 0 0
SMALL
GASTEIGER

@<TRIPOS>ATOM
      1  C1        38.1640   -3.3380   23.3380 C.3   126  MAL126      0.2695
      2  C2        36.8890   -3.1570   24.1540 C.3   126  MAL126      0.2406
      3  C3        36.8520   -4.1140   25.3340 C.3   126  MAL126      0.2198
      4  C4        37.1750   -5.5520   24.9450 C.3   126  MAL126      0.2144
      5  C5        38.2960   -5.6660   23.9190 C.3   126  MAL126      0.1835
      6  C6        38.2140   -7.0060   23.2180 C.3   126  MAL126      0.2142
      7  O1        39.3050   -2.9740   24.0870 O.3   126  MAL126     -0.3257
      8  O2        36.7980   -1.8440   24.6470 O.3   126  MAL126     -0.2149
      9  O3        35.5540   -4.0700   25.8680 O.3   126  MAL126     -0.2174
     10  O4        37.5730   -6.2410   26.1060 O.3   126  MAL126     -0.2176
     11  O5        38.2430   -4.6800   22.9100 O.3   126  MAL126     -0.3256
     12  O6        39.5000   -7.3410   22.7500 O.3   126  MAL126     -0.2176
     13  C1'       43.0050   -1.1800   23.1520 C.3   126  MAL126      0.3023
     14  C2'       41.7180   -0.4140   22.7700 C.3   126  MAL126      0.2433
     15  C3'       40.4740   -0.9490   23.4820 C.3   126  MAL126      0.2168
     16  C4'       40.4150   -2.4740   23.3780 C.3   126  MAL126      0.1804
     17  C5'       41.7200   -3.0640   23.9220 C.3   126  MAL126      0.1804
     18  C6'       41.7040   -4.5920   23.9240 C.3   126  MAL126      0.2141
     19  O1'       43.5270   -0.7440   24.3900 O.3   126  MAL126     -0.1869
     20  O2'       41.8320    0.9770   23.0090 O.3   126  MAL126     -0.2148
     21  O3'       39.3330   -0.3620   22.8940 O.3   126  MAL126     -0.2175
     22  O5'       42.8170   -2.5900   23.1540 O.3   126  MAL126     -0.3237
     23  O6'       42.9250   -5.1200   23.4500 O.3   126  MAL126     -0.2176
@<TRIPOS>BOND
     1    12     6    1
     2    14    20    1
     3    14    13    1
     4    14    15    1
     5    21    15    1
     6    11     1    1
     7    11     5    1
     8    13    22    1
     9    13    19    1
    10    22    17    1
    11     6     5    1
    12     1     7    1
    13     1     2    1
    14    16    15    1
    15    16    17    1
    16    16     7    1
    17    23    18    1
    18     5     4    1
    19    17    18    1
    20     2     8    1
    21     2     3    1
    22     4     3    1
    23     4    10    1
    24     3     9    1
