@<TRIPOS>MOLECULE
3ehu_MAL_A_1.pdb
 23 24 0 0 0
SMALL
GASTEIGER

@<TRIPOS>ATOM
      1  C1       -35.0990  -46.1040  110.7140 C.3   503  MAL503      0.2695
      2  C2       -34.0850  -45.2240  109.9530 C.3   503  MAL503      0.2406
      3  C3       -34.7550  -43.9170  109.5270 C.3   503  MAL503      0.2198
      4  C4       -35.9800  -44.2390  108.6940 C.3   503  MAL503      0.2144
      5  C5       -36.9390  -45.2000  109.4250 C.3   503  MAL503      0.1835
      6  C6       -38.0930  -45.6740  108.5440 C.3   503  MAL503      0.2142
      7  O1       -35.4610  -45.4310  111.9070 O.3   503  MAL503     -0.3257
      8  O2       -32.9610  -44.9650  110.7660 O.3   503  MAL503     -0.2149
      9  O3       -33.8960  -43.0570  108.7840 O.3   503  MAL503     -0.2174
     10  O4       -36.5750  -43.0000  108.4060 O.3   503  MAL503     -0.2176
     11  O5       -36.2570  -46.3450  109.9160 O.3   503  MAL503     -0.3256
     12  O6       -39.0260  -46.4180  109.3290 O.3   503  MAL503     -0.2176
     13  C1'      -35.7800  -46.4910  115.9380 C.3   503  MAL503      0.3023
     14  C2'      -34.3940  -46.5860  115.2790 C.3   503  MAL503      0.2433
     15  C3'      -34.3400  -45.8830  113.9310 C.3   503  MAL503      0.2168
     16  C4'      -35.5750  -46.1700  113.0890 C.3   503  MAL503      0.1804
     17  C5'      -36.8510  -45.7900  113.8220 C.3   503  MAL503      0.1804
     18  C6'      -38.1180  -46.1560  113.0280 C.3   503  MAL503      0.2141
     19  O1'      -35.7810  -45.3540  116.7250 O.3   503  MAL503     -0.1869
     20  O2'      -33.4160  -45.9690  116.1120 O.3   503  MAL503     -0.2148
     21  O3'      -33.2050  -46.3910  113.2960 O.3   503  MAL503     -0.2175
     22  O5'      -36.9180  -46.4740  115.0750 O.3   503  MAL503     -0.3237
     23  O6'      -39.2400  -45.8050  113.8090 O.3   503  MAL503     -0.2176
@<TRIPOS>BOND
     1    10     4    1
     2     6    12    1
     3     6     5    1
     4     4     5    1
     5     4     3    1
     6     9     3    1
     7     5    11    1
     8     3     2    1
     9    11     1    1
    10     2     1    1
    11     2     8    1
    12     1     7    1
    13     7    16    1
    14    18    23    1
    15    18    17    1
    16    16    17    1
    17    16    15    1
    18    21    15    1
    19    17    22    1
    20    15    14    1
    21    22    13    1
    22    14    13    1
    23    14    20    1
    24    13    19    1
