@<TRIPOS>MOLECULE
3ehw_DUP_A_1.pdb
 28 29 0 0 0
SMALL
GASTEIGER

@<TRIPOS>ATOM
      1  O4        -6.0080    7.7860   26.1160 O.2   777  DUP777     -0.2085
      2  C4        -5.6140    8.9010   26.4230 C.1   777  DUP777      0.2182
      3  C5        -5.0070    9.1170   27.6520 C.2   777  DUP777      0.1242
      4  C6        -4.5660   10.4150   27.9230 C.2   777  DUP777      0.0928
      5  N3        -5.8000    9.9410   25.5360 N.2   777  DUP777     -0.2452
      6  C2        -5.4030   11.2200   25.8290 C.1   777  DUP777      0.2844
      7  O2        -5.6140   12.1440   25.0180 O.2   777  DUP777     -0.1918
      8  N1        -4.7690   11.4430   27.0260 N.am  777  DUP777     -0.1790
      9  C1'       -4.3380   12.8260   27.3660 C.3   777  DUP777      0.2090
     10  C2'       -5.4640   13.4050   28.1880 C.3   777  DUP777      0.0874
     11  C3'       -4.9800   13.2530   29.6080 C.3   777  DUP777      0.1857
     12  O3'       -5.5100   14.2610   30.4180 O.3   777  DUP777     -0.2203
     13  O4'       -3.1840   12.7880   28.1950 O.3   777  DUP777     -0.3339
     14  C4'       -3.4730   13.4000   29.4460 C.3   777  DUP777      0.1774
     15  C5'       -2.6730   12.7080   30.5480 C.3   777  DUP777      0.1848
     16  O5'       -3.1910   11.4170   30.7520 O.3   777  DUP777     -0.2775
     17  PA        -2.4830   10.3790   31.7770 P.3   777  DUP777      0.4623
     18  O1A       -2.1920   11.1590   33.0160 O.3   777  DUP777     -0.1255
     19  O2A       -3.4080    9.2130   31.9450 O.2   777  DUP777     -0.2354
     20  N3A       -1.0470    9.9230   31.0660 N.3   777  DUP777     -0.0179
     21  PB         0.4690   10.4560   31.5100 P.3   777  DUP777      0.4700
     22  O1B        0.6270   10.5270   33.0150 O.3   777  DUP777     -0.1252
     23  O2B        1.5010    9.6160   30.7880 O.2   777  DUP777     -0.2350
     24  O3B        0.5020   11.9760   30.9850 O.3   777  DUP777     -0.1901
     25  PG         0.8820   13.2660   31.8820 P.3   777  DUP777      0.5397
     26  O2G        0.0200   13.3440   33.1050 O.3   777  DUP777     -0.1143
     27  O1G        2.3300   13.1140   32.2470 O.3   777  DUP777     -0.1143
     28  O3G        0.6820   14.4430   30.9780 O.2   777  DUP777     -0.2220
@<TRIPOS>BOND
     1     7     6    2
     2     5     6    2
     3     5     2    2
     4     6     8   am
     5     1     2    2
     6     2     3    1
     7     8     9    1
     8     8     4    1
     9     9    10    1
    10     9    13    1
    11     3     4    2
    12    10    11    1
    13    13    14    1
    14    14    11    1
    15    14    15    1
    16    11    12    1
    17    15    16    1
    18    16    17    1
    19    23    21    2
    20    28    25    2
    21    24    21    1
    22    24    25    1
    23    20    21    1
    24    20    17    1
    25    21    22    1
    26    17    19    2
    27    17    18    1
    28    25    27    1
    29    25    26    1
