@<TRIPOS>MOLECULE
3ehx_BDL_A_1.pdb
 24 25 0 0 0
SMALL
GASTEIGER

@<TRIPOS>ATOM
      1  O4        -2.0470   -1.5510   -5.7620 O.co2   0  BDL0       -0.2440
      2  C15       -1.8680   -1.9680   -4.6530 C.2     0  BDL0        0.3822
      3  O3        -2.8710   -2.0680   -3.8170 O.co2   0  BDL0       -0.2440
      4  C17       -0.4830   -2.3220   -4.2560 C.3     0  BDL0        0.2002
      5  C16       -0.0920   -1.5770   -2.9890 C.3     0  BDL0        0.0309
      6  C14        1.3030   -2.0450   -2.5650 C.3     0  BDL0        0.0020
      7  C18        2.3790   -0.9590   -2.6380 C.3     0  BDL0        0.0001
      8  C13        1.2740   -2.6230   -1.1470 C.3     0  BDL0        0.0001
      9  N1        -0.3040   -3.7240   -4.0580 N.3     0  BDL0       -0.0677
     10  S1        -0.6340   -5.0940   -4.8830 S.O2    0  BDL0        0.0773
     11  O1         0.4830   -5.3780   -5.7600 O.2     0  BDL0       -0.1516
     12  O2        -0.7140   -5.9230   -3.7080 O.2     0  BDL0       -0.1516
     13  C7        -2.0190   -5.3460   -5.6640 C.ar    0  BDL0        0.1236
     14  C5        -2.0790   -5.3950   -7.0520 C.ar    0  BDL0        0.0200
     15  C3        -3.2650   -5.7050   -7.7020 C.ar    0  BDL0        0.0014
     16  C6        -3.1590   -5.6180   -4.9190 C.ar    0  BDL0        0.0200
     17  C4        -4.3560   -5.8960   -5.5740 C.ar    0  BDL0        0.0014
     18  C1        -4.4270   -5.9370   -6.9690 C.ar    0  BDL0        0.0001
     19  C2        -5.6910   -6.3160   -7.6470 C.ar    0  BDL0        0.0000
     20  C9        -6.8140   -6.6450   -6.8800 C.ar    0  BDL0        0.0000
     21  C12       -7.9830   -7.0450   -7.4940 C.ar    0  BDL0        0.0000
     22  C11       -8.0280   -7.1810   -8.8820 C.ar    0  BDL0        0.0000
     23  C10       -6.9100   -6.9040   -9.6560 C.ar    0  BDL0        0.0000
     24  C8        -5.7460   -6.4950   -9.0290 C.ar    0  BDL0        0.0000
@<TRIPOS>BOND
     1    23    24   ar
     2    23    22   ar
     3    24    19   ar
     4    22    21   ar
     5    15    14   ar
     6    15    18   ar
     7    19    18    1
     8    19    20   ar
     9    21    20   ar
    10    14    13   ar
    11    18    17   ar
    12     1     2   ar
    13    11    10    2
    14    13    16   ar
    15    13    10    1
    16    17    16   ar
    17    10     9    1
    18    10    12    2
    19     2     4    1
    20     2     3   ar
    21     4     9    1
    22     4     5    1
    23     5     6    1
    24     7     6    1
    25     6     8    1
