@<TRIPOS>MOLECULE
3ehy_TBL_A_1.pdb
 17 17 0 0 0
SMALL
GASTEIGER

@<TRIPOS>ATOM
      1  O4        -1.0810   -6.6970   -4.0090 O.2     1  TBL1       -0.1516
      2  S1        -0.8610   -5.5850   -4.8790 S.O2    1  TBL1        0.0773
      3  O3         0.3440   -5.6660   -5.6630 O.2     1  TBL1       -0.1516
      4  N1        -0.8580   -4.2810   -3.9320 N.3     1  TBL1       -0.0677
      5  C2        -0.5330   -2.9680   -4.5110 C.3     1  TBL1        0.2002
      6  C10        0.2790   -2.1440   -3.5090 C.3     1  TBL1        0.0330
      7  C1        -1.7860   -2.2190   -4.8830 C.2     1  TBL1        0.3822
      8  O2        -1.8580   -1.5180   -5.8730 O.co2   1  TBL1       -0.2440
      9  O1        -2.8600   -2.3300   -4.1020 O.co2   1  TBL1       -0.2440
     10  C3        -2.0710   -5.6230   -5.9680 C.ar    1  TBL1        0.1238
     11  C4        -3.3590   -5.9330   -5.5370 C.ar    1  TBL1        0.0231
     12  C5        -4.4230   -6.0050   -6.4540 C.ar    1  TBL1        0.0383
     13  C6        -4.2010   -5.8490   -7.8280 C.ar    1  TBL1        0.1388
     14  C8        -2.9360   -5.5380   -8.2930 C.ar    1  TBL1        0.0383
     15  C9        -1.8730   -5.4200   -7.3570 C.ar    1  TBL1        0.0231
     16  O5        -5.2910   -5.9330   -8.6790 O.3     1  TBL1       -0.4714
     17  C7        -5.3380   -6.7060   -9.8690 C.3     1  TBL1        0.2525
@<TRIPOS>BOND
     1    17    16    1
     2    16    13    1
     3    14    13   ar
     4    14    15   ar
     5    13    12   ar
     6    15    10   ar
     7    12    11   ar
     8    10    11   ar
     9    10     2    1
    10     8     7   ar
    11     3     2    2
    12     7     5    1
    13     7     9   ar
    14     2     1    2
    15     2     4    1
    16     5     4    1
    17     5     6    1
