@<TRIPOS>MOLECULE
3ei5_PGU_A_1.pdb
 25 25 0 0 0
SMALL
GASTEIGER

@<TRIPOS>ATOM
      1  N1        44.3090    2.0650  -12.6710 N.ar  433  PGU433     -0.2452
      2  C2        43.2250    1.4250  -12.2030 C.ar  433  PGU433      0.0978
      3  C2A       42.3500    2.0380  -11.1030 C.3   433  PGU433      0.0555
      4  C3        42.8670    0.1820  -12.7190 C.ar  433  PGU433      0.2062
      5  O3        41.7720   -0.4560  -12.2290 O.3   433  PGU433     -0.2856
      6  C4        43.6200   -0.4600  -13.7100 C.ar  433  PGU433      0.0353
      7  C4A       43.1910   -1.8770  -14.2360 C.3   433  PGU433      0.1186
      8  C5        44.7730    0.2300  -14.1430 C.ar  433  PGU433      0.0275
      9  C6        45.0690    1.5000  -13.5990 C.ar  433  PGU433      0.0965
     10  C5A       45.7330   -0.3320  -15.2050 C.3   433  PGU433      0.1816
     11  O4P       45.3980    0.0980  -16.5010 O.3   433  PGU433     -0.2653
     12  P         46.1800   -0.3550  -17.7850 P.3   433  PGU433      0.5329
     13  O1P       47.6560   -0.5150  -17.4210 O.3   433  PGU433     -0.1145
     14  O2P       45.5150   -1.4690  -18.5490 O.3   433  PGU433     -0.1145
     15  O3P       46.1280    0.8590  -18.8520 O.2   433  PGU433     -0.2224
     16  N         43.2370   -2.8490  -13.0930 N.3   433  PGU433     -0.2034
     17  CA        42.6040   -4.2170  -13.2760 C.3   433  PGU433      0.1766
     18  CB        43.6470   -5.1630  -13.9100 C.3   433  PGU433      0.0407
     19  CG        44.7870   -5.5980  -12.9780 C.3   433  PGU433      0.1161
     20  CD        46.0170   -4.6690  -12.9190 C.2   433  PGU433      0.3649
     21  OE1       47.0240   -5.1220  -12.3300 O.co2 433  PGU433     -0.2457
     22  OE2       45.9360   -3.5140  -13.4300 O.co2 433  PGU433     -0.2457
     23  C         42.0190   -4.7880  -11.9130 C.2   433  PGU433      0.3803
     24  O         42.0580   -4.0250  -10.9290 O.co2 433  PGU433     -0.2441
     25  OXT       41.5590   -5.9590  -11.8470 O.co2 433  PGU433     -0.2441
@<TRIPOS>BOND
     1    15    12    2
     2    14    12    1
     3    12    13    1
     4    12    11    1
     5    11    10    1
     6    10     8    1
     7     7     6    1
     8     7    16    1
     9     8     6   ar
    10     8     9   ar
    11    18    17    1
    12    18    19    1
    13     6     4   ar
    14     9     1   ar
    15    22    20   ar
    16    17    16    1
    17    17    23    1
    18    19    20    1
    19    20    21   ar
    20     4     5    1
    21     4     2   ar
    22     1     2   ar
    23     2     3    1
    24    23    25   ar
    25    23    24   ar
