@<TRIPOS>MOLECULE
3ei6_PL4_A_1.pdb
 28 28 0 0 0
SMALL
GASTEIGER

@<TRIPOS>ATOM
      1  CB       -16.6020   42.6660   15.0120 C.3   434  PL4434      0.0307
      2  CAA      -22.7170   35.7600   17.4990 C.3   434  PL4434      0.0555
      3  CBA      -17.3450   38.8190   15.4620 C.3   434  PL4434      0.1760
      4  N        -17.4960   44.5250   13.6410 N.3   434  PL4434     -0.1208
      5  OAI      -21.5050   40.2540   10.1390 O.3   434  PL4434     -0.1145
      6  PBB      -22.9000   40.3000   10.8390 P.3   434  PL4434      0.5329
      7  OAJ      -23.8370   39.5970    9.7860 O.2   434  PL4434     -0.2224
      8  OAE      -23.4260   41.6480   11.2180 O.3   434  PL4434     -0.1145
      9  OAS      -22.8300   39.3170   12.1220 O.3   434  PL4434     -0.2653
     10  CAP      -22.4340   39.8300   13.3630 C.3   434  PL4434      0.1816
     11  CAW      -22.3880   38.7320   14.4460 C.ar  434  PL4434      0.0275
     12  CAK      -23.6380   38.3200   14.9630 C.ar  434  PL4434      0.0965
     13  NAQ      -23.7390   37.3830   15.9050 N.ar  434  PL4434     -0.2452
     14  CAV      -22.6200   36.8100   16.4030 C.ar  434  PL4434      0.0978
     15  CAX      -21.3680   37.1640   15.9130 C.ar  434  PL4434      0.2062
     16  OAH      -20.2410   36.5840   16.3860 O.3   434  PL4434     -0.2856
     17  CAY      -21.1990   38.1400   14.9290 C.ar  434  PL4434      0.0353
     18  CAO      -19.7310   38.4830   14.4640 C.3   434  PL4434      0.1186
     19  NAR      -18.8460   38.8800   15.6340 N.3   434  PL4434     -0.2034
     20  CAU      -16.5740   38.6080   16.8160 C.2   434  PL4434      0.3803
     21  OAG      -17.2330   38.3070   17.8240 O.co2 434  PL4434     -0.2441
     22  OAD      -15.3280   38.7630   16.8360 O.co2 434  PL4434     -0.2441
     23  CAN      -16.8430   40.1130   14.8100 C.3   434  PL4434      0.0290
     24  CAL      -16.9210   41.3410   15.7460 C.3   434  PL4434      0.0041
     25  CA       -17.7710   43.1680   14.1370 C.3   434  PL4434      0.1943
     26  C        -19.0690   43.1920   14.9560 C.2   434  PL4434      0.3819
     27  OXT      -19.8500   42.2060   14.8410 O.co2 434  PL4434     -0.2441
     28  O        -19.2450   44.1930   15.6720 O.co2 434  PL4434     -0.2441
@<TRIPOS>BOND
     1     7     6    2
     2     5     6    1
     3     6     8    1
     4     6     9    1
     5     9    10    1
     6    10    11    1
     7     4    25    1
     8    25    26    1
     9    25     1    1
    10    11    17   ar
    11    11    12   ar
    12    18    17    1
    13    18    19    1
    14    23     3    1
    15    23    24    1
    16    27    26   ar
    17    17    15   ar
    18    26    28   ar
    19    12    13   ar
    20     1    24    1
    21     3    19    1
    22     3    20    1
    23    13    14   ar
    24    15    16    1
    25    15    14   ar
    26    14     2    1
    27    20    22   ar
    28    20    21   ar
