@<TRIPOS>MOLECULE
3ei8_PL5_B_1.pdb
 28 28 0 0 0
SMALL
GASTEIGER

@<TRIPOS>ATOM
      1  OAI      -31.9860   55.8520   29.2250 O.3   433  PL5433     -0.1145
      2  PBB      -32.7710   55.8930   27.8660 P.3   433  PL5433      0.5329
      3  OAJ      -33.8720   54.7520   27.8890 O.3   433  PL5433     -0.1145
      4  OAE      -31.8630   55.7220   26.6800 O.2   433  PL5433     -0.2224
      5  OAS      -33.5010   57.3200   27.7970 O.3   433  PL5433     -0.2653
      6  CAP      -32.7930   58.5060   27.3800 C.3   433  PL5433      0.1819
      7  CAW      -33.7240   59.7200   27.3420 C.ar  433  PL5433      0.0316
      8  CAL      -34.7540   59.7250   26.3880 C.ar  433  PL5433      0.0968
      9  NAR      -35.6060   60.7390   26.2730 N.ar  433  PL5433     -0.2452
     10  CAV      -35.5210   61.8000   27.0840 C.ar  433  PL5433      0.0981
     11  CAA      -36.5220   62.9420   26.9220 C.3   433  PL5433      0.0555
     12  CAX      -34.5250   61.8670   28.0530 C.ar  433  PL5433      0.2103
     13  OAH      -34.4590   62.9540   28.8530 O.3   433  PL5433     -0.2853
     14  CAY      -33.5960   60.8320   28.1860 C.ar  433  PL5433      0.0587
     15  CAK      -32.6210   60.9120   29.2010 C.2   433  PL5433      0.0967
     16  NAQ      -32.1070   62.0920   29.5360 N.2   433  PL5433     -0.2593
     17  CBA      -31.2410   62.3400   30.7040 C.3   433  PL5433      0.2057
     18  CAU      -31.0660   63.8520   30.8780 C.2   433  PL5433      0.3866
     19  OAG      -31.6760   64.6110   30.0880 O.co2 433  PL5433     -0.2435
     20  OAD      -30.2620   64.2360   31.7650 O.co2 433  PL5433     -0.2435
     21  CAO      -29.8880   61.5830   30.6680 C.3   433  PL5433      0.0360
     22  CAM      -28.8800   62.2220   29.7030 C.3   433  PL5433      0.0046
     23  CB       -27.5710   61.4150   29.6670 C.3   433  PL5433      0.0307
     24  CA       -27.7490   60.0570   28.9730 C.3   433  PL5433      0.1943
     25  C        -28.3770   60.2980   27.5990 C.2   433  PL5433      0.3819
     26  OXT      -27.6340   60.7940   26.7250 O.co2 433  PL5433     -0.2441
     27  O        -29.5910   60.0230   27.4750 O.co2 433  PL5433     -0.2441
     28  N        -26.4170   59.4320   28.8240 N.3   433  PL5433     -0.1208
@<TRIPOS>BOND
     1     9     8   ar
     2     9    10   ar
     3     8     7   ar
     4     4     2    2
     5    26    25   ar
     6    11    10    1
     7    10    12   ar
     8     7     6    1
     9     7    14   ar
    10     6     5    1
    11    27    25   ar
    12    25    24    1
    13     5     2    1
    14     2     3    1
    15     2     1    1
    16    12    14   ar
    17    12    13    1
    18    14    15    1
    19    28    24    1
    20    24    23    1
    21    15    16    2
    22    16    17    1
    23    23    22    1
    24    22    21    1
    25    19    18   ar
    26    21    17    1
    27    17    18    1
    28    18    20   ar
