@<TRIPOS>MOLECULE
3ei8_PLP_A_1.pdb
 15 15 0 0 0
SMALL
GASTEIGER

@<TRIPOS>ATOM
      1  N1       -20.4200   39.2680   12.6400 N.ar  433  PLP433     -0.2452
      2  C2       -20.5110   37.9960   12.2070 C.ar  433  PLP433      0.0978
      3  C2A      -19.5310   37.4580   11.1690 C.3   433  PLP433      0.0555
      4  C3       -21.4970   37.1500   12.7120 C.ar  433  PLP433      0.2049
      5  O3       -21.5890   35.8630   12.2920 O.3   433  PLP433     -0.2857
      6  C4       -22.3990   37.6280   13.6510 C.ar  433  PLP433      0.0182
      7  C4A      -23.3940   36.7740   14.1490 C.3   433  PLP433      0.0342
      8  C5       -22.2900   38.9550   14.0820 C.ar  433  PLP433      0.0261
      9  C6       -21.2650   39.7490   13.5440 C.ar  433  PLP433      0.0965
     10  C5A      -23.2190   39.5810   15.1320 C.3   433  PLP433      0.1815
     11  O4P      -22.6190   39.4200   16.4540 O.3   433  PLP433     -0.2653
     12  P        -23.3090   39.9510   17.8070 P.3   433  PLP433      0.5329
     13  O1P      -24.0480   38.7290   18.4000 O.3   433  PLP433     -0.1145
     14  O2P      -22.2380   40.4210   18.8390 O.3   433  PLP433     -0.1145
     15  O3P      -24.2680   41.0530   17.5460 O.2   433  PLP433     -0.2224
@<TRIPOS>BOND
     1     3     2    1
     2     2     1   ar
     3     2     4   ar
     4     5     4    1
     5     1     9   ar
     6     4     6   ar
     7     9     8   ar
     8     6     8   ar
     9     6     7    1
    10     8    10    1
    11    10    11    1
    12    11    12    1
    13    15    12    2
    14    12    13    1
    15    12    14    1
