@<TRIPOS>MOLECULE
3ei9_PL6_A_1.pdb
 25 25 0 0 0
SMALL
GASTEIGER

@<TRIPOS>ATOM
      1  OAE       45.5740   -1.5500  -18.3090 O.3   433  PL6433     -0.1145
      2  PAY       46.2490   -0.2900  -17.6720 P.3   433  PL6433      0.5329
      3  OAI       46.1310    0.8640  -18.7090 O.2   433  PL6433     -0.2224
      4  OAD       47.6770   -0.5260  -17.3080 O.3   433  PL6433     -0.1145
      5  OAQ       45.3700    0.0430  -16.3600 O.3   433  PL6433     -0.2653
      6  CAN       45.8310   -0.3110  -15.0350 C.3   433  PL6433      0.1819
      7  CAU       44.8660    0.2460  -13.9770 C.ar  433  PL6433      0.0316
      8  CAK       45.1130    1.5440  -13.5070 C.ar  433  PL6433      0.0968
      9  NAO       44.3310    2.1100  -12.5980 N.ar  433  PL6433     -0.2452
     10  CAT       43.2700    1.4630  -12.0940 C.ar  433  PL6433      0.0981
     11  CAA       42.3820    2.1200  -11.0380 C.3   433  PL6433      0.0555
     12  CAV       42.9670    0.1790  -12.5170 C.ar  433  PL6433      0.2103
     13  OAH       41.8880   -0.4690  -12.0050 O.3   433  PL6433     -0.2853
     14  CAW       43.7580   -0.4510  -13.4670 C.ar  433  PL6433      0.0587
     15  CAJ       43.3920   -1.7530  -13.8540 C.2   433  PL6433      0.0967
     16  N         42.9720   -2.5860  -12.9000 N.2   433  PL6433     -0.2593
     17  CA        42.5140   -3.9750  -13.1180 C.3   433  PL6433      0.2062
     18  C         41.9470   -4.5580  -11.8040 C.2   433  PL6433      0.3866
     19  OXT       41.9650   -3.8370  -10.7730 O.co2 433  PL6433     -0.2435
     20  O         41.5160   -5.7270  -11.8420 O.co2 433  PL6433     -0.2435
     21  CB        43.6400   -4.8570  -13.7050 C.3   433  PL6433      0.0477
     22  CG        44.7150   -5.2450  -12.6750 C.3   433  PL6433      0.1166
     23  CD        46.0630   -4.5440  -12.8780 C.2   433  PL6433      0.3649
     24  OE2       46.9780   -4.8570  -12.0760 O.co2 433  PL6433     -0.2457
     25  OE1       46.1710   -3.7110  -13.8150 O.co2 433  PL6433     -0.2457
@<TRIPOS>BOND
     1     3     2    2
     2     1     2    1
     3     2     4    1
     4     2     5    1
     5     5     6    1
     6     6     7    1
     7     7     8   ar
     8     7    14   ar
     9    15    14    1
    10    15    16    2
    11    25    23   ar
    12    21    17    1
    13    21    22    1
    14     8     9   ar
    15    14    12   ar
    16    17    16    1
    17    17    18    1
    18    23    22    1
    19    23    24   ar
    20     9    10   ar
    21    12    10   ar
    22    12    13    1
    23    10    11    1
    24    20    18   ar
    25    18    19   ar
