@<TRIPOS>MOLECULE
3eia_PL6_A_1.pdb
 25 25 0 0 0
SMALL
GASTEIGER

@<TRIPOS>ATOM
      1  OAE      -21.5010   40.4210   10.3150 O.3   434  PL6434     -0.1145
      2  PAY      -22.9130   40.4420   10.9850 P.3   434  PL6434      0.5329
      3  OAI      -23.7970   39.6780    9.8940 O.2   434  PL6434     -0.2224
      4  OAD      -23.5110   41.7550   11.3480 O.3   434  PL6434     -0.1145
      5  OAQ      -22.9120   39.4070   12.2530 O.3   434  PL6434     -0.2653
      6  CAN      -22.4150   39.8650   13.4010 C.3   434  PL6434      0.1819
      7  CAU      -22.4350   38.7380   14.4680 C.ar  434  PL6434      0.0316
      8  CAK      -23.7090   38.3560   14.9800 C.ar  434  PL6434      0.0968
      9  NAO      -23.8440   37.4270   15.9110 N.ar  434  PL6434     -0.2452
     10  CAT      -22.7500   36.8410   16.4140 C.ar  434  PL6434      0.0981
     11  CAA      -22.8810   35.7820   17.4970 C.3   434  PL6434      0.0555
     12  CAV      -21.4790   37.1560   15.9290 C.ar  434  PL6434      0.2103
     13  OAH      -20.3890   36.5490   16.4270 O.3   434  PL6434     -0.2853
     14  CAW      -21.2620   38.1030   14.9220 C.ar  434  PL6434      0.0587
     15  CAJ      -19.9040   38.4290   14.5130 C.2   434  PL6434      0.0967
     16  N        -18.9850   38.5820   15.5300 N.2   434  PL6434     -0.2593
     17  CA       -17.4940   38.9020   15.5530 C.3   434  PL6434      0.2062
     18  C        -16.7560   38.8770   16.9930 C.2   434  PL6434      0.3866
     19  OXT      -17.3730   38.8230   18.0500 O.co2 434  PL6434     -0.2435
     20  O        -15.5330   38.9470   17.0230 O.co2 434  PL6434     -0.2435
     21  CB       -17.2660   40.3030   14.8910 C.3   434  PL6434      0.0477
     22  CG       -17.5460   41.5320   15.8530 C.3   434  PL6434      0.1166
     23  CD       -18.9180   42.2780   15.6680 C.2   434  PL6434      0.3649
     24  OE2      -19.1200   43.1860   16.5480 O.co2 434  PL6434     -0.2457
     25  OE1      -19.7220   41.9340   14.6930 O.co2 434  PL6434     -0.2457
@<TRIPOS>BOND
     1     3     2    2
     2     1     2    1
     3     2     4    1
     4     2     5    1
     5     5     6    1
     6     6     7    1
     7     7    14   ar
     8     7     8   ar
     9    15    14    1
    10    15    16    2
    11    25    23   ar
    12    21    17    1
    13    21    22    1
    14    14    12   ar
    15     8     9   ar
    16    16    17    1
    17    17    18    1
    18    23    22    1
    19    23    24   ar
    20     9    10   ar
    21    12    10   ar
    22    12    13    1
    23    10    11    1
    24    18    20   ar
    25    18    19   ar
