@<TRIPOS>MOLECULE
3eib_PLP_A_1.pdb
 16 16 0 0 0
SMALL
GASTEIGER

@<TRIPOS>ATOM
      1  N1        44.4360    1.9850  -12.3880 N.ar  433  PLP433     -0.2452
      2  C2        43.3320    1.2660  -12.1060 C.ar  433  PLP433      0.0982
      3  C2A       42.3810    1.6820  -10.9940 C.3   433  PLP433      0.0555
      4  C3        43.0650    0.1060  -12.8130 C.ar  433  PLP433      0.2120
      5  O3        41.9660   -0.6510  -12.5610 O.3   433  PLP433     -0.2852
      6  C4        43.9370   -0.2910  -13.8040 C.ar  433  PLP433      0.0822
      7  C4A       43.5710   -1.5420  -14.5970 C.2   433  PLP433      0.2372
      8  O4A       42.8380   -1.3500  -15.5800 O.2   433  PLP433     -0.2830
      9  C5        45.0750    0.4730  -14.1020 C.ar  433  PLP433      0.0333
     10  C6        45.2900    1.6300  -13.3390 C.ar  433  PLP433      0.0969
     11  C5A       46.1130    0.1020  -15.1890 C.3   433  PLP433      0.1819
     12  O4P       45.5910    0.0560  -16.5350 O.3   433  PLP433     -0.2653
     13  P         46.5600   -0.3130  -17.7800 P.3   433  PLP433      0.5329
     14  O1P       45.8180   -1.5450  -18.4600 O.3   433  PLP433     -0.1145
     15  O2P       46.3650    0.8220  -18.8210 O.2   433  PLP433     -0.2224
     16  O3P       48.0180   -0.5070  -17.5220 O.3   433  PLP433     -0.1145
@<TRIPOS>BOND
     1    15    13    2
     2    14    13    1
     3    13    16    1
     4    13    12    1
     5    12    11    1
     6     8     7    2
     7    11     9    1
     8     7     6    1
     9     9     6   ar
    10     9    10   ar
    11     6     4   ar
    12    10     1   ar
    13     4     5    1
    14     4     2   ar
    15     1     2   ar
    16     2     3    1
