@<TRIPOS>MOLECULE
3eic_UDP_A_1.pdb
 25 26 0 0 0
SMALL
GASTEIGER

@<TRIPOS>ATOM
      1  N1       -15.9860   14.5580   15.3790 N.am  161  UDP161     -0.1996
      2  C2       -17.0670   14.6680   14.5040 C.1   161  UDP161      0.2802
      3  N3       -17.4600   15.9020   14.0160 N.2   161  UDP161     -0.2497
      4  C4       -16.7660   17.0380   14.4090 C.1   161  UDP161      0.1941
      5  C5       -15.6780   16.9250   15.2820 C.3   161  UDP161      0.1579
      6  C6       -15.4060   15.7000   15.8790 C.3   161  UDP161      0.1249
      7  O2       -17.7070   13.6780   14.1610 O.2   161  UDP161     -0.1922
      8  O4       -17.1130   18.1450   13.9830 O.2   161  UDP161     -0.2133
      9  C1'      -15.5730   13.2110   15.8740 C.3   161  UDP161      0.2361
     10  C2'      -14.2900   12.7780   15.1520 C.3   161  UDP161      0.2316
     11  O2'      -14.3580   11.4180   14.8020 O.3   161  UDP161     -0.2157
     12  C3'      -13.1950   12.9950   16.1710 C.3   161  UDP161      0.2158
     13  C4'      -13.9320   12.8130   17.5000 C.3   161  UDP161      0.1799
     14  O4'      -15.2760   13.2150   17.2620 O.3   161  UDP161     -0.3322
     15  O3'      -12.1260   12.0970   15.9990 O.3   161  UDP161     -0.2175
     16  C5'      -13.3610   13.6770   18.6120 C.3   161  UDP161      0.1813
     17  O5'      -13.3290   15.0060   18.1480 O.3   161  UDP161     -0.3111
     18  PA       -11.9660   15.8480   18.2100 P.3   161  UDP161      0.2231
     19  O1A      -11.4150   15.8080   19.5910 O.3   161  UDP161     -0.4370
     20  O2A      -12.2030   17.2380   17.7300 O.2   161  UDP161     -0.5169
     21  O3A      -10.9280   15.1730   17.1550 O.3   161  UDP161     -0.2261
     22  PB        -9.6260   14.2620   17.4900 P.3   161  UDP161      0.5373
     23  O1B       -8.6410   14.5190   16.4310 O.2   161  UDP161     -0.2221
     24  O2B      -10.0580   12.8360   17.4960 O.3   161  UDP161     -0.1143
     25  O3B       -8.9870   14.5920   18.7850 O.3   161  UDP161     -0.1143
@<TRIPOS>BOND
     1     8     4    2
     2     3     4    2
     3     3     2    2
     4     7     2    2
     5     4     5    1
     6     2     1   am
     7    11    10    1
     8    10     9    1
     9    10    12    1
    10     5     6    1
    11     1     9    1
    12     1     6    1
    13     9    14    1
    14    15    12    1
    15    12    13    1
    16    23    22    2
    17    21    22    1
    18    21    18    1
    19    14    13    1
    20    22    24    1
    21    22    25    1
    22    13    16    1
    23    20    18    2
    24    17    18    1
    25    17    16    1
    26    18    19    1
