@<TRIPOS>MOLECULE
3eid_PO5_A_1.pdb
 36 40 0 0 0
SMALL
GASTEIGER

@<TRIPOS>ATOM
      1  N1       -15.0850  204.8870  113.8830 N.ar  299  PO5299     -0.1466
      2  C4       -13.0640  205.6640  115.4820 C.ar  299  PO5299      0.0377
      3  C5       -13.0360  206.0050  114.1930 C.ar  299  PO5299      0.0240
      4  C6       -14.0690  205.6130  113.3380 C.ar  299  PO5299      0.1070
      5  C7       -14.3690  205.7680  112.0050 C.ar  299  PO5299      0.0709
      6  C8       -15.5990  205.0890  111.8460 C.ar  299  PO5299      0.1262
      7  C10      -13.5590  206.4510  111.0320 C.2   299  PO5299      0.1487
      8  C15      -14.1460  206.8730  109.8670 C.2   299  PO5299      0.0546
      9  C17       -9.5580  207.6650  111.8420 C.ar  299  PO5299      0.0828
     10  C20       -8.4210  208.0610  114.3300 C.ar  299  PO5299      0.1388
     11  C21       -7.6510  207.5770  113.2970 C.ar  299  PO5299      0.0383
     12  C22       -8.2260  207.3850  112.0600 C.ar  299  PO5299      0.0205
     13  C24       -6.5770  207.6490  115.5730 C.3   299  PO5299      0.2394
     14  N2       -15.1920  204.4950  115.1580 N.ar  299  PO5299     -0.1329
     15  C3       -14.2250  204.8660  115.9410 C.ar  299  PO5299      0.1536
     16  N9       -16.0300  204.5520  112.9900 N.ar  299  PO5299     -0.1462
     17  N11      -12.2620  206.6290  111.3020 N.2   299  PO5299     -0.3360
     18  C12      -11.5280  207.2610  110.3770 C.1   299  PO5299      0.1696
     19  N13      -12.0090  207.7070  109.2140 N.2   299  PO5299     -0.1683
     20  C14      -13.3060  207.5030  108.9860 C.2   299  PO5299      0.1144
     21  N16      -10.1600  207.4830  110.5870 N.pl3 299  PO5299     -0.1358
     22  C18      -10.3100  208.1490  112.8870 C.ar  299  PO5299      0.0205
     23  C19       -9.7520  208.3440  114.1300 C.ar  299  PO5299      0.0383
     24  O23       -7.8670  208.2500  115.5810 O.3   299  PO5299     -0.4727
     25  C25       -5.7950  208.2190  116.7330 C.3   299  PO5299      0.2112
     26  O26       -5.3740  209.5290  116.3640 O.3   299  PO5299     -0.2176
     27  C27       -6.6950  208.2700  117.9540 C.3   299  PO5299      0.1094
     28  N28       -5.8870  208.5500  119.1700 N.3   299  PO5299     -0.2681
     29  C29       -6.6890  209.1390  120.2750 C.3   299  PO5299      0.0897
     30  C30       -5.1000  207.3680  119.6020 C.3   299  PO5299      0.0897
     31  N31      -14.2360  204.5130  117.2700 N.pl3 299  PO5299     -0.2867
     32  C32      -14.6560  205.4510  118.3030 C.3   299  PO5299      0.1243
     33  C33      -15.2310  204.6720  119.4700 C.3   299  PO5299      0.1636
     34  O34      -14.2910  203.6760  119.8860 O.3   299  PO5299     -0.3501
     35  C35      -14.1470  202.6900  118.8680 C.3   299  PO5299      0.1636
     36  C36      -13.4640  203.3500  117.6940 C.3   299  PO5299      0.1243
@<TRIPOS>BOND
     1    20    19    1
     2    20     8    2
     3    19    18    2
     4     8     7    1
     5    18    21    1
     6    18    17    2
     7    21     9    1
     8     7    17    2
     9     7     5    1
    10     9    12   ar
    11     9    22   ar
    12     6     5   ar
    13     6    16   ar
    14     5     4   ar
    15    12    11   ar
    16    22    23   ar
    17    16     1   ar
    18    11    10   ar
    19     4     1   ar
    20     4     3   ar
    21     1    14   ar
    22    23    10   ar
    23     3     2   ar
    24    10    24    1
    25    14    15   ar
    26     2    15   ar
    27    13    24    1
    28    13    25    1
    29    15    31    1
    30    26    25    1
    31    25    27    1
    32    31    36    1
    33    31    32    1
    34    36    35    1
    35    27    28    1
    36    32    33    1
    37    35    34    1
    38    28    30    1
    39    28    29    1
    40    33    34    1
