@<TRIPOS>MOLECULE
3eig_MTX_A_1.pdb
 33 35 0 0 0
SMALL
GASTEIGER

@<TRIPOS>ATOM
      1  N1        13.7900   -8.0710  -15.3750 N.2   200  MTX200     -0.2684
      2  C2        13.5670   -8.1020  -14.0340 C.1   200  MTX200      0.2519
      3  NA2       13.3220   -9.3020  -13.4380 N.pl3 200  MTX200     -0.0226
      4  N3        13.6170   -6.9460  -13.2890 N.2   200  MTX200     -0.3033
      5  C4        13.8530   -5.7390  -13.8280 C.2   200  MTX200      0.2728
      6  NA4       13.8750   -4.5690  -13.1010 N.pl3 200  MTX200     -0.0887
      7  C4A       14.0970   -5.6660  -15.2410 C.2   200  MTX200      0.2518
      8  N5        14.3620   -4.4500  -15.8140 N.2   200  MTX200     -0.3917
      9  C6        14.5570   -4.4340  -17.1310 C.2   200  MTX200      0.1330
     10  C7        14.5080   -5.6550  -17.8760 C.3   200  MTX200      0.1930
     11  N8        14.2620   -6.8530  -17.3460 N.2   200  MTX200     -0.1998
     12  C8A       14.0540   -6.8690  -15.9790 C.1   200  MTX200      0.1314
     13  C9        14.8270   -3.0620  -17.6710 C.3   200  MTX200      0.1481
     14  N10       14.7650   -3.0040  -19.1580 N.pl3 200  MTX200     -0.2999
     15  CM        15.9530   -2.9930  -20.0180 C.3   200  MTX200      0.1125
     16  C11       10.9830   -3.6320  -20.9860 C.ar  200  MTX200      0.0551
     17  C12       11.0400   -3.5140  -19.5840 C.ar  200  MTX200      0.0058
     18  C13       12.2910   -3.2950  -19.0170 C.ar  200  MTX200      0.0147
     19  C14       13.4950   -3.2140  -19.7500 C.ar  200  MTX200      0.0482
     20  C15       13.3980   -3.3460  -21.1550 C.ar  200  MTX200      0.0147
     21  C16       12.1630   -3.5410  -21.7330 C.ar  200  MTX200      0.0058
     22  C          9.7410   -3.8570  -21.7510 C.2   200  MTX200      0.2652
     23  O          9.6030   -3.5050  -22.9290 O.2   200  MTX200     -0.2684
     24  N          8.6850   -4.2550  -20.9790 N.am  200  MTX200     -0.1918
     25  CA         7.3350   -4.2060  -21.5260 C.3   200  MTX200      0.1986
     26  CT         6.3420   -4.3580  -20.3940 C.2   200  MTX200      0.3842
     27  O1         5.1360   -4.2550  -20.6600 O.co2 200  MTX200     -0.2437
     28  O2         6.7960   -4.5330  -19.2370 O.co2 200  MTX200     -0.2437
     29  CB         7.1010   -5.3000  -22.5740 C.3   200  MTX200      0.0451
     30  CG         7.2440   -6.6640  -21.9120 C.3   200  MTX200      0.1164
     31  CD         7.3410   -7.7990  -22.9150 C.2   200  MTX200      0.3649
     32  OE1        7.3160   -7.5450  -24.1450 O.co2 200  MTX200     -0.2457
     33  OE2        7.4500   -8.9540  -22.4650 O.co2 200  MTX200     -0.2457
@<TRIPOS>BOND
     1    32    31   ar
     2    23    22    2
     3    31    33   ar
     4    31    30    1
     5    29    30    1
     6    29    25    1
     7    22    16    1
     8    22    24   am
     9    21    20   ar
    10    21    16   ar
    11    25    24    1
    12    25    26    1
    13    20    19   ar
    14    16    17   ar
    15    27    26   ar
    16    26    28   ar
    17    15    14    1
    18    19    14    1
    19    19    18   ar
    20    17    18   ar
    21    14    13    1
    22    10    11    1
    23    10     9    1
    24    13     9    1
    25    11    12    2
    26     9     8    2
    27    12     1    2
    28    12     7    1
    29     8     7    2
    30     1     2    2
    31     7     5    1
    32     2     3    1
    33     2     4    2
    34     5     4    2
    35     5     6    1
