@<TRIPOS>MOLECULE
3eih_AGS_A_1.pdb
 31 33 0 0 0
SMALL
GASTEIGER

@<TRIPOS>ATOM
      1  PG        -1.3240  -36.9640  -18.3860 P.3   501  AGS501      0.4340
      2  S1G       -1.4680  -38.3600  -16.8720 S.3   501  AGS501      0.0416
      3  O2G       -0.8060  -37.6200  -19.6610 O.2   501  AGS501     -0.2423
      4  O3G       -2.6540  -36.2030  -18.3780 O.3   501  AGS501     -0.1305
      5  PB         1.2930  -36.8060  -17.6440 P.3   501  AGS501      0.2262
      6  O1B        1.7380  -36.6590  -16.2100 O.3   501  AGS501     -0.4369
      7  O2B        1.3180  -38.1710  -18.2880 O.2   501  AGS501     -0.5168
      8  O3B       -0.1100  -36.0660  -17.8720 O.3   501  AGS501     -0.2405
      9  PA         1.7670  -35.2090  -19.9850 P.3   501  AGS501      0.2189
     10  O1A        3.0880  -34.7930  -20.5930 O.3   501  AGS501     -0.4371
     11  O2A        0.8450  -36.2010  -20.6650 O.2   501  AGS501     -0.5170
     12  O3A        2.1880  -35.8120  -18.5450 O.3   501  AGS501     -0.2701
     13  O5'        0.8770  -33.9060  -19.6950 O.3   501  AGS501     -0.3112
     14  C5'       -0.0770  -33.4650  -20.6550 C.3   501  AGS501      0.1813
     15  C4'        0.3950  -32.1480  -21.2760 C.3   501  AGS501      0.1821
     16  O4'        0.5400  -31.1250  -20.2920 O.3   501  AGS501     -0.3135
     17  C3'        1.7760  -32.1920  -21.9420 C.3   501  AGS501      0.2184
     18  O3'        1.8530  -32.8060  -23.2470 O.3   501  AGS501     -0.2174
     19  C2'        2.1590  -30.7350  -21.9800 C.3   501  AGS501      0.2570
     20  O2'        1.4160  -30.0670  -23.0060 O.3   501  AGS501     -0.2130
     21  C1'        1.6470  -30.2780  -20.6320 C.3   501  AGS501      0.3186
     22  N9         2.7210  -30.3530  -19.5970 N.pl3 501  AGS501     -0.1439
     23  C8         2.6260  -31.0440  -18.4450 C.3   501  AGS501      0.3377
     24  N7         3.7430  -30.9210  -17.6860 N.2   501  AGS501     -0.2095
     25  C5         4.5840  -30.1270  -18.3550 C.2   501  AGS501      0.2526
     26  C6         5.9360  -29.6030  -18.1000 C.2   501  AGS501      0.4393
     27  N6         6.5840  -29.9400  -16.9610 N.pl3 501  AGS501      0.2180
     28  N1         6.4890  -28.8050  -19.0460 N.2   501  AGS501      0.0021
     29  C2         5.8250  -28.5000  -20.1860 C.3   501  AGS501      0.5254
     30  N3         4.5870  -28.9480  -20.4790 N.2   501  AGS501     -0.0055
     31  C4         3.9210  -29.7510  -19.6160 C.2   501  AGS501      0.3518
@<TRIPOS>BOND
     1    18    17    1
     2    20    19    1
     3    19    17    1
     4    19    21    1
     5    17    15    1
     6    15    14    1
     7    15    16    1
     8    11     9    2
     9    14    13    1
    10    21    16    1
    11    21    22    1
    12    10     9    1
    13    30    29    1
    14    30    31    2
    15    29    28    1
    16     9    13    1
    17     9    12    1
    18     3     1    2
    19    31    22    1
    20    31    25    1
    21    22    23    1
    22    28    26    2
    23    12     5    1
    24    23    24    1
    25     1     4    1
    26     1     8    1
    27     1     2    1
    28    25    26    1
    29    25    24    2
    30     7     5    2
    31    26    27    1
    32     8     5    1
    33     5     6    1
