@<TRIPOS>MOLECULE
3ein_GSH_A_1.pdb
 20 19 0 0 0
SMALL
GASTEIGER

@<TRIPOS>ATOM
      1  N1        -6.6580   53.4680    0.6710 N.3   210  GSH210     -0.1208
      2  CA1       -8.0060   53.6240    1.0800 C.3   210  GSH210      0.1948
      3  C1        -8.2990   54.8200    1.8580 C.2   210  GSH210      0.3819
      4  O11       -9.3950   55.4320    1.8270 O.co2 210  GSH210     -0.2441
      5  O12       -7.3800   55.1310    2.6500 O.co2 210  GSH210     -0.2441
      6  CB1       -8.7160   52.3690    1.3430 C.3   210  GSH210      0.0402
      7  CG1      -10.2250   52.4160    1.3290 C.3   210  GSH210      0.0889
      8  CD1      -10.8240   51.0360    1.4310 C.2   210  GSH210      0.2418
      9  OE1      -10.1670   49.9360    0.9370 O.2   210  GSH210     -0.2733
     10  N2       -11.9870   50.8780    1.9890 N.am  210  GSH210     -0.1968
     11  CA2      -12.6790   49.6000    2.0690 C.3   210  GSH210      0.1843
     12  C2       -13.6710   49.4530    0.9620 C.2   210  GSH210      0.2627
     13  O2       -14.3640   50.5470    0.5530 O.2   210  GSH210     -0.2714
     14  CB2      -13.4110   49.5010    3.4120 C.3   210  GSH210      0.0997
     15  SG2      -12.3500   49.6320    4.8900 S.3   210  GSH210     -0.0797
     16  N3       -13.8740   48.2830    0.3910 N.am  210  GSH210     -0.1917
     17  CA3      -14.8740   48.0710   -0.6380 C.3   210  GSH210      0.2285
     18  C3       -14.3020   47.9670   -2.0290 C.2   210  GSH210      0.3865
     19  O31      -15.0340   47.5340   -2.9490 O.co2 210  GSH210     -0.2437
     20  O32      -13.1250   48.3100   -2.2650 O.co2 210  GSH210     -0.2437
@<TRIPOS>BOND
     1    19    18   ar
     2    20    18   ar
     3    18    17    1
     4    17    16    1
     5    16    12   am
     6    13    12    2
     7     1     2    1
     8     9     8    2
     9    12    11    1
    10     2     6    1
    11     2     3    1
    12     7     6    1
    13     7     8    1
    14     8    10   am
    15     4     3   ar
    16     3     5   ar
    17    10    11    1
    18    11    14    1
    19    14    15    1
