@<TRIPOS>MOLECULE
3eio_AJH_A_1.pdb
 33 35 0 0 0
SMALL
GASTEIGER

@<TRIPOS>ATOM
      1  CAP       47.1420   12.6010   25.7920 C.ar    1  AJH1        0.0047
      2  CAX       48.2620   13.3960   26.0230 C.ar    1  AJH1        0.0067
      3  CAO       49.4480   12.8340   26.4830 C.ar    1  AJH1        0.0798
      4  CAJ       50.6800   13.7150   26.7320 C.2     1  AJH1        0.3878
      5  OAW       51.3530   13.5240   27.7710 O.co2   1  AJH1       -0.2406
      6  OBD       50.9230   14.6170   25.9020 O.co2   1  AJH1       -0.2406
      7  CAY       49.5030   11.4630   26.7020 C.ar    1  AJH1        0.0067
      8  CAQ       48.3860   10.6680   26.4550 C.ar    1  AJH1        0.0047
      9  CAB       47.1800   11.2160   25.9980 C.ar    1  AJH1        0.0536
     10  CAA       46.0970   10.4340   25.9740 C.2     1  AJH1        0.2491
     11  OAN       46.3140    9.2230   25.9940 O.2     1  AJH1       -0.2699
     12  NAD       44.8490   10.8940   25.8590 N.am    1  AJH1       -0.2743
     13  CAR       44.5380   12.3120   26.0820 C.3     1  AJH1        0.1151
     14  CAS       44.3550   12.5150   27.5900 C.3     1  AJH1        0.1148
     15  CBE       43.7150    9.9610   25.7600 C.3     1  AJH1        0.0955
     16  CBC       43.3280    9.3210   27.0980 C.3     1  AJH1        0.0430
     17  CBF       43.6260   10.1780   28.3340 C.3     1  AJH1        0.0952
     18  NAE       43.3280   11.6040   28.1220 N.am    1  AJH1       -0.2777
     19  CAC       42.1270   12.1140   28.4300 C.2     1  AJH1        0.2272
     20  OAU       41.8570   13.3010   28.2770 O.2     1  AJH1       -0.2748
     21  CAF       41.0720   11.1610   29.0030 C.3     1  AJH1        0.1046
     22  CAV       39.7140   11.8580   29.1450 C.3     1  AJH1        0.1053
     23  NBG       38.7830   11.0590   29.9550 N.3     1  AJH1       -0.1320
     24  CAT       39.1140   12.1380   27.7660 C.3     1  AJH1        0.0482
     25  CAG       37.6740   12.6500   27.8790 C.ar    1  AJH1        0.0091
     26  CAM       37.5060   13.9820   28.2430 C.ar    1  AJH1        0.0300
     27  CAL       36.2430   14.5630   28.3470 C.ar    1  AJH1        0.1672
     28  FBB       36.1480   15.8530   28.7240 F       1  AJH1       -0.2018
     29  CAK       35.1200   13.7810   28.0760 C.ar    1  AJH1        0.1696
     30  FBA       33.8770   14.2970   28.0310 F       1  AJH1       -0.2017
     31  CAH       35.2830   12.4410   27.7350 C.ar    1  AJH1        0.0612
     32  CAI       36.5480   11.8800   27.6290 C.ar    1  AJH1        0.1386
     33  FAZ       36.6430   10.5820   27.2530 F       1  AJH1       -0.2044
@<TRIPOS>BOND
     1    15    12    1
     2    15    16    1
     3     1     9   ar
     4     1     2   ar
     5    12    10   am
     6    12    13    1
     7     6     4   ar
     8    10    11    2
     9    10     9    1
    10     9     8   ar
    11     2     3   ar
    12    13    14    1
    13     8     7   ar
    14     3     7   ar
    15     3     4    1
    16     4     5   ar
    17    16    17    1
    18    33    32    1
    19    14    18    1
    20    32    31   ar
    21    32    25   ar
    22    31    29   ar
    23    24    25    1
    24    24    22    1
    25    25    26   ar
    26    30    29    1
    27    29    27   ar
    28    18    17    1
    29    18    19   am
    30    26    27   ar
    31    20    19    2
    32    27    28    1
    33    19    21    1
    34    21    22    1
    35    22    23    1
