@<TRIPOS>MOLECULE
3eiu_AES_B_1.pdb
 13 13 0 0 0
SMALL
GASTEIGER

@<TRIPOS>ATOM
      1  C3       -45.2990  -23.7110   -8.2440 C.ar  461  AES461     -0.0028
      2  C2       -45.6980  -23.2540   -9.5030 C.ar  461  AES461      0.0208
      3  C1       -46.7780  -22.3730   -9.6280 C.ar  461  AES461      0.1382
      4  S        -47.2440  -21.8540  -11.0720 S.O2  461  AES461      0.1484
      5  F        -46.1070  -21.0680  -11.7680 F     461  AES461     -0.0562
      6  O1S      -48.3880  -20.9890  -10.9480 O.2   461  AES461     -0.1378
      7  O2S      -47.5730  -22.9900  -11.8920 O.2   461  AES461     -0.1378
      8  C6       -47.4580  -21.9550   -8.4830 C.ar  461  AES461      0.0208
      9  C5       -47.0590  -22.4090   -7.2270 C.ar  461  AES461     -0.0028
     10  C4       -45.9820  -23.2920   -7.1000 C.ar  461  AES461     -0.0206
     11  C7       -45.5410  -23.7860   -5.7350 C.3   461  AES461      0.0468
     12  C8       -46.7220  -24.0600   -4.8020 C.3   461  AES461      0.1140
     13  N8       -46.4420  -25.2230   -3.9760 N.3   461  AES461     -0.1310
@<TRIPOS>BOND
     1     7     4    2
     2     5     4    1
     3     4     6    2
     4     4     3    1
     5     3     2   ar
     6     3     8   ar
     7     2     1   ar
     8     8     9   ar
     9     1    10   ar
    10     9    10   ar
    11    10    11    1
    12    11    12    1
    13    12    13    1
