@<TRIPOS>MOLECULE
3eiu_ATP_A_1.pdb
 31 33 0 0 0
SMALL
GASTEIGER

@<TRIPOS>ATOM
      1  PG       -21.7560   -1.3680    2.6670 P.3   461  ATP461      0.5373
      2  O1G      -22.9470   -0.4380    2.6550 O.3   461  ATP461     -0.1143
      3  O2G      -22.1210   -2.8310    2.6220 O.3   461  ATP461     -0.1143
      4  O3G      -20.6620   -0.9780    1.7020 O.2   461  ATP461     -0.2221
      5  PB       -21.9210   -0.8740    5.4530 P.3   461  ATP461      0.2277
      6  O1B      -20.9830   -1.0180    6.6290 O.3   461  ATP461     -0.4368
      7  O2B      -23.1960   -1.6820    5.3880 O.2   461  ATP461     -0.5168
      8  O3B      -21.0690   -1.1750    4.1160 O.3   461  ATP461     -0.2258
      9  PA       -23.3050    1.4990    6.2650 P.3   461  ATP461      0.2189
     10  O1A      -24.1930    0.5260    7.0070 O.3   461  ATP461     -0.4371
     11  O2A      -23.9360    2.6060    5.4540 O.2   461  ATP461     -0.5170
     12  O3A      -22.2940    0.6910    5.2900 O.3   461  ATP461     -0.2700
     13  O5'      -22.3150    2.1870    7.3340 O.3   461  ATP461     -0.3112
     14  C5'      -21.1250    2.8420    6.9040 C.3   461  ATP461      0.1813
     15  C4'      -19.9610    2.3560    7.7580 C.3   461  ATP461      0.1821
     16  O4'      -18.8240    2.0810    6.9340 O.3   461  ATP461     -0.3135
     17  C3'      -19.5580    3.4150    8.7700 C.3   461  ATP461      0.2184
     18  O3'      -19.5670    2.8400   10.0800 O.3   461  ATP461     -0.2174
     19  C2'      -18.1650    3.8700    8.3650 C.3   461  ATP461      0.2570
     20  O2'      -17.2690    3.9000    9.4820 O.3   461  ATP461     -0.2130
     21  C1'      -17.6900    2.8640    7.3250 C.3   461  ATP461      0.3186
     22  N9       -17.1170    3.5640    6.1440 N.pl3 461  ATP461     -0.1439
     23  C8       -17.7940    3.9250    5.0360 C.3   461  ATP461      0.3377
     24  N7       -16.9810    4.5420    4.1430 N.2   461  ATP461     -0.2095
     25  C5       -15.7480    4.5830    4.6800 C.2   461  ATP461      0.2526
     26  C6       -14.4160    5.0960    4.2690 C.2   461  ATP461      0.4393
     27  N6       -14.2430    5.7040    3.0700 N.pl3 461  ATP461      0.2180
     28  N1       -13.3810    4.9370    5.1300 N.2   461  ATP461      0.0021
     29  C2       -13.5380    4.3340    6.3270 C.3   461  ATP461      0.5254
     30  N3       -14.7170    3.8460    6.7620 N.2   461  ATP461     -0.0055
     31  C4       -15.8400    3.9370    6.0000 C.2   461  ATP461      0.3518
@<TRIPOS>BOND
     1     4     1    2
     2     3     1    1
     3     2     1    1
     4     1     8    1
     5    27    26    1
     6     8     5    1
     7    24    25    2
     8    24    23    1
     9    26    25    1
    10    26    28    2
    11    25    31    1
    12    23    22    1
    13    28    29    1
    14    12     5    1
    15    12     9    1
    16     7     5    2
    17     5     6    1
    18    11     9    2
    19    31    22    1
    20    31    30    2
    21    22    21    1
    22     9    10    1
    23     9    13    1
    24    29    30    1
    25    14    13    1
    26    14    15    1
    27    16    21    1
    28    16    15    1
    29    21    19    1
    30    15    17    1
    31    19    17    1
    32    19    20    1
    33    17    18    1
