@<TRIPOS>MOLECULE
3ej0_11X_A_1.pdb
 14 15 0 0 0
SMALL
GASTEIGER

@<TRIPOS>ATOM
      1  N1        11.7460  -23.2570  -29.0760 N.ar  176  11X176     -0.2426
      2  C10        5.1910  -23.8870  -27.4260 C.ar  176  11X176      0.0161
      3  C11        3.9830  -23.2190  -27.3530 C.ar  176  11X176      0.0013
      4  C9         5.9740  -23.7960  -28.5660 C.ar  176  11X176      0.0657
      5  C14        5.5670  -23.0270  -29.6430 C.ar  176  11X176      0.0161
      6  C12        3.5710  -22.4630  -28.4370 C.ar  176  11X176      0.0001
      7  C13        4.3560  -22.3600  -29.5800 C.ar  176  11X176      0.0013
      8  C2        10.6070  -23.6860  -29.6590 C.ar  176  11X176      0.0963
      9  C4         9.3430  -23.0960  -27.7070 C.ar  176  11X176      0.0006
     10  C5        10.5330  -22.6630  -27.1370 C.ar  176  11X176      0.0204
     11  C6        11.7290  -22.7530  -27.8390 C.ar  176  11X176      0.0989
     12  C7         8.1170  -24.0920  -29.6560 C.3   176  11X176      0.1401
     13  C3         9.3870  -23.6100  -28.9920 C.ar  176  11X176      0.0185
     14  N8         7.1490  -24.4480  -28.6280 N.pl3 176  11X176     -0.2328
@<TRIPOS>BOND
     1     8     1   ar
     2     8    13   ar
     3    12    13    1
     4    12    14    1
     5     5     7   ar
     6     5     4   ar
     7     7     6   ar
     8     1    11   ar
     9    13     9   ar
    10    14     4    1
    11     4     2   ar
    12     6     3   ar
    13    11    10   ar
    14     9    10   ar
    15     2     3   ar
