@<TRIPOS>MOLECULE
3ej1_5BP_A_1.pdb
 19 22 0 0 0
SMALL
GASTEIGER

@<TRIPOS>ATOM
      1  N1       -16.2450  204.1280  113.0590 N.ar  299  5BP299     -0.1463
      2  C4       -14.3580  205.3010  113.4970 C.ar  299  5BP299      0.1069
      3  C5       -13.4450  205.8700  114.4040 C.ar  299  5BP299      0.0227
      4  C6       -13.6340  205.7480  115.7200 C.ar  299  5BP299      0.0241
      5  C7       -14.8390  204.9860  116.0980 C.ar  299  5BP299      0.1222
      6  C10      -13.5460  205.7910  111.1780 C.2   299  5BP299      0.1487
      7  C15      -13.9900  206.1410  109.9270 C.2   299  5BP299      0.0546
      8  C17       -9.8570  207.4100  112.2300 C.3   299  5BP299      0.1048
      9  C2       -15.6650  204.4950  111.9130 C.ar  299  5BP299      0.1262
     10  C3       -14.4760  205.2330  112.1260 C.ar  299  5BP299      0.0709
     11  N8       -15.7110  204.4420  115.3080 N.ar  299  5BP299     -0.1464
     12  N9       -15.4350  204.6290  114.0080 N.ar  299  5BP299     -0.1478
     13  N11      -12.2730  205.9310  111.5630 N.2   299  5BP299     -0.3363
     14  C12      -11.4200  206.4450  110.6690 C.1   299  5BP299      0.1651
     15  N13      -11.7470  206.8210  109.4300 N.2   299  5BP299     -0.1686
     16  C14      -13.0290  206.6590  109.0930 C.2   299  5BP299      0.1144
     17  N16      -10.0850  206.6090  111.0340 N.pl3 299  5BP299     -0.1639
     18  C18       -9.2160  206.8080  113.4420 C.3   299  5BP299      0.0242
     19  C19       -8.4760  207.8230  112.6280 C.3   299  5BP299      0.0242
@<TRIPOS>BOND
     1    16    15    1
     2    16     7    2
     3    15    14    2
     4     7     6    1
     5    14    17    1
     6    14    13    2
     7    17     8    1
     8     6    13    2
     9     6    10    1
    10     9    10   ar
    11     9     1   ar
    12    10     2   ar
    13     8    19    1
    14     8    18    1
    15    19    18    1
    16     1    12   ar
    17     2    12   ar
    18     2     3   ar
    19    12    11   ar
    20     3     4   ar
    21    11     5   ar
    22     4     5   ar
