@<TRIPOS>MOLECULE
3ej2_928_A_1.pdb
 15 16 0 0 0
SMALL
GASTEIGER

@<TRIPOS>ATOM
      1  N15        9.0640  -16.3020    5.2810 N.1   176  928176     -0.1907
      2  C14        9.0730  -17.1450    4.4870 C.1   176  928176      0.1050
      3  C4         9.0840  -18.1160    3.5710 C.ar  176  928176      0.1240
      4  C3         9.1610  -19.4760    3.8590 C.ar  176  928176      0.1337
      5  N2         9.1440  -20.1180    2.6460 N.ar  176  928176     -0.1615
      6  C5         9.0200  -17.9120    2.2160 C.ar  176  928176      0.1821
      7  N13        8.9370  -16.7220    1.5740 N.pl3 176  928176     -0.1064
      8  N1         9.0560  -19.1110    1.6640 N.ar  176  928176     -0.2122
      9  C6         9.0150  -19.3390    0.3480 C.ar  176  928176      0.0844
     10  C11        8.0670  -18.7450   -0.4850 C.ar  176  928176      0.0201
     11  C10        8.0120  -18.9730   -1.8550 C.ar  176  928176      0.0129
     12  C9         8.9270  -19.8250   -2.4510 C.ar  176  928176      0.0578
     13 CL12        8.8710  -20.1320   -4.2190 Cl    176  928176     -0.0822
     14  C8         9.8850  -20.4360   -1.6600 C.ar  176  928176      0.0129
     15  C7         9.9160  -20.1890   -0.2930 C.ar  176  928176      0.0201
@<TRIPOS>BOND
     1    13    12    1
     2    12    11   ar
     3    12    14   ar
     4    11    10   ar
     5    14    15   ar
     6    10     9   ar
     7    15     9   ar
     8     9     8    1
     9     7     6    1
    10     8     6   ar
    11     8     5   ar
    12     6     3   ar
    13     5     4   ar
    14     3     4   ar
    15     3     2    1
    16     2     1    3
