@<TRIPOS>MOLECULE
3ej5_EJ5_X_1.pdb
 21 22 0 0 0
SMALL
GASTEIGER

@<TRIPOS>ATOM
      1  CAF       -2.0670    9.4530    5.1680 C.ar  300  EJ5300     -0.0040
      2  CAH       -1.5940   10.5040    5.9710 C.ar  300  EJ5300      0.0063
      3  CAR       -0.4380   10.3470    6.7590 C.ar  300  EJ5300      0.0798
      4  CAO        0.1290   11.4790    7.6570 C.2   300  EJ5300      0.3878
      5  OAD        0.2580   11.2490    8.8900 O.co2 300  EJ5300     -0.2406
      6  OAB        0.4480   12.5620    7.1000 O.co2 300  EJ5300     -0.2406
      7  CAI        0.2330    9.1280    6.7280 C.ar  300  EJ5300      0.0063
      8  CAG       -0.2370    8.0980    5.9230 C.ar  300  EJ5300     -0.0040
      9  CAQ       -1.3890    8.2380    5.1420 C.ar  300  EJ5300     -0.0218
     10  CAK       -1.8800    7.0610    4.2680 C.3   300  EJ5300      0.0311
     11  CAJ       -0.8590    5.9010    4.2900 C.3   300  EJ5300      0.0323
     12  CAL       -0.9480    5.1070    5.6270 C.2   300  EJ5300     -0.0002
     13  CAT        0.3430    4.6980    6.3930 C.2   300  EJ5300      0.1860
     14  CAS        0.2860    4.0320    7.6490 C.1   300  EJ5300      0.2276
     15  OAE       -0.8760    3.7150    8.2490 O.2   300  EJ5300     -0.2078
     16  NAM        1.3560    3.6380    8.3530 N.2   300  EJ5300     -0.2489
     17  CAP        2.5830    3.8560    7.8980 C.1   300  EJ5300      0.2621
     18  NAA        3.6170    3.4450    8.6410 N.pl3 300  EJ5300     -0.0220
     19  NAN        2.7330    4.5090    6.6480 N.2   300  EJ5300     -0.2489
     20  CAU        1.6290    4.9290    5.8980 C.1   300  EJ5300      0.2276
     21  OAC        1.8260    5.4980    4.8130 O.2   300  EJ5300     -0.2078
@<TRIPOS>BOND
     1    10    11    1
     2    10     9    1
     3    11    12    1
     4    21    20    2
     5     9     1   ar
     6     9     8   ar
     7     1     2   ar
     8    12    13    2
     9    20    13    1
    10    20    19    2
    11     8     7   ar
    12     2     3   ar
    13    13    14    1
    14    19    17    2
    15     7     3   ar
    16     3     4    1
    17     6     4   ar
    18    14    15    2
    19    14    16    2
    20     4     5   ar
    21    17    16    2
    22    17    18    1
