@<TRIPOS>MOLECULE
3ej6_HEM_A_1.pdb
 43 50 0 0 0
SMALL
GASTEIGER

@<TRIPOS>ATOM
      1  CHA      -13.0750   -9.0130   18.4250 C.2   4000  HEM4000     0.0000
      2  CHB      -16.4660  -11.9390   16.5420 C.2   4000  HEM4000     0.0000
      3  CHC      -14.9620  -10.7190   12.0830 C.2   4000  HEM4000     0.0000
      4  CHD      -11.0420   -8.5550   13.9790 C.2   4000  HEM4000     0.0000
      5  C1A      -14.1360   -9.8900   18.3240 C.2   4000  HEM4000     0.0000
      6  C2A      -14.9240  -10.4410   19.4120 C.2   4000  HEM4000     0.0000
      7  C3A      -15.8540  -11.2440   18.8910 C.2   4000  HEM4000     0.0000
      8  C4A      -15.7020  -11.2370   17.4510 C.2   4000  HEM4000     0.0000
      9  CMA      -16.9080  -12.0410   19.6900 C.3   4000  HEM4000     0.0000
     10  CAA      -14.7340  -10.1670   20.9190 C.3   4000  HEM4000     0.0000
     11  CBA      -14.0610  -11.3790   21.5580 C.3   4000  HEM4000     0.0000
     12  CGA      -14.2140  -11.3120   23.0520 C.2   4000  HEM4000     0.0000
     13  O1A      -13.2890  -10.7950   23.7270 O.co2 4000  HEM4000     0.0000
     14  O2A      -15.2620  -11.7800   23.5650 O.co2 4000  HEM4000     0.0000
     15  C1B      -16.3740  -11.8530   15.1690 C.ar  4000  HEM4000     0.0000
     16  C2B      -17.2340  -12.5120   14.2060 C.ar  4000  HEM4000     0.0000
     17  C3B      -16.8230  -12.1790   12.9820 C.ar  4000  HEM4000     0.0000
     18  C4B      -15.6830  -11.2920   13.1120 C.ar  4000  HEM4000     0.0000
     19  CMB      -18.4210  -13.4430   14.5310 C.3   4000  HEM4000     0.0000
     20  CAB      -17.4700  -12.6630   11.6670 C.2   4000  HEM4000     0.0000
     21  CBB      -16.7410  -13.3020   10.7510 C.2   4000  HEM4000     0.0000
     22  C1C      -13.7300  -10.1060   12.2020 C.2   4000  HEM4000     0.0000
     23  C2C      -12.8050   -9.8110   11.1250 C.2   4000  HEM4000     0.0000
     24  C3C      -11.7280   -9.2180   11.6450 C.2   4000  HEM4000     0.0000
     25  C4C      -11.9240   -9.1100   13.0770 C.2   4000  HEM4000     0.0000
     26  CMC      -13.0200  -10.1280    9.6300 C.3   4000  HEM4000     0.0000
     27  CAC      -10.4920   -8.7330   10.8560 C.2   4000  HEM4000     0.0000
     28  CBC       -9.7380   -9.6100   10.1860 C.2   4000  HEM4000     0.0000
     29  C1D      -11.1920   -8.5080   15.3490 C.ar  4000  HEM4000     0.0000
     30  C2D      -10.1900   -8.0400   16.2780 C.ar  4000  HEM4000     0.0000
     31  C3D      -10.8300   -8.1810   17.6630 C.ar  4000  HEM4000     0.0000
     32  C4D      -12.1490   -8.7260   17.4400 C.ar  4000  HEM4000     0.0000
     33  CMD       -8.7770   -7.5070   15.9510 C.3   4000  HEM4000     0.0000
     34  CAD      -10.1880   -7.8300   19.0160 C.3   4000  HEM4000     0.0000
     35  CBD       -9.5590   -9.1060   19.5630 C.3   4000  HEM4000     0.0000
     36  CGD       -9.0400   -8.8860   20.9560 C.2   4000  HEM4000     0.0000
     37  O1D       -9.0270   -9.8730   21.7340 O.co2 4000  HEM4000     0.0000
     38  O2D       -8.6410   -7.7390   21.2860 O.co2 4000  HEM4000     0.0000
     39  NA       -14.6470  -10.3980   17.1450 N.2   4000  HEM4000     0.0000
     40  NB       -15.4380  -11.1180   14.4620 N.ar  4000  HEM4000     0.0000
     41  NC       -13.1560   -9.6630   13.3790 N.2   4000  HEM4000     0.0000
     42  ND       -12.3230   -8.8950   16.0680 N.ar  4000  HEM4000     0.0000
     43 FE        -13.8710  -10.0300   15.2760 Fe    4000  HEM4000     0.0000
@<TRIPOS>BOND
     1    26    23    1
     2    28    27    2
     3    21    20    2
     4    27    24    1
     5    23    24    2
     6    23    22    1
     7    24    25    1
     8    20    17    1
     9     3    22    2
    10     3    18    1
    11    22    41    1
    12    17    18   ar
    13    17    16   ar
    14    25    41    2
    15    25     4    1
    16    18    40   ar
    17    41    43    1
    18     4    29    2
    19    16    19    1
    20    16    15   ar
    21    40    15   ar
    22    40    43    1
    23    15     2    1
    24    43    42    1
    25    43    39    1
    26    29    42   ar
    27    29    30   ar
    28    33    30    1
    29    42    32   ar
    30    30    31   ar
    31     2     8    2
    32    39     8    1
    33    39     5    2
    34    32    31   ar
    35    32     1    2
    36     8     7    1
    37    31    34    1
    38     5     1    1
    39     5     6    1
    40     7     6    2
    41     7     9    1
    42    34    35    1
    43     6    10    1
    44    35    36    1
    45    10    11    1
    46    36    38   ar
    47    36    37   ar
    48    11    12    1
    49    12    14   ar
    50    12    13   ar
