@<TRIPOS>MOLECULE
3ej8_H4B_A_1.pdb
 17 18 0 0 0
SMALL
GASTEIGER

@<TRIPOS>ATOM
      1  N1        65.0440   18.2490   78.8530 N.2   1902  H4B1902    -0.2672
      2  C2        63.7370   18.7290   78.8430 C.1   1902  H4B1902     0.2609
      3  N2        63.3670   19.6460   79.8000 N.pl3 1902  H4B1902    -0.0220
      4  N3        62.7830   18.2920   77.8790 N.2   1902  H4B1902    -0.2466
      5  C4        63.1290   17.3100   76.8390 C.1   1902  H4B1902     0.2569
      6  O4        62.2430   16.9720   76.0320 O.2   1902  H4B1902    -0.2052
      7  C4A       64.4870   16.8060   76.8470 C.2   1902  H4B1902     0.2989
      8  C8A       65.4080   17.2930   77.8600 C.1   1902  H4B1902     0.1401
      9  N5        64.8380   15.8670   75.8870 N.2   1902  H4B1902    -0.3830
     10  N8        66.7170   16.7630   77.8440 N.2   1902  H4B1902    -0.1992
     11  C6        66.1560   15.3100   75.8700 C.2   1902  H4B1902     0.1466
     12  C7        67.1990   15.7470   76.8920 C.3   1902  H4B1902     0.1940
     13  C9        66.3930   14.2830   74.8320 C.3   1902  H4B1902     0.2313
     14  O9        65.3090   14.1230   73.9060 O.3   1902  H4B1902    -0.2130
     15  C10       67.2540   13.0090   74.9930 C.3   1902  H4B1902     0.1888
     16  C11       68.5870   13.0640   74.2610 C.3   1902  H4B1902     0.0387
     17  O10       67.5350   12.4740   76.3000 O.3   1902  H4B1902    -0.2200
@<TRIPOS>BOND
     1    14    13    1
     2    16    15    1
     3    13    15    1
     4    13    11    1
     5    15    17    1
     6    11     9    2
     7    11    12    1
     8     9     7    2
     9     6     5    2
    10     5     7    1
    11     5     4    2
    12     7     8    1
    13    12    10    1
    14    10     8    2
    15     8     1    2
    16     4     2    2
    17     2     1    2
    18     2     3    1
