@<TRIPOS>MOLECULE
3ej8_HEC_A_1.pdb
 43 50 0 0 0
SMALL
GASTEIGER

@<TRIPOS>ATOM
      1 FE         56.4300   21.2250   85.6630 Fe    1901  HEC1901     0.0000
      2  CHA       58.1770   19.2010   83.5770 C.2   1901  HEC1901     0.0000
      3  CHB       57.7520   24.0140   84.2160 C.2   1901  HEC1901     0.0000
      4  CHC       54.1770   23.1530   87.3550 C.2   1901  HEC1901     0.0000
      5  CHD       54.8390   18.3270   86.9250 C.2   1901  HEC1901     0.0000
      6  NA        57.6980   21.5450   84.2090 N.ar  1901  HEC1901     0.0000
      7  C1A       58.3260   20.5930   83.4280 C.ar  1901  HEC1901     0.0000
      8  C2A       59.1560   21.2380   82.4140 C.ar  1901  HEC1901     0.0000
      9  C3A       59.0550   22.5860   82.5980 C.ar  1901  HEC1901     0.0000
     10  C4A       58.1470   22.7710   83.7080 C.ar  1901  HEC1901     0.0000
     11  CMA       59.7460   23.6900   81.7750 C.3   1901  HEC1901     0.0000
     12  CAA       59.9700   20.5270   81.3300 C.3   1901  HEC1901     0.0000
     13  CBA       58.9900   20.0340   80.2320 C.3   1901  HEC1901     0.0000
     14  CGA       59.5780   19.6090   78.9020 C.2   1901  HEC1901     0.0000
     15  O1A       60.6840   20.0570   78.5410 O.co2 1901  HEC1901     0.0000
     16  O2A       58.9120   18.8210   78.1970 O.co2 1901  HEC1901     0.0000
     17  NB        56.1310   23.1690   85.8590 N.2   1901  HEC1901     0.0000
     18  C1B       56.8130   24.2030   85.2510 C.2   1901  HEC1901     0.0000
     19  C2B       56.3110   25.4770   85.6120 C.2   1901  HEC1901     0.0000
     20  C3B       55.2690   25.2460   86.4330 C.2   1901  HEC1901     0.0000
     21  C4B       55.1540   23.8040   86.5840 C.2   1901  HEC1901     0.0000
     22  CMB       56.8540   26.8350   85.1270 C.3   1901  HEC1901     0.0000
     23  CAB       54.3470   26.2940   87.0890 C.3   1901  HEC1901     0.0000
     24  CBB       54.2790   26.4110   88.6020 C.3   1901  HEC1901     0.0000
     25  NC        54.8850   20.8240   86.8750 N.ar  1901  HEC1901     0.0000
     26  C1C       54.0530   21.7610   87.4910 C.ar  1901  HEC1901     0.0000
     27  C2C       53.0090   21.1210   88.3000 C.ar  1901  HEC1901     0.0000
     28  C3C       53.2220   19.7710   88.1840 C.ar  1901  HEC1901     0.0000
     29  C4C       54.3670   19.5910   87.3020 C.ar  1901  HEC1901     0.0000
     30  CMC       51.9000   21.8560   89.1020 C.3   1901  HEC1901     0.0000
     31  CAC       52.4380   18.6020   88.7980 C.3   1901  HEC1901     0.0000
     32  CBC       51.6670   18.6730   90.1060 C.3   1901  HEC1901     0.0000
     33  ND        56.5280   19.1620   85.3660 N.2   1901  HEC1901     0.0000
     34  C1D       55.8510   18.1130   86.0080 C.2   1901  HEC1901     0.0000
     35  C2D       56.2980   16.7990   85.5670 C.2   1901  HEC1901     0.0000
     36  C3D       57.2350   17.0680   84.6050 C.2   1901  HEC1901     0.0000
     37  C4D       57.3550   18.5190   84.4860 C.2   1901  HEC1901     0.0000
     38  CMD       55.7990   15.4080   86.0370 C.3   1901  HEC1901     0.0000
     39  CAD       58.0270   16.0690   83.7510 C.3   1901  HEC1901     0.0000
     40  CBD       57.2820   15.9790   82.4000 C.3   1901  HEC1901     0.0000
     41  CGD       57.6760   14.8210   81.4810 C.2   1901  HEC1901     0.0000
     42  O1D       57.0860   14.7300   80.3820 O.co2 1901  HEC1901     0.0000
     43  O2D       58.5600   14.0070   81.8350 O.co2 1901  HEC1901     0.0000
@<TRIPOS>BOND
     1    16    14   ar
     2    15    14   ar
     3    14    13    1
     4    13    12    1
     5    42    41   ar
     6    12     8    1
     7    41    43   ar
     8    41    40    1
     9    11     9    1
    10    40    39    1
    11     8     9   ar
    12     8     7   ar
    13     9    10   ar
    14     7     2    2
    15     7     6   ar
    16     2    37    1
    17    10     6   ar
    18    10     3    2
    19    39    36    1
    20     6     1    1
    21     3    18    1
    22    37    36    1
    23    37    33    2
    24    36    35    2
    25    22    19    1
    26    18    19    1
    27    18    17    2
    28    33     1    1
    29    33    34    1
    30    35    34    1
    31    35    38    1
    32    19    20    2
    33     1    17    1
    34     1    25    1
    35    17    21    1
    36    34     5    2
    37    20    21    1
    38    20    23    1
    39    21     4    2
    40    25    29   ar
    41    25    26   ar
    42     5    29    1
    43    23    24    1
    44    29    28   ar
    45     4    26    1
    46    26    27   ar
    47    28    27   ar
    48    28    31    1
    49    27    30    1
    50    31    32    1
