@<TRIPOS>MOLECULE
3ejb_ZMP_A_1.pdb
 36 35 0 0 0
SMALL
GASTEIGER

@<TRIPOS>ATOM
      1  O7        67.9700   17.3280   88.3290 O.3    99  ZMP99      -0.1425
      2  P1        68.1140   17.6100   89.9720 P.3    99  ZMP99       0.3942
      3  O6        69.4380   18.4690   90.5200 O.3    99  ZMP99      -0.1425
      4  O5        66.5700   17.7610   90.9440 O.3    99  ZMP99      -0.2952
      5  C21       65.9530   19.0430   91.0470 C.3    99  ZMP99       0.1537
      6  C18       64.4940   18.8920   91.4600 C.3    99  ZMP99       0.0646
      7  C19       63.9650   17.5630   90.9340 C.3    99  ZMP99       0.0056
      8  C20       63.6890   20.0300   90.8520 C.3    99  ZMP99       0.0056
      9  C17       64.3890   18.9910   92.9850 C.3    99  ZMP99       0.2312
     10  O4        65.6210   18.6100   93.5990 O.3    99  ZMP99      -0.2131
     11  C16       63.2490   18.1930   93.5620 C.2    99  ZMP99       0.2719
     12  O3        63.0080   16.9460   93.1610 O.2    99  ZMP99      -0.2706
     13  N2        62.5320   18.7280   94.4530 N.am   99  ZMP99      -0.2028
     14  C15       61.3890   18.1690   95.1630 C.3    99  ZMP99       0.1248
     15  C14       60.1980   18.3020   94.2180 C.3    99  ZMP99       0.1102
     16  C13       59.7910   19.7490   94.0380 C.2    99  ZMP99       0.2432
     17  O2        60.6980   20.7220   94.0890 O.2    99  ZMP99      -0.2733
     18  N1        58.5810   20.0370   93.8290 N.am   99  ZMP99      -0.2044
     19  C12       58.0160   21.3610   93.6060 C.3    99  ZMP99       0.1272
     20  C11       57.2920   21.7480   94.8900 C.3    99  ZMP99       0.0883
     21  S1        55.8190   22.6530   94.5170 S.3    99  ZMP99      -0.0753
     22  C10       55.9950   23.6110   93.0420 C.2    99  ZMP99       0.1988
     23  O1        57.1940   23.7740   92.4950 O.2    99  ZMP99      -0.2845
     24  C9        54.8070   24.4010   92.4970 C.3    99  ZMP99       0.0759
     25  C8        53.4800   23.7120   92.7940 C.3    99  ZMP99       0.0087
     26  C7        52.5570   24.6150   93.6040 C.3    99  ZMP99       0.0005
     27  C6        51.6430   25.4290   92.6960 C.3    99  ZMP99       0.0000
     28  C5        50.1990   24.9500   92.7830 C.3    99  ZMP99       0.0000
     29  C4        49.4730   25.1850   91.4630 C.3    99  ZMP99       0.0000
     30  C3        48.1730   24.3910   91.3900 C.3    99  ZMP99       0.0000
     31  C2        48.4410   22.8930   91.2920 C.3    99  ZMP99       0.0000
     32  C1        48.9130   22.2760   89.9800 C.3    99  ZMP99       0.0000
     33  C22       49.8500   21.0730   90.0040 C.3    99  ZMP99       0.0000
     34  C23       50.1600   20.5700   88.5990 C.3    99  ZMP99       0.0000
     35  C24       51.2970   19.5550   88.6280 C.3    99  ZMP99       0.0000
     36  C25       51.2030   18.5800   87.4600 C.3    99  ZMP99       0.0000
@<TRIPOS>BOND
     1    36    35    1
     2     1     2    1
     3    34    35    1
     4    34    33    1
     5     2     3    1
     6     2     4    1
     7    32    33    1
     8    32    31    1
     9     8     6    1
    10     7     6    1
    11     4     5    1
    12     5     6    1
    13    31    30    1
    14    30    29    1
    15     6     9    1
    16    29    28    1
    17    23    22    2
    18    24    25    1
    19    24    22    1
    20    27    28    1
    21    27    26    1
    22    25    26    1
    23     9    11    1
    24     9    10    1
    25    22    21    1
    26    12    11    2
    27    11    13   am
    28    19    18    1
    29    19    20    1
    30    18    16   am
    31    16    17    2
    32    16    15    1
    33    15    14    1
    34    13    14    1
    35    21    20    1
