@<TRIPOS>MOLECULE
3ejb_HEM_B_1.pdb
 43 50 0 0 0
SMALL
GASTEIGER

@<TRIPOS>ATOM
      1 FE         46.4260   28.3870   90.8740 Fe    405  HEM405      0.0000
      2  CHA       49.5920   29.0410   89.6650 C.2   405  HEM405      0.0000
      3  CHB       45.4190   27.5820   87.6610 C.2   405  HEM405      0.0000
      4  CHC       43.2790   27.6330   92.0270 C.2   405  HEM405      0.0000
      5  CHD       47.5750   28.5540   94.1080 C.2   405  HEM405      0.0000
      6  NA        47.3330   28.3290   89.0080 N.ar  405  HEM405      0.0000
      7  C1A       48.6580   28.6190   88.7450 C.ar  405  HEM405      0.0000
      8  C2A       48.8910   28.4130   87.3290 C.ar  405  HEM405      0.0000
      9  C3A       47.7420   28.0150   86.7750 C.ar  405  HEM405      0.0000
     10  C4A       46.7370   27.9520   87.8190 C.ar  405  HEM405      0.0000
     11  CMA       47.5220   27.6740   85.2850 C.3   405  HEM405      0.0000
     12  CAA       50.2360   28.6180   86.5940 C.3   405  HEM405      0.0000
     13  CBA       50.3600   30.0750   86.1610 C.3   405  HEM405      0.0000
     14  CGA       51.7320   30.3480   85.6000 C.2   405  HEM405      0.0000
     15  O1A       51.9160   31.4250   84.9770 O.co2 405  HEM405      0.0000
     16  O2A       52.6450   29.5000   85.7770 O.co2 405  HEM405      0.0000
     17  NB        44.6910   27.6650   90.0130 N.2   405  HEM405      0.0000
     18  C1B       44.4650   27.5330   88.6550 C.2   405  HEM405      0.0000
     19  C2B       43.0450   27.3330   88.4570 C.2   405  HEM405      0.0000
     20  C3B       42.4520   27.3470   89.6590 C.2   405  HEM405      0.0000
     21  C4B       43.4770   27.5570   90.6630 C.2   405  HEM405      0.0000
     22  CMB       42.3580   27.1440   87.0870 C.3   405  HEM405      0.0000
     23  CAB       40.9440   27.1840   89.9490 C.2   405  HEM405      0.0000
     24  CBB       40.2370   26.2100   89.3690 C.2   405  HEM405      0.0000
     25  NC        45.5920   28.1000   92.7230 N.ar  405  HEM405      0.0000
     26  C1C       44.2530   27.8680   92.9780 C.ar  405  HEM405      0.0000
     27  C2C       44.0590   27.9210   94.4140 C.ar  405  HEM405      0.0000
     28  C3C       45.2440   28.1770   94.9820 C.ar  405  HEM405      0.0000
     29  C4C       46.2330   28.2940   93.9300 C.ar  405  HEM405      0.0000
     30  CMC       42.7160   27.7220   95.1530 C.3   405  HEM405      0.0000
     31  CAC       45.5280   28.3160   96.4930 C.2   405  HEM405      0.0000
     32  CBC       45.1850   29.4310   97.1430 C.2   405  HEM405      0.0000
     33  ND        48.3030   28.7050   91.7500 N.2   405  HEM405      0.0000
     34  C1D       48.5010   28.8270   93.1260 C.2   405  HEM405      0.0000
     35  C2D       49.8500   29.2880   93.3610 C.2   405  HEM405      0.0000
     36  C3D       50.4790   29.4410   91.9750 C.2   405  HEM405      0.0000
     37  C4D       49.4510   29.0540   91.0370 C.2   405  HEM405      0.0000
     38  CMD       50.5150   29.5610   94.7270 C.3   405  HEM405      0.0000
     39  CAD       51.9140   29.9120   91.6480 C.3   405  HEM405      0.0000
     40  CBD       52.8790   28.7370   91.7500 C.3   405  HEM405      0.0000
     41  CGD       54.2840   29.2190   91.4900 C.2   405  HEM405      0.0000
     42  O1D       55.2040   28.3680   91.4000 O.co2 405  HEM405      0.0000
     43  O2D       54.4840   30.4540   91.3750 O.co2 405  HEM405      0.0000
@<TRIPOS>BOND
     1    15    14   ar
     2    11     9    1
     3    14    16   ar
     4    14    13    1
     5    13    12    1
     6    12     8    1
     7     9     8   ar
     8     9    10   ar
     9    22    19    1
    10     8     7   ar
    11     3    10    2
    12     3    18    1
    13    10     6   ar
    14    19    18    1
    15    19    20    2
    16    18    17    2
    17     7     6   ar
    18     7     2    2
    19     6     1    1
    20    24    23    2
    21    20    23    1
    22    20    21    1
    23     2    37    1
    24    17    21    1
    25    17     1    1
    26    21     4    2
    27     1    33    1
    28     1    25    1
    29    37    33    2
    30    37    36    1
    31    43    41   ar
    32    42    41   ar
    33    41    40    1
    34    39    40    1
    35    39    36    1
    36    33    34    1
    37    36    35    2
    38     4    26    1
    39    25    26   ar
    40    25    29   ar
    41    26    27   ar
    42    34    35    1
    43    34     5    2
    44    35    38    1
    45    29     5    1
    46    29    28   ar
    47    27    28   ar
    48    27    30    1
    49    28    31    1
    50    31    32    2
