@<TRIPOS>MOLECULE
3ejd_HEM_B_1.pdb
 43 50 0 0 0
SMALL
GASTEIGER

@<TRIPOS>ATOM
      1 FE         46.4460   28.5180   90.7090 Fe    405  HEM405      0.0000
      2  CHA       49.6390   29.1090   89.5070 C.2   405  HEM405      0.0000
      3  CHB       45.4680   27.6530   87.5170 C.2   405  HEM405      0.0000
      4  CHC       43.2880   27.8050   91.8660 C.2   405  HEM405      0.0000
      5  CHD       47.5800   28.6760   93.9400 C.2   405  HEM405      0.0000
      6  NA        47.3890   28.4020   88.8410 N.ar  405  HEM405      0.0000
      7  C1A       48.7160   28.6730   88.5790 C.ar  405  HEM405      0.0000
      8  C2A       48.9520   28.4360   87.1670 C.ar  405  HEM405      0.0000
      9  C3A       47.7960   28.0320   86.6230 C.ar  405  HEM405      0.0000
     10  C4A       46.7900   28.0110   87.6660 C.ar  405  HEM405      0.0000
     11  CMA       47.5470   27.6580   85.1470 C.3   405  HEM405      0.0000
     12  CAA       50.3050   28.6130   86.4330 C.3   405  HEM405      0.0000
     13  CBA       50.4110   30.0330   85.8880 C.3   405  HEM405      0.0000
     14  CGA       51.8300   30.3680   85.4960 C.2   405  HEM405      0.0000
     15  O1A       52.0450   31.5080   85.0200 O.co2 405  HEM405      0.0000
     16  O2A       52.7470   29.5180   85.6520 O.co2 405  HEM405      0.0000
     17  NB        44.7240   27.8030   89.8600 N.2   405  HEM405      0.0000
     18  C1B       44.5110   27.6190   88.5060 C.2   405  HEM405      0.0000
     19  C2B       43.0970   27.3790   88.3060 C.2   405  HEM405      0.0000
     20  C3B       42.4950   27.4150   89.5040 C.2   405  HEM405      0.0000
     21  C4B       43.5060   27.6860   90.5070 C.2   405  HEM405      0.0000
     22  CMB       42.4260   27.1310   86.9380 C.3   405  HEM405      0.0000
     23  CAB       40.9880   27.2420   89.8010 C.2   405  HEM405      0.0000
     24  CBB       40.2230   26.4200   89.0780 C.2   405  HEM405      0.0000
     25  NC        45.5900   28.2510   92.5720 N.ar  405  HEM405      0.0000
     26  C1C       44.2550   28.0130   92.8270 C.ar  405  HEM405      0.0000
     27  C2C       44.0690   28.0290   94.2680 C.ar  405  HEM405      0.0000
     28  C3C       45.2600   28.2730   94.8360 C.ar  405  HEM405      0.0000
     29  C4C       46.2370   28.4190   93.7750 C.ar  405  HEM405      0.0000
     30  CMC       42.7270   27.8050   95.0010 C.3   405  HEM405      0.0000
     31  CAC       45.5740   28.3740   96.3470 C.2   405  HEM405      0.0000
     32  CBC       45.0430   29.3450   97.0980 C.2   405  HEM405      0.0000
     33  ND        48.3260   28.8070   91.5810 N.2   405  HEM405      0.0000
     34  C1D       48.5090   28.9390   92.9580 C.2   405  HEM405      0.0000
     35  C2D       49.8610   29.3830   93.2080 C.2   405  HEM405      0.0000
     36  C3D       50.5040   29.5210   91.8240 C.2   405  HEM405      0.0000
     37  C4D       49.4810   29.1400   90.8750 C.2   405  HEM405      0.0000
     38  CMD       50.5250   29.6560   94.5740 C.3   405  HEM405      0.0000
     39  CAD       51.9450   29.9780   91.5180 C.3   405  HEM405      0.0000
     40  CBD       52.9120   28.8300   91.7760 C.3   405  HEM405      0.0000
     41  CGD       54.3070   29.2780   91.4280 C.2   405  HEM405      0.0000
     42  O1D       55.1680   28.3920   91.2100 O.co2 405  HEM405      0.0000
     43  O2D       54.5580   30.5120   91.3780 O.co2 405  HEM405      0.0000
@<TRIPOS>BOND
     1    15    14   ar
     2    11     9    1
     3    14    16   ar
     4    14    13    1
     5    13    12    1
     6    12     8    1
     7     9     8   ar
     8     9    10   ar
     9    22    19    1
    10     8     7   ar
    11     3    10    2
    12     3    18    1
    13    10     6   ar
    14    19    18    1
    15    19    20    2
    16    18    17    2
    17     7     6   ar
    18     7     2    2
    19     6     1    1
    20    24    23    2
    21    20    23    1
    22    20    21    1
    23     2    37    1
    24    17    21    1
    25    17     1    1
    26    21     4    2
    27     1    33    1
    28     1    25    1
    29    37    33    2
    30    37    36    1
    31    42    41   ar
    32    43    41   ar
    33    41    40    1
    34    39    40    1
    35    39    36    1
    36    33    34    1
    37    36    35    2
    38     4    26    1
    39    25    26   ar
    40    25    29   ar
    41    26    27   ar
    42    34    35    1
    43    34     5    2
    44    35    38    1
    45    29     5    1
    46    29    28   ar
    47    27    28   ar
    48    27    30    1
    49    28    31    1
    50    31    32    2
