@<TRIPOS>MOLECULE
3ejd_ZMQ_A_1.pdb
 38 37 0 0 0
SMALL
GASTEIGER

@<TRIPOS>ATOM
      1  O23       68.0040   17.4140   88.4390 O.3    99  ZMQ99      -0.1425
      2  P24       68.1730   17.6670   90.0830 P.3    99  ZMQ99       0.3942
      3  O26       69.4730   18.5660   90.6250 O.3    99  ZMQ99      -0.1425
      4  O27       66.6490   17.6920   91.0970 O.3    99  ZMQ99      -0.2952
      5  C28       65.8350   18.8620   91.0930 C.3    99  ZMQ99       0.1537
      6  C29       64.3680   18.4710   91.2290 C.3    99  ZMQ99       0.0646
      7  C31       63.9820   17.6030   90.0420 C.3    99  ZMQ99       0.0056
      8  C30       63.5200   19.7390   91.2050 C.3    99  ZMQ99       0.0056
      9  C32       64.1510   17.6630   92.5110 C.3    99  ZMQ99       0.2312
     10  O33       62.9750   16.8490   92.4120 O.3    99  ZMQ99      -0.2131
     11  C34       64.0610   18.5550   93.7140 C.2    99  ZMQ99       0.2719
     12  O35       65.1620   19.1980   94.1010 O.2    99  ZMQ99      -0.2706
     13  N36       62.9700   18.6920   94.3470 N.am   99  ZMQ99      -0.2028
     14  C37       61.6810   18.0740   94.0530 C.3    99  ZMQ99       0.1248
     15  C38       60.6600   18.6930   94.9990 C.3    99  ZMQ99       0.1102
     16  C39       59.9780   19.8700   94.3400 C.2    99  ZMQ99       0.2432
     17  O40       60.7080   20.8850   93.8890 O.2    99  ZMQ99      -0.2733
     18  N41       58.7170   19.9010   94.2460 N.am   99  ZMQ99      -0.2044
     19  C42       57.8840   20.9400   93.6480 C.3    99  ZMQ99       0.1272
     20  C43       57.5500   21.9220   94.7660 C.3    99  ZMQ99       0.0883
     21  S1        56.0550   22.7950   94.4020 S.3    99  ZMQ99      -0.0753
     22  C1        56.1390   23.5630   92.8130 C.2    99  ZMQ99       0.1988
     23  O1        57.3190   23.6720   92.2110 O.2    99  ZMQ99      -0.2845
     24  C2        54.9910   24.4510   92.3380 C.3    99  ZMQ99       0.0759
     25  C3        53.6440   23.7390   92.3800 C.3    99  ZMQ99       0.0087
     26  C4        52.6730   24.4570   93.3100 C.3    99  ZMQ99       0.0005
     27  C5        51.6260   25.2480   92.5340 C.3    99  ZMQ99       0.0000
     28  C6        50.2300   24.6780   92.7560 C.3    99  ZMQ99       0.0003
     29  C7        49.1650   25.5570   92.1120 C.3    99  ZMQ99       0.0047
     30  C8        48.4850   24.8500   90.9440 C.3    99  ZMQ99       0.0257
     31  C9        47.8470   23.5340   91.3840 C.2    99  ZMQ99      -0.0307
     32  C10       48.3110   22.3530   90.9710 C.2    99  ZMQ99      -0.0307
     33  C11       49.5110   22.2360   90.0340 C.3    99  ZMQ99       0.0257
     34  C12       49.5990   20.8410   89.4240 C.3    99  ZMQ99       0.0047
     35  C13       50.9430   20.6150   88.7440 C.3    99  ZMQ99       0.0003
     36  C14       51.2700   19.1290   88.6720 C.3    99  ZMQ99       0.0000
     37  C15       51.7700   18.7410   87.2850 C.3    99  ZMQ99       0.0000
     38  C16       51.9200   17.2400   87.1600 C.3    99  ZMQ99       0.0000
@<TRIPOS>BOND
     1    38    37    1
     2    37    36    1
     3     1     2    1
     4    36    35    1
     5    35    34    1
     6    34    33    1
     7    33    32    1
     8     7     6    1
     9     2     3    1
    10     2     4    1
    11    30    31    1
    12    30    29    1
    13    32    31    2
    14     5     4    1
    15     5     6    1
    16     8     6    1
    17     6     9    1
    18    29    28    1
    19    23    22    2
    20    24    25    1
    21    24    22    1
    22    25    26    1
    23    10     9    1
    24     9    11    1
    25    27    28    1
    26    27    26    1
    27    22    21    1
    28    19    18    1
    29    19    20    1
    30    11    12    2
    31    11    13   am
    32    17    16    2
    33    14    13    1
    34    14    15    1
    35    18    16   am
    36    16    15    1
    37    21    20    1
