@<TRIPOS>MOLECULE
3eje_HEM_B_1.pdb
 43 50 0 0 0
SMALL
GASTEIGER

@<TRIPOS>ATOM
      1 FE         44.4200   27.7900   90.9640 Fe    405  HEM405      0.0000
      2  CHA       47.5920   28.5570   89.7800 C.2   405  HEM405      0.0000
      3  CHB       43.4310   27.1360   87.7320 C.2   405  HEM405      0.0000
      4  CHC       41.3100   26.9310   92.1010 C.2   405  HEM405      0.0000
      5  CHD       45.5690   27.9120   94.2090 C.2   405  HEM405      0.0000
      6  NA        45.3350   27.8700   89.0940 N.ar  405  HEM405      0.0000
      7  C1A       46.6660   28.1460   88.8450 C.ar  405  HEM405      0.0000
      8  C2A       46.9100   27.9410   87.4290 C.ar  405  HEM405      0.0000
      9  C3A       45.7570   27.5530   86.8660 C.ar  405  HEM405      0.0000
     10  C4A       44.7460   27.4990   87.9030 C.ar  405  HEM405      0.0000
     11  CMA       45.5200   27.2170   85.3790 C.3   405  HEM405      0.0000
     12  CAA       48.2670   28.1430   86.7140 C.3   405  HEM405      0.0000
     13  CBA       48.4510   29.6230   86.3980 C.3   405  HEM405      0.0000
     14  CGA       49.7990   29.8870   85.7760 C.2   405  HEM405      0.0000
     15  O1A       49.9710   30.9810   85.1830 O.co2 405  HEM405      0.0000
     16  O2A       50.7030   29.0190   85.8690 O.co2 405  HEM405      0.0000
     17  NB        42.7170   27.1040   90.0850 N.2   405  HEM405      0.0000
     18  C1B       42.4860   27.0030   88.7260 C.2   405  HEM405      0.0000
     19  C2B       41.0800   26.7210   88.5280 C.2   405  HEM405      0.0000
     20  C3B       40.4960   26.6610   89.7310 C.2   405  HEM405      0.0000
     21  C4B       41.5120   26.9020   90.7350 C.2   405  HEM405      0.0000
     22  CMB       40.3910   26.5300   87.1580 C.3   405  HEM405      0.0000
     23  CAB       39.0020   26.3980   90.0290 C.2   405  HEM405      0.0000
     24  CBB       38.2110   25.8110   89.1270 C.2   405  HEM405      0.0000
     25  NC        43.6060   27.4230   92.8170 N.ar  405  HEM405      0.0000
     26  C1C       42.2660   27.1860   93.0600 C.ar  405  HEM405      0.0000
     27  C2C       42.0530   27.2530   94.4950 C.ar  405  HEM405      0.0000
     28  C3C       43.2330   27.5270   95.0720 C.ar  405  HEM405      0.0000
     29  C4C       44.2310   27.6380   94.0260 C.ar  405  HEM405      0.0000
     30  CMC       40.6970   27.0390   95.2080 C.3   405  HEM405      0.0000
     31  CAC       43.5260   27.6760   96.5810 C.2   405  HEM405      0.0000
     32  CBC       42.9120   28.6050   97.3160 C.2   405  HEM405      0.0000
     33  ND        46.2960   28.1440   91.8520 N.2   405  HEM405      0.0000
     34  C1D       46.4960   28.2190   93.2330 C.2   405  HEM405      0.0000
     35  C2D       47.8440   28.6750   93.4830 C.2   405  HEM405      0.0000
     36  C3D       48.4740   28.8760   92.1030 C.2   405  HEM405      0.0000
     37  C4D       47.4470   28.5230   91.1510 C.2   405  HEM405      0.0000
     38  CMD       48.5140   28.9050   94.8570 C.3   405  HEM405      0.0000
     39  CAD       49.9080   29.3590   91.7970 C.3   405  HEM405      0.0000
     40  CBD       50.9040   28.2740   92.1790 C.3   405  HEM405      0.0000
     41  CGD       52.3110   28.7130   91.8510 C.2   405  HEM405      0.0000
     42  O1D       53.1930   27.8240   91.7590 O.co2 405  HEM405      0.0000
     43  O2D       52.5560   29.9410   91.7010 O.co2 405  HEM405      0.0000
@<TRIPOS>BOND
     1    15    14   ar
     2    11     9    1
     3    14    16   ar
     4    14    13    1
     5    13    12    1
     6    12     8    1
     7     9     8   ar
     8     9    10   ar
     9    22    19    1
    10     8     7   ar
    11     3    10    2
    12     3    18    1
    13    10     6   ar
    14    19    18    1
    15    19    20    2
    16    18    17    2
    17     7     6   ar
    18     7     2    2
    19     6     1    1
    20    24    23    2
    21    20    23    1
    22    20    21    1
    23     2    37    1
    24    17    21    1
    25    17     1    1
    26    21     4    2
    27     1    33    1
    28     1    25    1
    29    37    33    2
    30    37    36    1
    31    43    41   ar
    32    42    41   ar
    33    39    36    1
    34    39    40    1
    35    41    40    1
    36    33    34    1
    37     4    26    1
    38    36    35    2
    39    25    26   ar
    40    25    29   ar
    41    26    27   ar
    42    34    35    1
    43    34     5    2
    44    35    38    1
    45    29     5    1
    46    29    28   ar
    47    27    28   ar
    48    27    30    1
    49    28    31    1
    50    31    32    2
