@<TRIPOS>MOLECULE
3eje_ZMO_A_1.pdb
 38 37 0 0 0
SMALL
GASTEIGER

@<TRIPOS>ATOM
      1  O23       65.8780   16.9440   88.5330 O.3    99  ZMO99      -0.1425
      2  P24       66.0940   17.1020   90.1850 P.3    99  ZMO99       0.3942
      3  O26       67.4160   17.9650   90.7370 O.3    99  ZMO99      -0.1425
      4  O27       64.6080   17.0810   91.2450 O.3    99  ZMO99      -0.2952
      5  C28       63.8210   18.2630   91.3540 C.3    99  ZMO99       0.1537
      6  C29       62.3520   17.8880   91.4890 C.3    99  ZMO99       0.0646
      7  C31       61.9420   17.0480   90.2910 C.3    99  ZMO99       0.0056
      8  C30       61.5180   19.1650   91.4980 C.3    99  ZMO99       0.0056
      9  C32       62.1550   17.0740   92.7720 C.3    99  ZMO99       0.2312
     10  O33       61.0450   16.1700   92.6520 O.3    99  ZMO99      -0.2131
     11  C34       61.9730   17.9830   93.9540 C.2    99  ZMO99       0.2719
     12  O35       63.0050   18.7300   94.3430 O.2    99  ZMO99      -0.2706
     13  N36       60.8690   18.0470   94.5750 N.am   99  ZMO99      -0.2028
     14  C37       59.6350   17.3210   94.3030 C.3    99  ZMO99       0.1248
     15  C38       58.5930   17.8860   95.2540 C.3    99  ZMO99       0.1102
     16  C39       57.9390   19.1030   94.6410 C.2    99  ZMO99       0.2432
     17  O40       58.6830   20.1160   94.2080 O.2    99  ZMO99      -0.2733
     18  N41       56.6820   19.1630   94.5620 N.am   99  ZMO99      -0.2044
     19  C42       55.8840   20.2500   94.0150 C.3    99  ZMO99       0.1272
     20  C43       55.4590   21.0820   95.2200 C.3    99  ZMO99       0.0883
     21  S1        53.9100   21.8610   94.8910 S.3    99  ZMO99      -0.0753
     22  C1        53.9080   22.5520   93.2640 C.2    99  ZMO99       0.1988
     23  O1        55.0530   22.9610   92.7290 O.2    99  ZMO99      -0.2845
     24  C2        52.5910   23.0070   92.6450 C.3    99  ZMO99       0.0759
     25  C3        51.7290   23.7270   93.6770 C.3    99  ZMO99       0.0087
     26  C4        50.5940   24.4950   93.0160 C.3    99  ZMO99       0.0005
     27  C5        49.2490   23.8840   93.3800 C.3    99  ZMO99       0.0000
     28  C6        48.1270   24.9100   93.2710 C.3    99  ZMO99       0.0003
     29  C7        47.2700   24.6720   92.0320 C.3    99  ZMO99       0.0047
     30  C8        46.6420   23.2830   92.0410 C.3    99  ZMO99       0.0257
     31  C9        45.9080   23.0150   90.7330 C.2    99  ZMO99      -0.0307
     32  C10       46.2710   22.0380   89.9010 C.2    99  ZMO99      -0.0307
     33  C11       47.4470   21.1060   90.1840 C.3    99  ZMO99       0.0257
     34  C12       47.4260   19.9320   89.2110 C.3    99  ZMO99       0.0047
     35  C13       48.8250   19.4070   88.9120 C.3    99  ZMO99       0.0003
     36  C14       48.7670   17.9270   88.5520 C.3    99  ZMO99       0.0000
     37  C15       49.6130   17.6190   87.3220 C.3    99  ZMO99       0.0000
     38  C16       49.5280   16.1520   86.9590 C.3    99  ZMO99       0.0000
@<TRIPOS>BOND
     1    38    37    1
     2    37    36    1
     3     1     2    1
     4    36    35    1
     5    35    34    1
     6    34    33    1
     7    32    33    1
     8    32    31    2
     9     2     3    1
    10     2     4    1
    11     7     6    1
    12    31    30    1
    13     4     5    1
    14     5     6    1
    15     6     8    1
    16     6     9    1
    17    29    30    1
    18    29    28    1
    19    24    22    1
    20    24    25    1
    21    10     9    1
    22    23    22    2
    23     9    11    1
    24    26    27    1
    25    26    25    1
    26    22    21    1
    27    28    27    1
    28    11    12    2
    29    11    13   am
    30    19    18    1
    31    19    20    1
    32    17    16    2
    33    14    13    1
    34    14    15    1
    35    18    16   am
    36    16    15    1
    37    21    20    1
