@<TRIPOS>MOLECULE
3ejh_III_F_1.pdb
 24 23 0 0 0
SMALL
GASTEIGER

@<TRIPOS>ATOM
      1  N        -30.4290   46.1780   -3.0750 N.3   956  GLY956     -0.1210
      2  CA       -29.7170   45.0970   -3.7370 C.3   956  GLY956      0.1956
      3  C        -29.2070   44.0560   -2.7590 C.2   956  GLY956      0.2612
      4  O        -28.3120   44.3380   -1.9600 O.2   956  GLY956     -0.2717
      5  N        -29.7770   42.8490   -2.8230 N.am  957  GLN957     -0.1965
      6  CA       -29.3960   41.7500   -1.9390 C.3   957  GLN957      0.1733
      7  C        -29.7450   40.4110   -2.5940 C.2   957  GLN957      0.2616
      8  O        -30.6410   40.3480   -3.4350 O.2   957  GLN957     -0.2715
      9  CB       -30.1240   41.8900   -0.5990 C.3   957  GLN957      0.0408
     10  CG       -29.5570   41.0560    0.5390 C.3   957  GLN957      0.0908
     11  CD       -30.4140   41.1250    1.7940 C.2   957  GLN957      0.2608
     12  OE1      -31.5010   41.7040    1.7850 O.2   957  GLN957     -0.2717
     13  NE2      -29.9300   40.5300    2.8790 N.am  957  GLN957     -0.0878
     14  N        -29.0430   39.3450   -2.2130 N.am  958  ARG958     -0.1977
     15  CA       -29.2980   38.0170   -2.7820 C.3   958  ARG958      0.1597
     16  C        -30.5480   37.3700   -2.1850 C.2   958  ARG958      0.2287
     17  O        -30.7170   37.3200   -0.9650 O.2   958  ARG958     -0.2864
     18  CB       -28.0920   37.0900   -2.5890 C.3   958  ARG958      0.0334
     19  CG       -28.0180   36.4540   -1.2070 C.3   958  ARG958      0.0492
     20  CD       -26.7200   35.6930   -0.9860 C.3   958  ARG958      0.2205
     21  NE       -26.4470   35.5210    0.4390 N.pl3 958  ARG958     -0.0865
     22  CZ       -25.2650   35.1800    0.9410 C.cat 958  ARG958      0.5346
     23  NH1      -24.2350   34.9680    0.1340 N.pl3 958  ARG958      0.1354
     24  NH2      -25.1110   35.0540    2.2530 N.pl3 958  ARG958      0.1354
@<TRIPOS>BOND
     1     2     1    1
     2     2     3    1
     3     8     7    2
     4     5     3   am
     5     5     6    1
     6    15    18    1
     7    15    14    1
     8    15    16    1
     9     3     4    2
    10     7    14   am
    11     7     6    1
    12    18    19    1
    13    16    17    2
    14     6     9    1
    15    19    20    1
    16    20    21    1
    17     9    10    1
    18    23    22    1
    19    21    22    2
    20    10    11    1
    21    22    24    1
    22    12    11    2
    23    11    13   am
