@<TRIPOS>MOLECULE
3ejl_UFP_D_1.pdb
 21 22 0 0 0
SMALL
GASTEIGER

@<TRIPOS>ATOM
      1  N1       -75.4980  -12.9130   41.5640 N.am  314  UFP314     -0.1768
      2  C2       -74.5480  -12.7600   42.5790 C.1   314  UFP314      0.2846
      3  N3       -73.9800  -11.5240   42.8120 N.2   314  UFP314     -0.2430
      4  C4       -74.3420  -10.4200   42.0630 C.1   314  UFP314      0.2454
      5  C5       -75.3190  -10.5610   41.0150 C.2   314  UFP314      0.2499
      6  C6       -75.8790  -11.7990   40.7890 C.2   314  UFP314      0.1221
      7  O2       -74.2030  -13.7170   43.2790 O.2   314  UFP314     -0.1918
      8  O4       -73.8360   -9.3320   42.2880 O.2   314  UFP314     -0.2062
      9  F5       -75.6840   -9.4880   40.2720 F     314  UFP314     -0.1891
     10  C1'      -76.1470  -14.2450   41.3550 C.3   314  UFP314      0.2091
     11  C2'      -77.5920  -13.8800   41.6540 C.3   314  UFP314      0.0874
     12  C3'      -78.3740  -14.9480   40.9530 C.3   314  UFP314      0.1857
     13  C4'      -77.3250  -15.8810   40.4320 C.3   314  UFP314      0.1774
     14  O3'      -79.2880  -15.6690   41.8070 O.3   314  UFP314     -0.2203
     15  O4'      -76.3340  -14.8670   39.9860 O.3   314  UFP314     -0.3339
     16  C5'      -78.3360  -16.6360   39.5970 C.3   314  UFP314      0.1858
     17  O5'      -78.0660  -17.7720   38.8430 O.3   314  UFP314     -0.2675
     18  P        -79.6080  -18.0820   38.3960 P.3   314  UFP314      0.5327
     19  O1P      -80.1550  -16.8250   37.5510 O.3   314  UFP314     -0.1145
     20  O2P      -79.7990  -19.3700   37.4880 O.2   314  UFP314     -0.2224
     21  O3P      -80.4760  -18.2980   39.7540 O.3   314  UFP314     -0.1145
@<TRIPOS>BOND
     1    20    18    2
     2    19    18    1
     3    18    17    1
     4    18    21    1
     5    17    16    1
     6    16    13    1
     7    15    13    1
     8    15    10    1
     9     9     5    1
    10    13    12    1
    11     6     5    2
    12     6     1    1
    13    12    11    1
    14    12    14    1
    15     5     4    1
    16    10     1    1
    17    10    11    1
    18     1     2   am
    19     4     8    2
    20     4     3    2
    21     2     3    2
    22     2     7    2
