@<TRIPOS>MOLECULE
3ejm_GDP_A_1.pdb
 28 30 0 0 0
SMALL
GASTEIGER

@<TRIPOS>ATOM
      1  PB        51.5110   12.0460   32.0960 P.3   201  GDP201      0.5373
      2  O1B       52.2670   13.2880   32.5060 O.3   201  GDP201     -0.1143
      3  O2B       50.0250   12.3430   32.1960 O.3   201  GDP201     -0.1143
      4  O3B       51.8380   11.5990   30.6780 O.2   201  GDP201     -0.2221
      5  O3A       51.7390   10.7740   33.0800 O.3   201  GDP201     -0.2261
      6  PA        52.8940   10.4000   34.1560 P.3   201  GDP201      0.2231
      7  O1A       53.9820   11.4150   34.3210 O.2   201  GDP201     -0.5169
      8  O2A       52.2320   10.0850   35.4880 O.3   201  GDP201     -0.4370
      9  O5'       53.4110    9.0520   33.4580 O.3   201  GDP201     -0.3111
     10  C5'       54.2920    9.0850   32.3390 C.3   201  GDP201      0.1813
     11  C4'       53.7750    8.0040   31.4150 C.3   201  GDP201      0.1799
     12  O4'       53.8430    6.7030   32.0210 O.3   201  GDP201     -0.3326
     13  C3'       52.3100    8.2270   31.0600 C.3   201  GDP201      0.2158
     14  O3'       52.1240    8.9900   29.8610 O.3   201  GDP201     -0.2175
     15  C2'       51.8240    6.8350   30.7950 C.3   201  GDP201      0.2310
     16  O2'       51.8110    6.5850   29.4090 O.3   201  GDP201     -0.2158
     17  C1'       52.9190    5.9330   31.2400 C.3   201  GDP201      0.2293
     18  N9        52.2300    4.7170   31.7390 N.pl3 201  GDP201     -0.2354
     19  C8        52.2600    3.6400   30.8900 C.3   201  GDP201      0.2246
     20  N7        51.5890    2.6230   31.4220 N.2   201  GDP201     -0.2322
     21  C5        51.1100    3.0180   32.6130 C.2   201  GDP201      0.2182
     22  C6        50.3260    2.2780   33.5990 C.1   201  GDP201      0.2372
     23  O6        50.0330    1.0890   33.3100 O.2   201  GDP201     -0.2069
     24  N1        49.9830    2.9230   34.7270 N.2   201  GDP201     -0.2485
     25  C2        50.3570    4.2050   34.9240 C.1   201  GDP201      0.2531
     26  N2        49.9460    4.7410   36.0990 N.pl3 201  GDP201     -0.0226
     27  N3        51.1010    4.9620   34.0460 N.2   201  GDP201     -0.3074
     28  C4        51.5140    4.4140   32.8620 C.2   201  GDP201      0.2300
@<TRIPOS>BOND
     1    16    15    1
     2    14    13    1
     3     4     1    2
     4    15    13    1
     5    15    17    1
     6    19    20    1
     7    19    18    1
     8    13    11    1
     9    17    18    1
    10    17    12    1
    11    11    12    1
    12    11    10    1
    13    20    21    2
    14    18    28    1
    15     1     3    1
    16     1     2    1
    17     1     5    1
    18    10     9    1
    19    21    28    1
    20    21    22    1
    21    28    27    2
    22     5     6    1
    23    23    22    2
    24     9     6    1
    25    22    24    2
    26    27    25    2
    27     6     7    2
    28     6     8    1
    29    24    25    2
    30    25    26    1
