@<TRIPOS>MOLECULE
3ejp_HN2_A_1.pdb
 21 23 0 0 0
SMALL
GASTEIGER

@<TRIPOS>ATOM
      1  O10       26.6650   64.9740    8.2370 O.2   1049  HN21049    -0.2913
      2  C10       27.0590   65.9600    8.8340 C.2   1049  HN21049     0.1744
      3  C11       26.0720   66.7920    9.5970 C.ar  1049  HN21049     0.0347
      4  C16       24.7310   66.3860    9.6100 C.ar  1049  HN21049     0.0028
      5  C15       23.7820   67.1520   10.2960 C.ar  1049  HN21049     0.0001
      6  C14       24.1800   68.3120   10.9560 C.ar  1049  HN21049     0.0000
      7  C13       25.5150   68.7390   10.9300 C.ar  1049  HN21049     0.0001
      8  C12       26.4770   67.9610   10.2510 C.ar  1049  HN21049     0.0028
      9  C9        28.5080   66.4140    8.7470 C.3   1049  HN21049     0.0851
     10  C5        29.4370   65.3600    8.1190 C.3   1049  HN21049     0.0654
     11  C6        29.2540   65.2260    6.5980 C.3   1049  HN21049     0.0191
     12  C7        29.7610   66.4630    5.8420 C.3   1049  HN21049     0.0358
     13  C8        31.2370   66.7280    6.1220 C.3   1049  HN21049     0.1691
     14  O8        31.6270   67.9650    5.5350 O.3   1049  HN21049    -0.2216
     15  C8A       31.4430   66.8220    7.6290 C.3   1049  HN21049     0.1214
     16  C1        32.8910   66.8780    8.1160 C.3   1049  HN21049     0.2004
     17  O1        33.8100   66.0680    7.3210 O.3   1049  HN21049    -0.2188
     18  N4        30.8950   65.6350    8.3190 N.3   1049  HN21049    -0.2682
     19  C3        31.3510   65.8120    9.7250 C.3   1049  HN21049     0.1081
     20  C2        32.7910   66.3340    9.5530 C.3   1049  HN21049     0.1994
     21  O2        33.7650   65.2820    9.7520 O.3   1049  HN21049    -0.2189
@<TRIPOS>BOND
     1    14    13    1
     2    12    13    1
     3    12    11    1
     4    13    15    1
     5    11    10    1
     6    17    16    1
     7    15    16    1
     8    15    18    1
     9    16    20    1
    10    10    18    1
    11    10     9    1
    12     1     2    2
    13    18    19    1
    14     9     2    1
    15     2     3    1
    16    20    19    1
    17    20    21    1
    18     3     4   ar
    19     3     8   ar
    20     4     5   ar
    21     8     7   ar
    22     5     6   ar
    23     7     6   ar
