@<TRIPOS>MOLECULE
3ejq_HN3_A_1.pdb
 22 24 0 0 0
SMALL
GASTEIGER

@<TRIPOS>ATOM
      1  O10       26.6200   64.7430    8.3600 O.2   1049  HN31049    -0.2913
      2  C10       26.9930   65.7670    8.9290 C.2   1049  HN31049     0.1744
      3  C11       25.9870   66.6230    9.6770 C.ar  1049  HN31049     0.0347
      4  C16       24.6300   66.2660    9.6760 C.ar  1049  HN31049     0.0025
      5  C15       23.6840   67.0410   10.3690 C.ar  1049  HN31049    -0.0042
      6  C14       24.0850   68.1920   11.0510 C.ar  1049  HN31049    -0.0218
      7  C17       23.0870   69.0480   11.8070 C.3   1049  HN31049     0.0310
      8  C13       25.4320   68.5470   11.0650 C.ar  1049  HN31049    -0.0042
      9  C12       26.3820   67.7620   10.3840 C.ar  1049  HN31049     0.0025
     10  C9        28.4510   66.2020    8.8990 C.3   1049  HN31049     0.0851
     11  C5        29.4070   65.1710    8.2640 C.3   1049  HN31049     0.0654
     12  C6        29.1920   65.0480    6.7480 C.3   1049  HN31049     0.0191
     13  C7        29.6850   66.3060    6.0170 C.3   1049  HN31049     0.0358
     14  C8        31.1660   66.5640    6.3250 C.3   1049  HN31049     0.1691
     15  O8        31.5610   67.8000    5.7420 O.3   1049  HN31049    -0.2216
     16  C8A       31.3950   66.6400    7.8310 C.3   1049  HN31049     0.1214
     17  C1        32.8470   66.6870    8.3160 C.3   1049  HN31049     0.2004
     18  O1        33.7550   65.8780    7.5320 O.3   1049  HN31049    -0.2188
     19  N4        30.8600   65.4260    8.4820 N.3   1049  HN31049    -0.2682
     20  C3        31.3070   65.5850    9.8940 C.3   1049  HN31049     0.1081
     21  C2        32.7440   66.1190    9.7330 C.3   1049  HN31049     0.1994
     22  O2        33.6730   65.0420    9.9000 O.3   1049  HN31049    -0.2189
@<TRIPOS>BOND
     1    15    14    1
     2    13    14    1
     3    13    12    1
     4    14    16    1
     5    12    11    1
     6    18    17    1
     7    16    17    1
     8    16    19    1
     9    11    19    1
    10    11    10    1
    11    17    21    1
    12     1     2    2
    13    19    20    1
    14    10     2    1
    15     2     3    1
    16     4     3   ar
    17     4     5   ar
    18     3     9   ar
    19    21    20    1
    20    21    22    1
    21     5     6   ar
    22     9     8   ar
    23     6     8   ar
    24     6     7    1
