@<TRIPOS>MOLECULE
3ejr_HN4_A_1.pdb
 25 27 0 0 0
SMALL
GASTEIGER

@<TRIPOS>ATOM
      1  O10       26.6190   65.3360    8.2760 O.2   1049  HN41049    -0.2913
      2  C10       27.1140   66.3070    8.8450 C.2   1049  HN41049     0.1744
      3  C11       26.2040   67.2360    9.5930 C.ar  1049  HN41049     0.0347
      4  C12       26.7170   68.2930   10.3440 C.ar  1049  HN41049     0.0025
      5  C13       25.8570   69.1650   11.0190 C.ar  1049  HN41049    -0.0042
      6  C14       24.4690   68.9810   10.9580 C.ar  1049  HN41049    -0.0228
      7  C17       23.5580   69.9420   11.7050 C.3   1049  HN41049     0.0189
      8  C18       23.8080   71.3640   11.1980 C.3   1049  HN41049     0.0044
      9  C19       22.0780   69.6540   11.4300 C.3   1049  HN41049     0.0044
     10  C20       23.8610   69.8360   13.2000 C.3   1049  HN41049     0.0044
     11  C15       23.9660   67.9210   10.2020 C.ar  1049  HN41049    -0.0042
     12  C16       24.8190   67.0450    9.5270 C.ar  1049  HN41049     0.0025
     13  C9        28.5960   66.6670    8.7690 C.3   1049  HN41049     0.0851
     14  C5        29.4440   65.5890    8.0940 C.3   1049  HN41049     0.0654
     15  N4        30.9050   65.8080    8.2860 N.3   1049  HN41049    -0.2682
     16  C3        31.3810   65.9710    9.6880 C.3   1049  HN41049     0.1081
     17  C2        32.8160   66.4900    9.4920 C.3   1049  HN41049     0.1994
     18  O2        33.7760   65.4340    9.7020 O.3   1049  HN41049    -0.2189
     19  C1        32.9100   67.0370    8.0610 C.3   1049  HN41049     0.2004
     20  O1        33.7960   66.2070    7.2620 O.3   1049  HN41049    -0.2188
     21  C8A       31.4610   67.0010    7.5760 C.3   1049  HN41049     0.1214
     22  C8        31.2190   66.9180    6.0770 C.3   1049  HN41049     0.1691
     23  O8        31.6320   68.1290    5.4500 O.3   1049  HN41049    -0.2216
     24  C7        29.7240   66.6980    5.7970 C.3   1049  HN41049     0.0358
     25  C6        29.1970   65.4830    6.5740 C.3   1049  HN41049     0.0191
@<TRIPOS>BOND
     1    23    22    1
     2    24    22    1
     3    24    25    1
     4    22    21    1
     5    25    14    1
     6    20    19    1
     7    21    19    1
     8    21    15    1
     9    19    17    1
    10    14    15    1
    11    14    13    1
    12     1     2    2
    13    15    16    1
    14    13     2    1
    15     2     3    1
    16    17    16    1
    17    17    18    1
    18    12     3   ar
    19    12    11   ar
    20     3     4   ar
    21    11     6   ar
    22     4     5   ar
    23     6     5   ar
    24     6     7    1
    25     8     7    1
    26     9     7    1
    27     7    10    1
