@<TRIPOS>MOLECULE
3ejs_HN5_A_1.pdb
 24 26 0 0 0
SMALL
GASTEIGER

@<TRIPOS>ATOM
      1  O8        31.7270   68.3070    5.5800 O.3   1049  HN51049    -0.2216
      2  C8        31.3450   67.1010    6.2580 C.3   1049  HN51049     0.1691
      3  C8A       31.6100   67.2370    7.7550 C.3   1049  HN51049     0.1214
      4  N4        31.0420   66.0860    8.4860 N.3   1049  HN51049    -0.2687
      5  C3        31.5260   66.2780    9.8770 C.3   1049  HN51049     0.1081
      6  C2        32.9780   66.8100    9.6640 C.3   1049  HN51049     0.1994
      7  O2        33.8820   65.7420    9.8920 O.3   1049  HN51049    -0.2189
      8  C1        33.0670   67.2960    8.2000 C.3   1049  HN51049     0.2004
      9  O1        33.9480   66.5200    7.3370 O.3   1049  HN51049    -0.2188
     10  C7        29.8470   66.8210    5.9950 C.3   1049  HN51049     0.0358
     11  C6        29.2860   65.6580    6.8280 C.3   1049  HN51049     0.0186
     12  C5        29.5610   65.9080    8.3120 C.3   1049  HN51049     0.0581
     13  C9        28.6910   67.0580    8.8870 C.3   1049  HN51049     0.0206
     14  C10       28.3100   66.9230   10.3790 C.3   1049  HN51049     0.0277
     15  C11       27.3150   67.9850   10.8550 C.ar  1049  HN51049    -0.0222
     16  C16       27.7100   68.8050   11.9080 C.ar  1049  HN51049    -0.0046
     17  C15       26.8310   69.7870   12.4160 C.ar  1049  HN51049    -0.0046
     18  C14       25.5610   69.9880   11.8470 C.ar  1049  HN51049    -0.0228
     19  C17       24.6220   71.0490   12.4040 C.3   1049  HN51049     0.0189
     20  C20       24.0110   71.8660   11.2700 C.3   1049  HN51049     0.0044
     21  C19       25.3140   71.9660   13.3990 C.3   1049  HN51049     0.0044
     22  C18       23.5070   70.3000   13.1220 C.3   1049  HN51049     0.0044
     23  C13       25.0740   69.1100   10.7100 C.ar  1049  HN51049    -0.0046
     24  C12       26.0560   68.1010   10.2600 C.ar  1049  HN51049    -0.0046
@<TRIPOS>BOND
     1     1     2    1
     2    10     2    1
     3    10    11    1
     4     2     3    1
     5    11    12    1
     6     9     8    1
     7     3     8    1
     8     3     4    1
     9     8     6    1
    10    12     4    1
    11    12    13    1
    12     4     5    1
    13    13    14    1
    14     6     5    1
    15     6     7    1
    16    24    23   ar
    17    24    15   ar
    18    14    15    1
    19    23    18   ar
    20    15    16   ar
    21    20    19    1
    22    18    19    1
    23    18    17   ar
    24    16    17   ar
    25    19    22    1
    26    19    21    1
