@<TRIPOS>MOLECULE
3ejt_HN6_A_1.pdb
 24 26 0 0 0
SMALL
GASTEIGER

@<TRIPOS>ATOM
      1  O8        31.6620   68.1280    5.5310 O.3   1050  HN61050    -0.2216
      2  C8        31.2180   66.9840    6.2620 C.3   1050  HN61050     0.1691
      3  C8A       31.5400   67.1860    7.7460 C.3   1050  HN61050     0.1214
      4  N4        30.9670   66.0770    8.5610 N.3   1050  HN61050    -0.2687
      5  C3        31.5310   66.3360    9.9100 C.3   1050  HN61050     0.1081
      6  C2        32.9870   66.7810    9.6160 C.3   1050  HN61050     0.1994
      7  O2        33.8760   65.6690    9.8450 O.3   1050  HN61050    -0.2189
      8  C1        33.0060   67.2790    8.1520 C.3   1050  HN61050     0.2004
      9  O1        33.8650   66.4510    7.3280 O.3   1050  HN61050    -0.2188
     10  C7        29.6980   66.8210    6.0820 C.3   1050  HN61050     0.0358
     11  C6        29.0960   65.7580    7.0170 C.3   1050  HN61050     0.0186
     12  C5        29.4700   66.0340    8.4830 C.3   1050  HN61050     0.0581
     13  C9        28.9000   64.9820    9.4540 C.3   1050  HN61050     0.0206
     14  C10       27.3750   64.8140    9.4710 C.3   1050  HN61050     0.0277
     15  C11       26.6520   65.9430   10.1830 C.ar  1050  HN61050    -0.0222
     16  C16       26.7780   66.1430   11.5640 C.ar  1050  HN61050    -0.0046
     17  C15       26.0880   67.1910   12.1890 C.ar  1050  HN61050    -0.0046
     18  C14       25.2410   68.0560   11.4820 C.ar  1050  HN61050    -0.0228
     19  C17       24.4990   69.1990   12.1570 C.3   1050  HN61050     0.0189
     20  C20       24.9130   70.5210   11.5070 C.3   1050  HN61050     0.0044
     21  C19       24.8300   69.2840   13.6470 C.3   1050  HN61050     0.0044
     22  C18       22.9930   69.0090   11.9880 C.3   1050  HN61050     0.0044
     23  C13       25.0610   67.8600    9.9950 C.ar  1050  HN61050    -0.0046
     24  C12       25.8210   66.7540    9.4220 C.ar  1050  HN61050    -0.0046
@<TRIPOS>BOND
     1     1     2    1
     2    10     2    1
     3    10    11    1
     4     2     3    1
     5    11    12    1
     6     9     8    1
     7     3     8    1
     8     3     4    1
     9     8     6    1
    10    12     4    1
    11    12    13    1
    12     4     5    1
    13    24    23   ar
    14    24    15   ar
    15    13    14    1
    16    14    15    1
    17     6     7    1
    18     6     5    1
    19    23    18   ar
    20    15    16   ar
    21    18    19    1
    22    18    17   ar
    23    20    19    1
    24    16    17   ar
    25    22    19    1
    26    19    21    1
