@<TRIPOS>MOLECULE
3eju_HN7_A_1.pdb
 25 27 0 0 0
SMALL
GASTEIGER

@<TRIPOS>ATOM
      1  O10       26.5920   65.0700    8.4450 O.2   1049  HN71049    -0.2913
      2  C10       27.2110   65.8110    9.1850 C.2   1049  HN71049     0.1744
      3  C11       26.4650   66.9340    9.8800 C.ar  1049  HN71049     0.0347
      4  C12       25.0730   67.0250    9.7010 C.ar  1049  HN71049     0.0025
      5  C13       24.3250   68.0300   10.3160 C.ar  1049  HN71049    -0.0042
      6  C14       24.9350   68.9750   11.1410 C.ar  1049  HN71049    -0.0228
      7  C17       24.0930   70.0490   11.8230 C.3   1049  HN71049     0.0189
      8  C18       22.6060   69.8890   11.4900 C.3   1049  HN71049     0.0044
      9  C19       24.2180   69.9020   13.3420 C.3   1049  HN71049     0.0044
     10  C20       24.5180   71.4470   11.3840 C.3   1049  HN71049     0.0044
     11  C15       26.3300   68.8900   11.3300 C.ar  1049  HN71049    -0.0042
     12  C16       27.0950   67.8780   10.7080 C.ar  1049  HN71049     0.0025
     13  C9        28.6950   65.5350    9.3510 C.3   1049  HN71049     0.0851
     14  C5        29.4720   66.3800    8.3310 C.3   1049  HN71049     0.0654
     15  C6        29.1120   66.0840    6.8610 C.3   1049  HN71049     0.0191
     16  C7        29.7750   67.1320    5.9530 C.3   1049  HN71049     0.0358
     17  C8        31.2890   67.2570    6.1620 C.3   1049  HN71049     0.1691
     18  O8        31.7830   68.3980    5.4500 O.3   1049  HN71049    -0.2216
     19  N4        30.9630   66.3100    8.4360 N.3   1049  HN71049    -0.2682
     20  C3        31.5130   66.4940    9.8040 C.3   1049  HN71049     0.1081
     21  C2        32.9750   66.9300    9.5360 C.3   1049  HN71049     0.1994
     22  O2        33.8590   65.8390    9.8190 O.3   1049  HN71049    -0.2189
     23  C1        33.0530   67.4310    8.0790 C.3   1049  HN71049     0.2004
     24  O1        33.8830   66.5840    7.2510 O.3   1049  HN71049    -0.2188
     25  C8A       31.5880   67.4230    7.6540 C.3   1049  HN71049     0.1214
@<TRIPOS>BOND
     1    18    17    1
     2    16    17    1
     3    16    15    1
     4    17    25    1
     5    15    14    1
     6    24    23    1
     7    25    23    1
     8    25    19    1
     9    23    21    1
    10    14    19    1
    11    14    13    1
    12    19    20    1
    13     1     2    2
    14     2    13    1
    15     2     3    1
    16    21    20    1
    17    21    22    1
    18     4     3   ar
    19     4     5   ar
    20     3    12   ar
    21     5     6   ar
    22    12    11   ar
    23     6    11   ar
    24     6     7    1
    25    10     7    1
    26     8     7    1
    27     7     9    1
