@<TRIPOS>MOLECULE
3ejw_PAV_A_1.pdb
 10 10 0 0 0
SMALL
GASTEIGER

@<TRIPOS>ATOM
      1  O3        31.8230   34.3090   38.4110 O.3   400  PAV400     -0.1870
      2  C4        30.8250   34.7670   39.3080 C.3   400  PAV400      0.2996
      3  C11       30.8970   36.2490   39.5780 C.3   400  PAV400      0.0726
      4  O5        31.0110   33.9950   40.4840 O.3   400  PAV400     -0.3236
      5  C6        29.7160   33.8350   41.1290 C.3   400  PAV400      0.1858
      6  C7        28.6220   34.3120   40.1450 C.3   400  PAV400      0.2697
      7  O12       27.5400   33.3960   40.0410 O.3   400  PAV400     -0.2120
      8  C8        29.4190   34.3280   38.8010 C.3   400  PAV400      0.4288
      9  O1        29.4140   33.0550   38.2340 O.2   400  PAV400     -0.2670
     10  O13       28.9370   35.2680   37.8530 O.2   400  PAV400     -0.2670
@<TRIPOS>BOND
     1    10     8    1
     2     9     8    1
     3     1     2    1
     4     8     2    1
     5     8     6    1
     6     2     3    1
     7     2     4    1
     8     7     6    1
     9     6     5    1
    10     4     5    1
