@<TRIPOS>MOLECULE
3ejx_ZDP_A_1.pdb
 14 13 0 0 0
SMALL
GASTEIGER

@<TRIPOS>ATOM
      1  OAE        0.7450  -31.7060   34.2200 O.co2 500  ZDP500     -0.2441
      2  CAP        1.1080  -30.4960   34.2990 C.2   500  ZDP500      0.3819
      3  OAG        2.2340  -30.1950   34.7680 O.co2 500  ZDP500     -0.2441
      4  CAS        0.1850  -29.4120   33.8280 C.3   500  ZDP500      0.1943
      5  NAB        0.6440  -28.1030   34.3430 N.3   500  ZDP500     -0.1208
      6  CAK        0.1650  -29.4140   32.2820 C.3   500  ZDP500      0.0307
      7  CAJ       -0.7450  -28.3410   31.6990 C.3   500  ZDP500      0.0041
      8  CAM       -2.1950  -28.8430   31.5200 C.3   500  ZDP500      0.0287
      9  CAT       -3.1890  -27.7820   30.9550 C.3   500  ZDP500      0.1699
     10  NAC       -3.5300  -26.7830   32.0340 N.3   500  ZDP500     -0.1229
     11  CAQ       -4.5000  -28.4480   30.4800 C.2   500  ZDP500      0.3799
     12  OAH       -5.3730  -27.6760   30.0150 O.co2 500  ZDP500     -0.2441
     13  OAF       -4.6700  -29.7180   30.5600 O.co2 500  ZDP500     -0.2441
     14  CAN       -2.5370  -26.9140   29.8470 C.3   500  ZDP500      0.0306
@<TRIPOS>BOND
     1    14     9    1
     2    12    11   ar
     3    11    13   ar
     4    11     9    1
     5     9     8    1
     6     9    10    1
     7     8     7    1
     8     7     6    1
     9     6     4    1
    10     4     2    1
    11     4     5    1
    12     1     2   ar
    13     2     3   ar
