@<TRIPOS>MOLECULE
3ek3_FMN_A_1.pdb
 31 33 0 0 0
SMALL
GASTEIGER

@<TRIPOS>ATOM
      1  N1        -8.0590   26.9100   17.2070 N.2   200  FMN200     -0.2887
      2  C2        -7.9320   26.4490   15.9170 C.1   200  FMN200      0.3669
      3  O2        -8.4370   27.0720   14.9780 O.2   200  FMN200     -0.1744
      4  N3        -7.2780   25.2700   15.6310 N.2   200  FMN200     -0.2300
      5  C4        -6.7470   24.5380   16.6370 C.1   200  FMN200      0.2513
      6  O4        -5.9840   23.6110   16.3180 O.2   200  FMN200     -0.2057
      7  C4A       -6.8570   25.0100   17.9520 C.2   200  FMN200      0.2706
      8  N5        -6.3060   24.2920   18.9820 N.2   200  FMN200     -0.3841
      9  C5A       -6.3650   24.7390   20.2870 C.2   200  FMN200      0.1452
     10  C6        -5.7560   23.9940   21.2970 C.2   200  FMN200      0.0252
     11  C7        -5.7670   24.4400   22.6170 C.2   200  FMN200     -0.0375
     12  C7M       -4.9290   23.7390   23.6860 C.3   200  FMN200      0.0268
     13  C8        -6.3690   25.6710   22.9070 C.3   200  FMN200      0.0417
     14  C8M       -5.9940   26.3820   24.1860 C.3   200  FMN200      0.0091
     15  C9        -6.9740   26.4150   21.8890 C.2   200  FMN200     -0.0049
     16  C9A       -6.9760   25.9660   20.5720 C.2   200  FMN200      0.0795
     17  N10       -7.5890   26.6830   19.5300 N.pl3 200  FMN200     -0.2545
     18  C10       -7.4870   26.2290   18.2360 C.2   200  FMN200      0.2449
     19  C1'       -8.2520   28.0140   19.7890 C.3   200  FMN200      0.1336
     20  C2'       -9.5820   27.8140   20.5250 C.3   200  FMN200      0.2048
     21  O2'      -10.5650   27.3240   19.6300 O.3   200  FMN200     -0.2185
     22  C3'      -10.0220   29.1690   21.0520 C.3   200  FMN200      0.2165
     23  O3'       -9.1320   29.5420   22.0810 O.3   200  FMN200     -0.2175
     24  C4'      -11.4440   29.1400   21.6470 C.3   200  FMN200      0.2147
     25  O4'      -12.4050   28.9240   20.6220 O.3   200  FMN200     -0.2176
     26  C5'      -11.7590   30.4480   22.3690 C.3   200  FMN200      0.1892
     27  O5'      -11.7330   31.5340   21.4520 O.3   200  FMN200     -0.2674
     28  P        -10.7720   32.8220   21.6640 P.3   200  FMN200      0.5327
     29  O1P      -10.9770   33.3140   23.0430 O.3   200  FMN200     -0.1145
     30  O2P      -11.0620   33.8250   20.5320 O.2   200  FMN200     -0.2224
     31  O3P       -9.3380   32.3570   21.6190 O.3   200  FMN200     -0.1145
@<TRIPOS>BOND
     1     3     2    2
     2     4     2    2
     3     4     5    2
     4     2     1    2
     5     6     5    2
     6     5     7    1
     7     1    18    2
     8     7    18    1
     9     7     8    2
    10    18    17    1
    11     8     9    2
    12    17    19    1
    13    17    16    1
    14    21    20    1
    15    19    20    1
    16     9    16    1
    17     9    10    1
    18    20    22    1
    19    30    28    2
    20    16    15    2
    21    25    24    1
    22    22    24    1
    23    22    23    1
    24    10    11    2
    25    27    28    1
    26    27    26    1
    27    31    28    1
    28    24    26    1
    29    28    29    1
    30    15    13    1
    31    11    13    1
    32    11    12    1
    33    13    14    1
