@<TRIPOS>MOLECULE
3ek5_GTP_E_10.pdb
 32 34 0 0 0
SMALL
GASTEIGER

@<TRIPOS>ATOM
      1  PG        15.4840    9.9850   -3.3990 P.3   2002  GTP2002     0.5373
      2  O1G       16.6140   10.7980   -2.7940 O.3   2002  GTP2002    -0.1143
      3  O2G       15.9660    8.6750   -3.9900 O.3   2002  GTP2002    -0.1143
      4  O3G       14.5660   10.7790   -4.3060 O.2   2002  GTP2002    -0.2221
      5  O3B       14.3350    9.8270   -2.2730 O.3   2002  GTP2002    -0.2258
      6  PB        13.7170    8.4310   -2.2810 P.3   2002  GTP2002     0.2277
      7  O1B       14.5600    7.2970   -2.3000 O.2   2002  GTP2002    -0.5168
      8  O2B       13.0100    9.0450   -0.8940 O.3   2002  GTP2002    -0.4368
      9  O3A       13.0170    8.2520   -3.7030 O.3   2002  GTP2002    -0.2700
     10  PA        11.4960    8.5900   -4.0950 P.3   2002  GTP2002     0.2189
     11  O1A       10.6760    7.3230   -3.9990 O.2   2002  GTP2002    -0.5170
     12  O2A       11.0410    9.8080   -3.3120 O.3   2002  GTP2002    -0.4371
     13  O5'       11.6570    8.9760   -5.6480 O.3   2002  GTP2002    -0.3112
     14  C5'       12.2610   10.1980   -6.0560 C.3   2002  GTP2002     0.1813
     15  C4'       11.3080   11.0210   -6.9200 C.3   2002  GTP2002     0.1799
     16  O4'       10.0470   10.3640   -7.0570 O.3   2002  GTP2002    -0.3326
     17  C3'       11.0120   12.3770   -6.2940 C.3   2002  GTP2002     0.2158
     18  O3'       11.1720   13.3710   -7.3040 O.3   2002  GTP2002    -0.2175
     19  C2'        9.5740   12.2600   -5.8030 C.3   2002  GTP2002     0.2310
     20  O2'        8.8910   13.5230   -5.8280 O.3   2002  GTP2002    -0.2158
     21  C1'        9.0080   11.3120   -6.8350 C.3   2002  GTP2002     0.2293
     22  N9         7.8120   10.6010   -6.3650 N.pl3 2002  GTP2002    -0.2354
     23  C8         7.7530    9.7560   -5.3230 C.3   2002  GTP2002     0.2246
     24  N7         6.4810    9.3030   -5.2070 N.2   2002  GTP2002    -0.2322
     25  C5         5.7590    9.8670   -6.2000 C.2   2002  GTP2002     0.2182
     26  C6         4.4300    9.7670   -6.5800 C.1   2002  GTP2002     0.2372
     27  O6         3.6690    9.0330   -5.9330 O.2   2002  GTP2002    -0.2069
     28  N1         3.9670   10.4630   -7.6400 N.2   2002  GTP2002    -0.2485
     29  C2         4.7990   11.2630   -8.3440 C.1   2002  GTP2002     0.2531
     30  N2         4.2910   11.9480   -9.4010 N.pl3 2002  GTP2002    -0.0226
     31  N3         6.1140   11.3830   -7.9990 N.2   2002  GTP2002    -0.3074
     32  C4         6.6040   10.6890   -6.9350 C.2   2002  GTP2002     0.2300
@<TRIPOS>BOND
     1    30    29    1
     2    29    31    2
     3    29    28    2
     4    31    32    2
     5    28    26    2
     6    18    17    1
     7    16    15    1
     8    16    21    1
     9    32    22    1
    10    32    25    1
    11    15    17    1
    12    15    14    1
    13    21    22    1
    14    21    19    1
    15    26    25    1
    16    26    27    2
    17    22    23    1
    18    17    19    1
    19    25    24    2
    20    14    13    1
    21    20    19    1
    22    13    10    1
    23    23    24    1
    24     4     1    2
    25    10    11    2
    26    10     9    1
    27    10    12    1
    28     3     1    1
    29     9     6    1
    30     1     2    1
    31     1     5    1
    32     7     6    2
    33     6     5    1
    34     6     8    1
