@<TRIPOS>MOLECULE
3ekb_HEM_A_1.pdb
 43 50 0 0 0
SMALL
GASTEIGER

@<TRIPOS>ATOM
      1 FE         12.0370   38.5350   15.1890 Fe    471  HEM471      0.0000
      2  CHA       14.1840   39.8970   12.7940 C.2   471  HEM471      0.0000
      3  CHB        9.4550   38.7070   13.0540 C.2   471  HEM471      0.0000
      4  CHC        9.8890   36.9490   17.5450 C.2   471  HEM471      0.0000
      5  CHD       14.3910   38.8650   17.4830 C.2   471  HEM471      0.0000
      6  NA        11.8790   39.1790   13.2830 N.ar  471  HEM471      0.0000
      7  C1A       12.8600   39.7110   12.4580 C.ar  471  HEM471      0.0000
      8  C2A       12.2750   39.9430   11.1570 C.ar  471  HEM471      0.0000
      9  C3A       10.9760   39.5950   11.2290 C.ar  471  HEM471      0.0000
     10  C4A       10.6970   39.1280   12.5660 C.ar  471  HEM471      0.0000
     11  CMA        9.9450   39.6510   10.0460 C.3   471  HEM471      0.0000
     12  CAA       13.0320   40.5070    9.9300 C.3   471  HEM471      0.0000
     13  CBA       12.9570   42.0580    9.9270 C.3   471  HEM471      0.0000
     14  CGA       13.5410   42.6800    8.6760 C.2   471  HEM471      0.0000
     15  O1A       13.9130   41.9310    7.7090 O.co2 471  HEM471      0.0000
     16  O2A       13.7290   43.9640    8.6720 O.co2 471  HEM471      0.0000
     17  NB         9.9360   38.0320   15.3270 N.2   471  HEM471      0.0000
     18  C1B        9.0810   38.1150   14.2560 C.2   471  HEM471      0.0000
     19  C2B        7.8040   37.5040   14.6590 C.2   471  HEM471      0.0000
     20  C3B        7.9850   37.0510   15.9180 C.2   471  HEM471      0.0000
     21  C4B        9.3230   37.3260   16.3470 C.2   471  HEM471      0.0000
     22  CMB        6.4750   37.4530   13.8430 C.3   471  HEM471      0.0000
     23  CAB        7.0620   36.3180   16.8580 C.2   471  HEM471      0.0000
     24  CBB        6.0360   35.6530   16.3290 C.2   471  HEM471      0.0000
     25  NC        12.0310   37.9450   17.0740 N.ar  471  HEM471      0.0000
     26  C1C       11.1630   37.3470   17.9290 C.ar  471  HEM471      0.0000
     27  C2C       11.8280   37.1340   19.2280 C.ar  471  HEM471      0.0000
     28  C3C       13.0440   37.7030   19.1730 C.ar  471  HEM471      0.0000
     29  C4C       13.1900   38.2340   17.8520 C.ar  471  HEM471      0.0000
     30  CMC       11.1890   36.4190   20.4520 C.3   471  HEM471      0.0000
     31  CAC       14.1940   37.7870   20.2670 C.2   471  HEM471      0.0000
     32  CBC       14.2400   36.8280   21.2270 C.2   471  HEM471      0.0000
     33  ND        14.0340   39.2590   15.1290 N.2   471  HEM471      0.0000
     34  C1D       14.7950   39.2980   16.2830 C.2   471  HEM471      0.0000
     35  C2D       16.0620   39.9150   16.0070 C.2   471  HEM471      0.0000
     36  C3D       16.0300   40.2150   14.5040 C.2   471  HEM471      0.0000
     37  C4D       14.7200   39.7760   14.0570 C.2   471  HEM471      0.0000
     38  CMD       17.1990   40.1750   17.0550 C.3   471  HEM471      0.0000
     39  CAD       17.1230   40.8530   13.5970 C.3   471  HEM471      0.0000
     40  CBD       17.8240   39.5880   13.0920 C.3   471  HEM471      0.0000
     41  CGD       19.0370   39.8890   12.2830 C.2   471  HEM471      0.0000
     42  O1D       20.1130   39.3210   12.5970 O.co2 471  HEM471      0.0000
     43  O2D       18.9400   40.6580   11.3070 O.co2 471  HEM471      0.0000
@<TRIPOS>BOND
     1    15    14   ar
     2    16    14   ar
     3    14    13    1
     4    13    12    1
     5    12     8    1
     6    11     9    1
     7     8     9   ar
     8     8     7   ar
     9     9    10   ar
    10    43    41   ar
    11    41    42   ar
    12    41    40    1
    13     7     2    2
    14     7     6   ar
    15    10     3    2
    16    10     6   ar
    17     2    37    1
    18     3    18    1
    19    40    39    1
    20     6     1    1
    21    39    36    1
    22    22    19    1
    23    37    36    1
    24    37    33    2
    25    18    19    1
    26    18    17    2
    27    36    35    2
    28    19    20    2
    29    33     1    1
    30    33    34    1
    31     1    17    1
    32     1    25    1
    33    17    21    1
    34    20    21    1
    35    20    23    1
    36    35    34    1
    37    35    38    1
    38    34     5    2
    39    24    23    2
    40    21     4    2
    41    25    29   ar
    42    25    26   ar
    43     5    29    1
    44     4    26    1
    45    29    28   ar
    46    26    27   ar
    47    28    27   ar
    48    28    31    1
    49    27    30    1
    50    31    32    2
