@<TRIPOS>MOLECULE
3ekd_HEM_A_1.pdb
 43 50 0 0 0
SMALL
GASTEIGER

@<TRIPOS>ATOM
      1 FE         12.3470   40.5210   15.9880 Fe    472  HEM472      0.0000
      2  CHA       14.6380   41.7150   13.4670 C.2   472  HEM472      0.0000
      3  CHB        9.8550   40.5960   13.8160 C.2   472  HEM472      0.0000
      4  CHC       10.2520   39.1040   18.5090 C.2   472  HEM472      0.0000
      5  CHD       14.8290   40.9440   18.3710 C.2   472  HEM472      0.0000
      6  NA        12.3130   41.0370   13.9590 N.ar  472  HEM472      0.0000
      7  C1A       13.2890   41.5880   13.1120 C.ar  472  HEM472      0.0000
      8  C2A       12.6600   41.9270   11.8320 C.ar  472  HEM472      0.0000
      9  C3A       11.3570   41.5700   11.9580 C.ar  472  HEM472      0.0000
     10  C4A       11.1040   41.0100   13.2970 C.ar  472  HEM472      0.0000
     11  CMA       10.2930   41.7830   10.8630 C.3   472  HEM472      0.0000
     12  CAA       13.3090   42.5320   10.5350 C.2   472  HEM472      0.0000
     13  CBA       13.1520   44.0490   10.2710 C.2   472  HEM472      0.0000
     14  CGA       13.8460   44.6310    9.0230 C.2   472  HEM472      0.0000
     15  O1A       14.3170   43.9020    8.1040 O.co2 472  HEM472      0.0000
     16  O2A       13.9490   45.9000    8.9370 O.co2 472  HEM472      0.0000
     17  NB        10.3250   39.9980   16.1820 N.2   472  HEM472      0.0000
     18  C1B        9.4900   40.0730   15.0830 C.2   472  HEM472      0.0000
     19  C2B        8.2110   39.5010   15.5210 C.2   472  HEM472      0.0000
     20  C3B        8.3250   39.0990   16.7850 C.2   472  HEM472      0.0000
     21  C4B        9.6680   39.4020   17.2600 C.2   472  HEM472      0.0000
     22  CMB        6.9090   39.3690   14.6880 C.3   472  HEM472      0.0000
     23  CAB        7.1920   38.4690   17.6340 C.2   472  HEM472      0.0000
     24  CBB        6.3800   37.5380   17.1150 C.2   472  HEM472      0.0000
     25  NC        12.4730   40.1350   18.0910 N.ar  472  HEM472      0.0000
     26  C1C       11.5600   39.3770   18.8720 C.ar  472  HEM472      0.0000
     27  C2C       12.2160   39.0250   20.1320 C.ar  472  HEM472      0.0000
     28  C3C       13.4670   39.5520   20.0840 C.ar  472  HEM472      0.0000
     29  C4C       13.6590   40.2790   18.7980 C.ar  472  HEM472      0.0000
     30  CMC       11.5880   38.2000   21.2970 C.3   472  HEM472      0.0000
     31  CAC       14.5990   39.4660   21.1720 C.2   472  HEM472      0.0000
     32  CBC       14.6270   38.6460   22.2290 C.2   472  HEM472      0.0000
     33  ND        14.5070   41.1920   15.8940 N.2   472  HEM472      0.0000
     34  C1D       15.2340   41.3330   17.0760 C.2   472  HEM472      0.0000
     35  C2D       16.5070   41.9420   16.7140 C.2   472  HEM472      0.0000
     36  C3D       16.4550   42.1760   15.1990 C.2   472  HEM472      0.0000
     37  C4D       15.1570   41.6880   14.7790 C.2   472  HEM472      0.0000
     38  CMD       17.7030   42.3110   17.6240 C.3   472  HEM472      0.0000
     39  CAD       17.5760   42.7780   14.3080 C.3   472  HEM472      0.0000
     40  CBD       18.3860   41.5990   13.6930 C.3   472  HEM472      0.0000
     41  CGD       19.6210   42.0060   12.8690 C.2   472  HEM472      0.0000
     42  O1D       20.7590   41.5670   13.2200 O.co2 472  HEM472      0.0000
     43  O2D       19.4670   42.7500   11.8650 O.co2 472  HEM472      0.0000
@<TRIPOS>BOND
     1    15    14   ar
     2    16    14   ar
     3    14    13    1
     4    13    12    2
     5    12     8    1
     6    11     9    1
     7     8     9   ar
     8     8     7   ar
     9    43    41   ar
    10     9    10   ar
    11    41    42   ar
    12    41    40    1
    13     7     2    2
    14     7     6   ar
    15    10     3    2
    16    10     6   ar
    17     2    37    1
    18    40    39    1
    19     3    18    1
    20     6     1    1
    21    39    36    1
    22    22    19    1
    23    37    36    1
    24    37    33    2
    25    18    19    1
    26    18    17    2
    27    36    35    2
    28    19    20    2
    29    33     1    1
    30    33    34    1
    31     1    17    1
    32     1    25    1
    33    17    21    1
    34    35    34    1
    35    35    38    1
    36    20    21    1
    37    20    23    1
    38    34     5    2
    39    24    23    2
    40    21     4    2
    41    25    29   ar
    42    25    26   ar
    43     5    29    1
    44     4    26    1
    45    29    28   ar
    46    26    27   ar
    47    28    27   ar
    48    28    31    1
    49    27    30    1
    50    31    32    2
