@<TRIPOS>MOLECULE
3ekd_PAM_A_1.pdb
 18 17 0 0 0
SMALL
GASTEIGER

@<TRIPOS>ATOM
      1  C1         4.6640   55.0330    5.9890 C.2   471  PAM471      0.3649
      2  O1         5.1490   54.1940    5.1780 O.co2 471  PAM471     -0.2457
      3  O2         4.4500   56.2400    5.5990 O.co2 471  PAM471     -0.2457
      4  C2         4.3710   54.5740    7.4310 C.3   471  PAM471      0.1141
      5  C3         4.4880   53.0610    7.7760 C.3   471  PAM471      0.0118
      6  C4         5.8840   52.5540    8.1910 C.3   471  PAM471      0.0006
      7  C5         5.8670   51.1300    8.7800 C.3   471  PAM471      0.0000
      8  C6         7.1010   50.8340    9.6470 C.3   471  PAM471      0.0000
      9  C7         7.1640   49.4470   10.3200 C.3   471  PAM471      0.0000
     10  C8         8.3650   49.3540   11.2970 C.3   471  PAM471      0.0000
     11  C9         8.3120   48.1130   12.2190 C.3   471  PAM471      0.0000
     12  C10        9.2460   48.1450   13.4360 C.3   471  PAM471      0.0000
     13  C11        9.2970   49.4950   14.1480 C.3   471  PAM471      0.0000
     14  C12        9.6470   49.4250   15.6380 C.3   471  PAM471      0.0000
     15  C13       11.1440   49.2790   15.9360 C.3   471  PAM471      0.0000
     16  C14       11.5120   49.4480   17.4230 C.3   471  PAM471      0.0000
     17  C15       12.8340   50.1900   17.7390 C.3   471  PAM471      0.0000
     18  C16       13.9870   49.3430   18.3150 C.3   471  PAM471      0.0000
@<TRIPOS>BOND
     1     2     1   ar
     2     3     1   ar
     3     1     4    1
     4     4     5    1
     5     5     6    1
     6     6     7    1
     7     7     8    1
     8     8     9    1
     9     9    10    1
    10    10    11    1
    11    11    12    1
    12    12    13    1
    13    13    14    1
    14    14    15    1
    15    15    16    1
    16    16    17    1
    17    17    18    1
