@<TRIPOS>MOLECULE
3ekf_HEM_A_1.pdb
 43 50 0 0 0
SMALL
GASTEIGER

@<TRIPOS>ATOM
      1 FE         11.9630   38.5260   15.1720 Fe    471  HEM471      0.0000
      2  CHA       14.0720   40.0350   12.7070 C.2   471  HEM471      0.0000
      3  CHB        9.3700   38.7730   12.9710 C.2   471  HEM471      0.0000
      4  CHC        9.7690   37.3010   17.5900 C.2   471  HEM471      0.0000
      5  CHD       14.3300   38.9430   17.4680 C.2   471  HEM471      0.0000
      6  NA        11.7640   39.2800   13.2370 N.ar  471  HEM471      0.0000
      7  C1A       12.7410   39.7930   12.3920 C.ar  471  HEM471      0.0000
      8  C2A       12.1470   40.0330   11.1100 C.ar  471  HEM471      0.0000
      9  C3A       10.8510   39.6770   11.1740 C.ar  471  HEM471      0.0000
     10  C4A       10.5900   39.1990   12.5100 C.ar  471  HEM471      0.0000
     11  CMA        9.7870   39.7420   10.0560 C.3   471  HEM471      0.0000
     12  CAA       12.9420   40.5960    9.9100 C.3   471  HEM471      0.0000
     13  CBA       12.9890   42.1260   10.0060 C.3   471  HEM471      0.0000
     14  CGA       13.3600   42.7710    8.7000 C.2   471  HEM471      0.0000
     15  O1A       13.6220   42.0630    7.7090 O.co2 471  HEM471      0.0000
     16  O2A       13.4200   44.0240    8.6350 O.co2 471  HEM471      0.0000
     17  NB         9.8920   38.1670   15.2850 N.2   471  HEM471      0.0000
     18  C1B        9.0470   38.2560   14.2080 C.2   471  HEM471      0.0000
     19  C2B        7.7750   37.6940   14.6100 C.2   471  HEM471      0.0000
     20  C3B        7.8860   37.2880   15.8890 C.2   471  HEM471      0.0000
     21  C4B        9.2330   37.5830   16.3400 C.2   471  HEM471      0.0000
     22  CMB        6.5590   37.5830   13.6710 C.3   471  HEM471      0.0000
     23  CAB        6.8630   36.6020   16.8180 C.2   471  HEM471      0.0000
     24  CBB        5.9170   35.7640   16.3730 C.2   471  HEM471      0.0000
     25  NC        11.9870   38.2180   17.1770 N.ar  471  HEM471      0.0000
     26  C1C       11.0750   37.5840   17.9720 C.ar  471  HEM471      0.0000
     27  C2C       11.7140   37.2490   19.2270 C.ar  471  HEM471      0.0000
     28  C3C       12.9650   37.7230   19.1820 C.ar  471  HEM471      0.0000
     29  C4C       13.1570   38.3570   17.9060 C.ar  471  HEM471      0.0000
     30  CMC       11.0090   36.5170   20.4040 C.3   471  HEM471      0.0000
     31  CAC       14.0610   37.6540   20.2760 C.2   471  HEM471      0.0000
     32  CBC       14.0170   36.7670   21.2720 C.2   471  HEM471      0.0000
     33  ND        13.9230   39.4070   15.0720 N.2   471  HEM471      0.0000
     34  C1D       14.6900   39.4310   16.2260 C.2   471  HEM471      0.0000
     35  C2D       15.9760   40.0380   15.8970 C.2   471  HEM471      0.0000
     36  C3D       15.8980   40.3860   14.4290 C.2   471  HEM471      0.0000
     37  C4D       14.5780   39.9580   13.9850 C.2   471  HEM471      0.0000
     38  CMD       17.1690   40.3220   16.8470 C.3   471  HEM471      0.0000
     39  CAD       17.0040   41.0260   13.5670 C.3   471  HEM471      0.0000
     40  CBD       17.7340   39.7870   13.0390 C.3   471  HEM471      0.0000
     41  CGD       18.8710   40.1610   12.1350 C.2   471  HEM471      0.0000
     42  O1D       19.9950   39.6650   12.3790 O.co2 471  HEM471      0.0000
     43  O2D       18.6620   40.9430   11.1730 O.co2 471  HEM471      0.0000
@<TRIPOS>BOND
     1    15    14   ar
     2    16    14   ar
     3    14    13    1
     4    12    13    1
     5    12     8    1
     6    11     9    1
     7     8     9   ar
     8     8     7   ar
     9    43    41   ar
    10     9    10   ar
    11    41    42   ar
    12    41    40    1
    13     7     2    2
    14     7     6   ar
    15    10     3    2
    16    10     6   ar
    17     2    37    1
    18     3    18    1
    19    40    39    1
    20     6     1    1
    21    39    36    1
    22    22    19    1
    23    37    36    1
    24    37    33    2
    25    18    19    1
    26    18    17    2
    27    36    35    2
    28    19    20    2
    29    33     1    1
    30    33    34    1
    31     1    17    1
    32     1    25    1
    33    17    21    1
    34    20    21    1
    35    20    23    1
    36    35    34    1
    37    35    38    1
    38    34     5    2
    39    21     4    2
    40    24    23    2
    41    25    29   ar
    42    25    26   ar
    43     5    29    1
    44     4    26    1
    45    29    28   ar
    46    26    27   ar
    47    28    27   ar
    48    28    31    1
    49    27    30    1
    50    31    32    2
