@<TRIPOS>MOLECULE
3eki_TPP_A_1.pdb
 26 27 0 0 0
SMALL
GASTEIGER

@<TRIPOS>ATOM
      1  N1'       27.3750   33.0410   33.1410 N.2   551  TPP551     -0.1861
      2  C2'       26.5510   32.0970   32.6230 C.1   551  TPP551      0.0663
      3  CM2       25.0860   32.4630   32.3630 C.3   551  TPP551      0.1291
      4  N3'       27.0120   30.8680   32.3310 N.2   551  TPP551     -0.3368
      5  C4'       28.3390   30.6050   32.4690 C.2   551  TPP551      0.2292
      6  N4'       28.7890   29.4060   32.0910 N.pl3 551  TPP551     -0.0925
      7  C5'       29.1970   31.5450   33.0570 C.2   551  TPP551      0.0654
      8  C6'       28.6550   32.7800   33.3920 C.2   551  TPP551      0.1115
      9  C7'       30.6890   31.3200   33.3450 C.3   551  TPP551      0.1237
     10  N3        31.6170   31.6700   32.2550 N.pl3 551  TPP551     -0.2970
     11  C2        31.3330   31.5940   30.9550 C.3   551  TPP551      0.1543
     12  S1        32.7130   32.1340   30.0270 S.3   551  TPP551     -0.0951
     13  C5        33.6570   32.4200   31.4690 C.2   551  TPP551      0.0164
     14  C4        32.9110   31.9940   32.5510 C.2   551  TPP551      0.0279
     15  CM4       33.3390   32.2990   34.0030 C.3   551  TPP551      0.0473
     16  C6        35.1220   32.8710   31.4680 C.3   551  TPP551      0.0661
     17  C7        36.0420   31.7060   31.0930 C.3   551  TPP551      0.1544
     18  O7        35.9480   30.6880   32.1110 O.3   551  TPP551     -0.3134
     19  PA        36.2990   29.1520   31.8980 P.3   551  TPP551      0.2230
     20  O1A       35.7690   28.3870   33.0530 O.3   551  TPP551     -0.4370
     21  O2A       35.8140   28.6850   30.5550 O.2   551  TPP551     -0.5169
     22  O3A       37.8670   29.0370   31.7690 O.3   551  TPP551     -0.2261
     23  PB        38.9170   28.8730   32.9730 P.3   551  TPP551      0.5373
     24  O1B       38.8660   30.0760   33.8640 O.3   551  TPP551     -0.1143
     25  O2B       40.3070   28.7430   32.2320 O.2   551  TPP551     -0.2221
     26  O3B       38.6620   27.4980   33.7250 O.3   551  TPP551     -0.1143
@<TRIPOS>BOND
     1    12    11    1
     2    12    13    1
     3    21    19    2
     4    11    10    1
     5    17    16    1
     6    17    18    1
     7    16    13    1
     8    13    14    2
     9    22    19    1
    10    22    23    1
    11    19    18    1
    12    19    20    1
    13     6     5    1
    14    25    23    2
    15    10    14    1
    16    10     9    1
    17     4     5    2
    18     4     2    2
    19     3     2    1
    20     5     7    1
    21    14    15    1
    22     2     1    2
    23    23    26    1
    24    23    24    1
    25     7     9    1
    26     7     8    2
    27     1     8    1
