@<TRIPOS>MOLECULE
3ekk_GS2_A_1.pdb
 39 43 0 0 0
SMALL
GASTEIGER

@<TRIPOS>ATOM
      1  C1       -12.2370   23.6920  -19.7260 C.3     1  GS21        0.1388
      2  N1       -10.9520   23.8850  -20.3520 N.am    1  GS21       -0.1997
      3  C2        -9.8110   23.9820  -19.5910 C.2     1  GS21        0.2683
      4  O1        -9.7670   24.0270  -18.3660 O.2     1  GS21       -0.2682
      5  C3        -8.5610   24.0840  -20.3760 C.ar    1  GS21        0.0977
      6  C4        -8.6120   24.6490  -21.6340 C.ar    1  GS21        0.1458
      7  F1        -9.7860   25.0790  -22.1340 F       1  GS21       -0.2040
      8  C5        -7.4690   24.7800  -22.3880 C.ar    1  GS21        0.0299
      9  C6        -6.2750   24.3330  -21.8680 C.ar    1  GS21        0.0036
     10  C7        -6.2290   23.7660  -20.6140 C.ar    1  GS21        0.0169
     11  C8        -7.3670   23.6310  -19.8450 C.ar    1  GS21        0.0794
     12  N2        -7.3350   23.0640  -18.5550 N.pl3   1  GS21       -0.1851
     13  C9        -6.3560   22.1950  -18.0350 C.2     1  GS21        0.2127
     14  N3        -5.2870   21.7510  -18.7140 N.2     1  GS21       -0.3123
     15  C10       -4.4010   20.9250  -18.1350 C.1     1  GS21        0.2343
     16  N4        -3.2860   20.4560  -18.8540 N.pl3   1  GS21       -0.1217
     17  C11       -2.9140   20.7880  -20.1760 C.ar    1  GS21        0.1188
     18  C12       -3.8340   20.9540  -21.2000 C.ar    1  GS21        0.0381
     19  C13       -3.3690   21.2760  -22.4590 C.ar    1  GS21        0.0681
     20  N5        -4.0850   21.5030  -23.6420 N.ar    1  GS21       -0.2754
     21  C14       -3.1560   21.8150  -24.7170 C.ar    1  GS21        0.0827
     22  C15       -1.7600   21.7800  -24.1270 C.ar    1  GS21        0.0206
     23  C16       -2.0360   21.4310  -22.7120 C.ar    1  GS21        0.0208
     24  C17       -1.1080   21.2630  -21.7130 C.ar    1  GS21        0.0398
     25  C18       -1.5650   20.9370  -20.4490 C.ar    1  GS21        0.1547
     26  O2        -0.6830   20.7460  -19.3900 O.3     1  GS21       -0.4701
     27  C19        0.6510   20.6890  -19.8760 C.3     1  GS21        0.2525
     28  C20       -5.4590   21.3720  -23.7850 C.2     1  GS21        0.2576
     29  O3        -6.1580   20.7010  -23.0340 O.2     1  GS21       -0.2701
     30  C21       -6.0360   22.0310  -25.0080 C.3     1  GS21        0.1620
     31  N6        -7.4210   21.5490  -25.2770 N.3     1  GS21       -0.2624
     32  C22       -8.4480   22.1880  -24.4200 C.3     1  GS21        0.0901
     33  C23       -7.8060   21.7190  -26.7010 C.3     1  GS21        0.0901
     34  N7        -4.4750   20.4680  -16.8770 N.2     1  GS21       -0.2754
     35  C24       -5.5430   20.9160  -16.2260 C.1     1  GS21        0.0886
     36  N8        -5.8820   20.6160  -14.9360 N.2     1  GS21       -0.1850
     37  C25       -7.0350   21.2610  -14.5920 C.2     1  GS21        0.1072
     38  C26       -7.4430   21.9820  -15.6910 C.2     1  GS21        0.0194
     39  C27       -6.4990   21.7640  -16.7290 C.3     1  GS21        0.1908
@<TRIPOS>BOND
     1    33    31    1
     2    31    30    1
     3    31    32    1
     4    30    28    1
     5    21    22   ar
     6    21    20   ar
     7    22    23   ar
     8    28    20   am
     9    28    29    2
    10    20    19   ar
    11    23    19   ar
    12    23    24   ar
    13    19    18   ar
    14     8     9   ar
    15     8     6   ar
    16     7     6    1
    17     9    10   ar
    18    24    25   ar
    19     6     5   ar
    20    18    17   ar
    21    10    11   ar
    22    25    17   ar
    23    25    26    1
    24     5    11   ar
    25     5     3    1
    26     2     1    1
    27     2     3   am
    28    17    16    1
    29    27    26    1
    30    11    12    1
    31     3     4    2
    32    16    15    1
    33    14    15    2
    34    14    13    2
    35    12    13    1
    36    15    34    2
    37    13    39    1
    38    34    35    2
    39    39    35    1
    40    39    38    1
    41    35    36    2
    42    38    37    2
    43    36    37    1
