@<TRIPOS>MOLECULE
3ekl_13P_A_1.pdb
 10 9 0 0 0
SMALL
GASTEIGER

@<TRIPOS>ATOM
      1  P          7.6330   41.7990   18.5040 P.3   350  13P350      0.5330
      2  O1P        8.1540   40.8710   17.4300 O.2   350  13P350     -0.2224
      3  O2P        6.2310   41.4620   18.9410 O.3   350  13P350     -0.1145
      4  O3P        7.9020   43.2490   18.1950 O.3   350  13P350     -0.1145
      5  O1         8.4920   41.5190   19.8540 O.3   350  13P350     -0.2621
      6  C1         7.8400   41.5190   21.1380 C.3   350  13P350      0.2204
      7  C2         8.7600   41.8410   22.2970 C.2   350  13P350      0.2140
      8  O2         9.4980   40.9890   22.7850 O.2   350  13P350     -0.2906
      9  C3         8.7510   43.2300   22.8960 C.3   350  13P350      0.2485
     10  O3         9.8040   44.0300   22.3430 O.3   350  13P350     -0.2118
@<TRIPOS>BOND
     1     2     1    2
     2     4     1    1
     3     1     3    1
     4     1     5    1
     5     5     6    1
     6     6     7    1
     7     7     8    2
     8     7     9    1
     9    10     9    1
