@<TRIPOS>MOLECULE
3ekm_ZDR_A_1.pdb
 14 13 0 0 0
SMALL
GASTEIGER

@<TRIPOS>ATOM
      1  CAN       -4.3300  -10.9500   32.6790 C.3   500  ZDR500      0.0306
      2  CAT       -3.6420  -11.5040   31.4060 C.3   500  ZDR500      0.1699
      3  NAC       -3.0820  -10.3720   30.7680 N.3   500  ZDR500     -0.1229
      4  CAQ       -4.6780  -12.1700   30.5820 C.2   500  ZDR500      0.3799
      5  OAF       -4.8750  -13.4180   30.5460 O.co2 500  ZDR500     -0.2441
      6  OAH       -5.4080  -11.3880   29.9120 O.co2 500  ZDR500     -0.2441
      7  CAM       -2.5650  -12.4570   31.8480 C.3   500  ZDR500      0.0287
      8  CAJ       -1.0860  -12.0010   31.6920 C.3   500  ZDR500      0.0041
      9  CAK       -0.0890  -13.0500   32.2190 C.3   500  ZDR500      0.0307
     10  CAS        0.0720  -13.0360   33.7580 C.3   500  ZDR500      0.1943
     11  NAB        0.5750  -11.7570   34.2250 N.3   500  ZDR500     -0.1208
     12  CAP        1.0460  -14.1000   34.2200 C.2   500  ZDR500      0.3819
     13  OAE        0.6330  -15.2810   34.2170 O.co2 500  ZDR500     -0.2441
     14  OAG        2.2220  -13.8100   34.5920 O.co2 500  ZDR500     -0.2441
@<TRIPOS>BOND
     1     6     4   ar
     2     5     4   ar
     3     4     2    1
     4     3     2    1
     5     2     7    1
     6     2     1    1
     7     8     7    1
     8     8     9    1
     9     9    10    1
    10    10    12    1
    11    10    11    1
    12    13    12   ar
    13    12    14   ar
