@<TRIPOS>MOLECULE
3ekn_GS3_A_1.pdb
 38 42 0 0 0
SMALL
GASTEIGER

@<TRIPOS>ATOM
      1  C1        -0.1160   19.8720   20.5510 C.3     1  GS31        0.2525
      2  O1         1.1320   19.6690   19.8980 O.3     1  GS31       -0.4700
      3  C2         2.1620   19.9550   20.7960 C.ar    1  GS31        0.1559
      4  C3         1.9380   20.0890   22.1500 C.ar    1  GS31        0.0528
      5  C4         2.9770   20.3930   23.0060 C.ar    1  GS31        0.0511
      6  C5         4.2390   20.5370   22.4590 C.ar    1  GS31        0.0161
      7  C6         4.4710   20.3870   21.1080 C.ar    1  GS31        0.0217
      8  C7         3.4240   20.0980   20.2550 C.ar    1  GS31        0.1174
      9  N1         3.5460   19.9380   18.8540 N.pl3   1  GS31       -0.1218
     10  C8         4.5960   20.3360   18.0130 C.1     1  GS31        0.2343
     11  N2         5.5630   21.1190   18.5050 N.2     1  GS31       -0.3123
     12  C9         6.5870   21.4970   17.7270 C.2     1  GS31        0.2127
     13  N3         7.6380   22.3170   18.1720 N.pl3   1  GS31       -0.1851
     14  C10        7.8220   22.8100   19.4740 C.ar    1  GS31        0.0795
     15  C11        6.7660   23.1650   20.2890 C.ar    1  GS31        0.0169
     16  C12        6.9930   23.6530   21.5570 C.ar    1  GS31        0.0036
     17  C13        8.2760   23.7990   22.0410 C.ar    1  GS31        0.0299
     18  C14        9.3380   23.4520   21.2340 C.ar    1  GS31        0.1458
     19  F1        10.6180   23.5780   21.6590 F       1  GS31       -0.2040
     20  C15        9.1010   22.9680   19.9660 C.ar    1  GS31        0.0993
     21  C16       10.2740   22.6070   19.1560 C.2     1  GS31        0.2876
     22  O2        10.3760   22.9480   17.9880 O.2     1  GS31       -0.2665
     23  N4        11.1900   21.8690   19.8610 N.am    1  GS31       -0.0836
     24  C17        6.6000   21.0560   16.4150 C.3     1  GS31        0.1908
     25  C18        7.4660   21.2280   15.3050 C.2     1  GS31        0.0194
     26  C19        6.9240   20.5330   14.2520 C.2     1  GS31        0.1072
     27  N5         5.7700   19.9490   14.6840 N.2     1  GS31       -0.1850
     28  C20        5.5610   20.2590   16.0010 C.1     1  GS31        0.0886
     29  N6         4.5360   19.8650   16.7570 N.2     1  GS31       -0.2754
     30  N7         2.7470   20.5310   24.3950 N.pl3   1  GS31       -0.3046
     31  C21        3.9970   20.4540   25.1270 C.3     1  GS31        0.1081
     32  C22        3.6580   20.1650   26.5660 C.3     1  GS31        0.0938
     33  N8         2.8420   21.3040   27.0630 N.3     1  GS31       -0.2711
     34  C23        1.6210   21.5860   26.2310 C.3     1  GS31        0.0938
     35  C24        1.9850   21.7250   24.7590 C.3     1  GS31        0.1081
     36  C25        2.5960   21.2030   28.5410 C.3     1  GS31        0.0577
     37  C26        3.9100   21.3890   29.2750 C.3     1  GS31        0.0173
     38  C27        1.7140   22.3510   28.9620 C.3     1  GS31        0.0173
@<TRIPOS>BOND
     1    26    27    1
     2    26    25    2
     3    27    28    2
     4    25    24    1
     5    28    24    1
     6    28    29    2
     7    24    12    1
     8    29    10    2
     9    12    13    1
    10    12    11    2
    11    22    21    2
    12    10    11    2
    13    10     9    1
    14    13    14    1
    15     9     8    1
    16    21    23   am
    17    21    20    1
    18    14    20   ar
    19    14    15   ar
    20     2     1    1
    21     2     3    1
    22    20    18   ar
    23     8     3   ar
    24     8     7   ar
    25    15    16   ar
    26     3     4   ar
    27     7     6   ar
    28    18    19    1
    29    18    17   ar
    30    16    17   ar
    31     4     5   ar
    32     6     5   ar
    33     5    30    1
    34    30    35    1
    35    30    31    1
    36    35    34    1
    37    31    32    1
    38    34    33    1
    39    32    33    1
    40    33    36    1
    41    36    38    1
    42    36    37    1
