@<TRIPOS>MOLECULE
3eko_PYU_A_1.pdb
 16 17 0 0 0
SMALL
GASTEIGER

@<TRIPOS>ATOM
      1  N1        17.3300   -3.7920   51.3110 N.ar  901  PYU901     -0.2715
      2  C4        15.0750   -1.4890   50.6690 C.ar  901  PYU901      0.2066
      3  C5        16.5860    0.6050   49.4790 C.ar  901  PYU901      0.0844
      4  C6        14.5470   -0.1700   50.6470 C.ar  901  PYU901      0.0844
      5  C7        17.8580   -5.0670   51.3870 C.ar  901  PYU901      0.0830
      6  C8        17.2880   -3.2890   52.6110 C.ar  901  PYU901      0.0830
      7  C10       18.1380   -5.3550   52.7030 C.ar  901  PYU901      0.0206
      8  C11       17.7790   -4.2340   53.4710 C.ar  901  PYU901      0.0206
      9  C1        16.3580   -1.7640   50.0990 C.ar  901  PYU901      0.1343
     10  C9        15.3090    0.8690   50.0510 C.ar  901  PYU901      0.2021
     11  C3        17.1030   -0.7160   49.5080 C.ar  901  PYU901      0.2066
     12  C2        16.9180   -3.1330   50.1250 C.2   901  PYU901      0.2710
     13  O1        17.0400   -3.7310   49.0500 O.2   901  PYU901     -0.2664
     14  O4        14.7860    2.1290   50.0470 O.3   901  PYU901     -0.2864
     15  O2        18.3320   -0.9270   48.9500 O.3   901  PYU901     -0.2862
     16  O3        14.3520   -2.5010   51.2450 O.3   901  PYU901     -0.2862
@<TRIPOS>BOND
     1    15    11    1
     2    13    12    2
     3     3    11   ar
     4     3    10   ar
     5    11     9   ar
     6    14    10    1
     7    10     4   ar
     8     9    12    1
     9     9     2   ar
    10    12     1   am
    11     4     2   ar
    12     2    16    1
    13     1     5   ar
    14     1     6   ar
    15     5     7   ar
    16     6     8   ar
    17     7     8   ar
