@<TRIPOS>MOLECULE
3ekp_478_B_1.pdb
 35 37 0 0 0
SMALL
GASTEIGER

@<TRIPOS>ATOM
      1  C1         8.9390  -22.2750   29.7780 C.3   200  478200      0.1856
      2  C2        11.2180  -21.6590   30.2550 C.3   200  478200      0.0784
      3  C3        10.5500  -21.7060   33.0940 C.2   200  478200      0.4211
      4  C4         9.8070  -21.5610   30.8000 C.3   200  478200      0.2024
      5  C5        11.4930  -22.2660   35.2750 C.3   200  478200      0.1347
      6  C6        13.0050  -22.4800   35.3110 C.3   200  478200      0.1898
      7  C7        10.7460  -23.1270   36.3000 C.3   200  478200      0.0508
      8  C8         9.2470  -22.9340   36.2130 C.ar  200  478200     -0.0204
      9  C9         8.4250  -24.0460   36.0350 C.ar  200  478200     -0.0042
     10  C10        8.6840  -21.6700   36.3870 C.ar  200  478200     -0.0042
     11  C11        7.0410  -23.8890   35.9890 C.ar  200  478200     -0.0003
     12  C12        7.2920  -21.5090   36.3190 C.ar  200  478200     -0.0003
     13  C13        6.4610  -22.6200   36.1160 C.ar  200  478200     -0.0000
     14  C14       13.5660  -21.9700   36.6200 C.3   200  478200      0.1304
     15  C15       14.8790  -19.9830   36.4360 C.3   200  478200      0.0958
     16  C16       15.1890  -19.7540   34.9570 C.3   200  478200      0.0178
     17  C17       13.3940  -19.9120   39.2240 C.ar  200  478200      0.1223
     18  C18       12.9440  -20.7710   40.2300 C.ar  200  478200      0.0213
     19  C19       13.5190  -20.7590   41.5010 C.ar  200  478200      0.0194
     20  C20       14.5570  -19.8820   41.7540 C.ar  200  478200      0.0892
     21  C21       14.9640  -18.9770   40.7930 C.ar  200  478200      0.0194
     22  C22       14.3850  -19.0030   39.5310 C.ar  200  478200      0.0213
     23  C23       14.2380  -18.7110   34.3880 C.3   200  478200      0.0015
     24  C24       16.6320  -19.2980   34.7960 C.3   200  478200      0.0015
     25  C25       11.0610  -22.2220   28.8520 C.3   200  478200      0.1461
     26  N1        10.9400  -22.5900   33.9950 N.am  200  478200     -0.1675
     27  N2        13.5230  -20.5180   36.5670 N.3   200  478200     -0.1529
     28  N3        15.1500  -19.8640   42.9550 N.pl3 200  478200     -0.1281
     29  O1         9.7400  -22.2630   32.0180 O.3   200  478200     -0.4346
     30  O2        10.7900  -20.5310   33.1220 O.2   200  478200     -0.2246
     31  O3        13.3960  -23.8410   35.2460 O.3   200  478200     -0.2197
     32  O4        11.3890  -20.5000   37.9220 O.2   200  478200     -0.1528
     33  O5        12.4170  -18.5160   37.4030 O.2   200  478200     -0.1528
     34  O6         9.8140  -22.8970   28.8210 O.3   200  478200     -0.3498
     35  S1        12.6720  -19.8610   37.7860 S.O2  200  478200      0.0634
@<TRIPOS>BOND
     1    34    25    1
     2    34     1    1
     3    25     2    1
     4     1     4    1
     5     2     4    1
     6     4    29    1
     7    29     3    1
     8     3    30    2
     9     3    26   am
    10    26     5    1
    11    23    16    1
    12    24    16    1
    13    16    15    1
    14    31     6    1
    15     5     6    1
    16     5     7    1
    17     6    14    1
    18    11     9   ar
    19    11    13   ar
    20     9     8   ar
    21    13    12   ar
    22     8     7    1
    23     8    10   ar
    24    12    10   ar
    25    15    27    1
    26    27    14    1
    27    27    35    1
    28    33    35    2
    29    35    32    2
    30    35    17    1
    31    17    22   ar
    32    17    18   ar
    33    22    21   ar
    34    18    19   ar
    35    21    20   ar
    36    19    20   ar
    37    20    28    1
