@<TRIPOS>MOLECULE
3ekq_ROC_A_1.pdb
 49 53 0 0 0
SMALL
GASTEIGER

@<TRIPOS>ATOM
      1  C         21.3450    3.9920   20.3020 C.2   100  ROC100      0.2949
      2  O         21.6770    4.9420   19.5970 O.2   100  ROC100     -0.2655
      3  N1        20.0570    3.1850   22.3140 N.2   100  ROC100     -0.4012
      4  C2        20.4500    4.1940   21.5000 C.2   100  ROC100      0.1857
      5  C3        20.0220    5.4890   21.7750 C.2   100  ROC100      0.0369
      6  C4        19.2030    5.7400   22.8710 C.2   100  ROC100      0.0050
      7  C5        17.9960    4.9170   24.7930 C.2   100  ROC100      0.0019
      8  C6        17.6140    3.8590   25.6120 C.2   100  ROC100     -0.0041
      9  C7        18.0610    2.5710   25.3290 C.2   100  ROC100     -0.0187
     10  C8        18.8750    2.3480   24.2190 C.3   100  ROC100      0.0849
     11  C4A       18.8160    4.6870   23.6910 C.2   100  ROC100      0.0258
     12  C8A       19.2610    3.4030   23.3920 C.2   100  ROC100      0.1135
     13  N         21.8560    2.8410   19.8780 N.am  100  ROC100     -0.1913
     14  CA        22.5650    1.8330   19.1290 C.3   100  ROC100      0.1823
     15  C1        21.6380    0.7640   18.6380 C.2   100  ROC100      0.2618
     16  O1        21.5990   -0.3060   19.2130 O.2   100  ROC100     -0.2715
     17  CB        23.8390    1.4110   19.8600 C.3   100  ROC100      0.1195
     18  CG        24.6760    2.6690   20.0300 C.2   100  ROC100      0.2630
     19  OD1       25.0430    3.3120   19.0660 O.2   100  ROC100     -0.2716
     20  ND2       24.9540    3.0520   21.2690 N.am  100  ROC100     -0.0877
     21  C9        20.3360    0.0470   15.3800 C.3   100  ROC100      0.1879
     22  O2        20.3890    1.1460   14.6110 O.3   100  ROC100     -0.2198
     23  CA1       19.9940    0.2430   16.8330 C.3   100  ROC100      0.1313
     24  N2        20.9320    1.1060   17.5390 N.am  100  ROC100     -0.2027
     25  CB1       18.5430    0.7680   16.8850 C.3   100  ROC100      0.0506
     26  CG1       18.0940    1.2920   18.2270 C.ar  100  ROC100     -0.0204
     27  CD1       17.8760    0.4390   19.3050 C.ar  100  ROC100     -0.0042
     28  CD2       17.8800    2.6600   18.3820 C.ar  100  ROC100     -0.0042
     29  CE1       17.4450    0.9530   20.5280 C.ar  100  ROC100     -0.0003
     30  CE2       17.4550    3.1770   19.6030 C.ar  100  ROC100     -0.0003
     31  CZ        17.2350    2.3180   20.6770 C.ar  100  ROC100     -0.0000
     32  N11       20.6040   -2.3240   15.0360 N.3   100  ROC100     -0.2643
     33  CM        19.9030   -1.1010   14.8020 C.3   100  ROC100      0.1075
     34  C21       19.7790   -3.5230   14.8150 C.3   100  ROC100      0.1365
     35  CC        18.5270   -3.5160   15.6430 C.2   100  ROC100      0.2558
     36  O3        18.6080   -3.2180   16.8350 O.2   100  ROC100     -0.2719
     37  C31       20.5800   -4.7800   15.1780 C.3   100  ROC100      0.0254
     38  C3A       21.8500   -4.8810   14.3390 C.3   100  ROC100      0.0032
     39  C41       22.6740   -6.1240   14.6870 C.3   100  ROC100      0.0001
     40  C51       23.3710   -6.0080   16.0410 C.3   100  ROC100      0.0000
     41  C61       24.2090   -4.7400   16.1360 C.3   100  ROC100      0.0000
     42  C71       23.3440   -3.5140   15.8490 C.3   100  ROC100      0.0014
     43  C7A       22.6850   -3.6130   14.4760 C.3   100  ROC100      0.0161
     44  C81       21.8390   -2.3810   14.2140 C.3   100  ROC100      0.0725
     45  N3        17.4290   -3.9050   14.9580 N.am  100  ROC100     -0.2077
     46  CD        16.0670   -4.0650   15.4580 C.3   100  ROC100      0.0788
     47  C11       15.2220   -4.6620   14.3330 C.3   100  ROC100      0.0217
     48  C22       16.0460   -4.9990   16.6710 C.3   100  ROC100      0.0217
     49  C32       15.4970   -2.6920   15.8130 C.3   100  ROC100      0.0217
@<TRIPOS>BOND
     1    44    43    1
     2    44    32    1
     3    47    46    1
     4    38    43    1
     5    38    39    1
     6    38    37    1
     7    43    42    1
     8    22    21    1
     9    39    40    1
    10    33    32    1
    11    33    21    1
    12    34    32    1
    13    34    37    1
    14    34    35    1
    15    45    46    1
    16    45    35   am
    17    21    23    1
    18    46    49    1
    19    46    48    1
    20    35    36    2
    21    42    41    1
    22    40    41    1
    23    23    25    1
    24    23    24    1
    25    25    26    1
    26    24    15   am
    27    26    28   ar
    28    26    27   ar
    29    28    30   ar
    30    15    14    1
    31    15    16    2
    32    19    18    2
    33    14    17    1
    34    14    13    1
    35    27    29   ar
    36     2     1    2
    37    30    31   ar
    38    17    18    1
    39    13     1   am
    40    18    20   am
    41     1     4    1
    42    29    31   ar
    43     4     5    1
    44     4     3    2
    45     5     6    2
    46     3    12    2
    47     6    11    1
    48    12    11    1
    49    12    10    1
    50    11     7    2
    51    10     9    1
    52     7     8    1
    53     9     8    2
