@<TRIPOS>MOLECULE
3ekr_PY9_A_1.pdb
 22 24 0 0 0
SMALL
GASTEIGER

@<TRIPOS>ATOM
      1  N1        17.1140   -3.7120   51.0650 N.am  901  PY9901     -0.2739
      2  C4        15.2170    0.8970   49.6930 C.ar  901  PY9901      0.1989
      3  C5        16.5820    0.6770   49.3700 C.ar  901  PY9901      0.0842
      4  C6        17.1030   -0.6460   49.4040 C.ar  901  PY9901      0.2032
      5  C7        16.8290   -3.1190   49.8050 C.2   901  PY9901      0.2523
      6  C8        16.9380   -3.1630   52.4490 C.3   901  PY9901      0.0979
      7  C10       17.8680   -5.4040   52.5880 C.3   901  PY9901      0.0236
      8  C13       14.4900   -4.0780   52.5680 C.ar  901  PY9901     -0.0030
      9  C15       12.7880   -3.0890   54.0340 C.ar  901  PY9901     -0.0003
     10  C17       15.0820   -2.1400   54.0060 C.ar  901  PY9901     -0.0243
     11  C14       13.1620   -4.0530   53.0730 C.ar  901  PY9901     -0.0003
     12  C2        14.8930   -1.5000   50.0740 C.ar  901  PY9901      0.0110
     13  C16       13.7350   -2.1430   54.4960 C.ar  901  PY9901     -0.0045
     14  C3        14.3690   -0.1820   50.0430 C.ar  901  PY9901      0.0424
     15  C1        16.2670   -1.7390   49.7580 C.ar  901  PY9901      0.0926
     16  C12       15.4870   -3.1320   53.0130 C.ar  901  PY9901     -0.0082
     17  C9        17.8840   -4.0440   53.2820 C.3   901  PY9901      0.0261
     18  C11       17.6810   -5.0660   51.1140 C.3   901  PY9901      0.0940
     19  C18       16.0250   -1.0880   54.5570 C.3   901  PY9901      0.0308
     20  O3        17.0280   -3.6660   48.7170 O.2   901  PY9901     -0.2698
     21  O2        14.6890    2.1500   49.6810 O.3   901  PY9901     -0.2865
     22  O1        18.4180   -0.8030   49.0880 O.3   901  PY9901     -0.2863
@<TRIPOS>BOND
     1    20     5    2
     2    22     4    1
     3     3     4   ar
     4     3     2   ar
     5     4    15   ar
     6    21     2    1
     7     2    14   ar
     8    15     5    1
     9    15    12   ar
    10     5     1   am
    11    14    12   ar
    12     1    18    1
    13     1     6    1
    14    18     7    1
    15     6    16    1
    16     6    17    1
    17     8    16   ar
    18     8    11   ar
    19     7    17    1
    20    16    10   ar
    21    11     9   ar
    22    10    13   ar
    23    10    19    1
    24     9    13   ar
