@<TRIPOS>MOLECULE
3eks_ATP_A_1.pdb
 31 33 0 0 0
SMALL
GASTEIGER

@<TRIPOS>ATOM
      1  PG       167.0740    1.2120   32.2900 P.3   800  ATP800      0.5373
      2  O1G      168.1930    1.2140   33.2580 O.3   800  ATP800     -0.1143
      3  O2G      167.0160   -0.1340   31.4090 O.2   800  ATP800     -0.2221
      4  O3G      165.6350    1.3420   32.9990 O.3   800  ATP800     -0.1143
      5  PB       167.0290    2.3780   29.6850 P.3   800  ATP800      0.2277
      6  O1B      166.2150    1.1950   29.3270 O.3   800  ATP800     -0.4368
      7  O2B      166.5850    3.7040   29.2020 O.2   800  ATP800     -0.5168
      8  O3B      167.1410    2.4730   31.2890 O.3   800  ATP800     -0.2258
      9  PA       169.0160    1.8810   27.7480 P.3   800  ATP800      0.2189
     10  O1A      169.2060    0.4230   27.5850 O.3   800  ATP800     -0.4371
     11  O2A      168.0790    2.5820   26.8430 O.2   800  ATP800     -0.5170
     12  O3A      168.5660    2.1420   29.2730 O.3   800  ATP800     -0.2700
     13  O5'      170.4670    2.5790   27.7170 O.3   800  ATP800     -0.3112
     14  C5'      170.6370    3.9900   27.8800 C.3   800  ATP800      0.1813
     15  C4'      171.9810    4.2690   28.5560 C.3   800  ATP800      0.1821
     16  O4'      173.0170    3.6940   27.7390 O.3   800  ATP800     -0.3135
     17  C3'      172.2800    5.7680   28.6480 C.3   800  ATP800      0.2184
     18  O3'      173.0930    6.0340   29.7940 O.3   800  ATP800     -0.2174
     19  C2'      173.1090    5.9780   27.3840 C.3   800  ATP800      0.2570
     20  O2'      173.9380    7.1310   27.5480 O.3   800  ATP800     -0.2130
     21  C1'      173.9810    4.7280   27.4880 C.3   800  ATP800      0.3186
     22  N9       174.6910    4.5100   26.2070 N.pl3 800  ATP800     -0.1439
     23  C8       174.1530    4.6320   24.9950 C.3   800  ATP800      0.3377
     24  N7       175.0740    4.3720   24.0700 N.2   800  ATP800     -0.2095
     25  C5       176.2100    4.0820   24.6960 C.2   800  ATP800      0.2526
     26  C6       177.4830    3.7250   24.2700 C.2   800  ATP800      0.4393
     27  N6       177.7670    3.6580   22.9720 N.pl3 800  ATP800      0.2180
     28  N1       178.4250    3.4690   25.1880 N.2   800  ATP800      0.0021
     29  C2       178.1580    3.5610   26.4790 C.3   800  ATP800      0.5254
     30  N3       176.9610    3.9030   26.9190 N.2   800  ATP800     -0.0055
     31  C4       175.9670    4.1680   26.0580 C.2   800  ATP800      0.3518
@<TRIPOS>BOND
     1    27    26    1
     2    24    25    2
     3    24    23    1
     4    26    25    1
     5    26    28    2
     6    25    31    1
     7    23    22    1
     8    28    29    1
     9    31    22    1
    10    31    30    2
    11    22    21    1
    12    29    30    1
    13    11     9    2
    14    19    21    1
    15    19    20    1
    16    19    17    1
    17    21    16    1
    18    10     9    1
    19    13     9    1
    20    13    14    1
    21    16    15    1
    22     9    12    1
    23    14    15    1
    24    15    17    1
    25    17    18    1
    26     7     5    2
    27    12     5    1
    28     6     5    1
    29     5     8    1
    30     8     1    1
    31     3     1    2
    32     1     4    1
    33     1     2    1
