@<TRIPOS>MOLECULE
3eks_CY9_A_1.pdb
 37 40 0 0 0
SMALL
GASTEIGER

@<TRIPOS>ATOM
      1  C1       159.7530  -16.4910   31.3260 C.1   903  CY9903      0.1281
      2  C5       157.0340  -14.9310   29.8150 C.3   903  CY9903      0.0055
      3  C4       157.5720  -16.2730   30.3190 C.3   903  CY9903      0.0423
      4  C3       158.6160  -16.8420   29.3530 C.3   903  CY9903      0.1199
      5  O1       160.6910  -16.3750   32.1150 O.2   903  CY9903     -0.2269
      6  C6       158.1750  -13.9180   29.8910 C.3   903  CY9903      0.0309
      7  C25      157.1910  -18.0370   26.6500 C.ar  903  CY9903     -0.0042
      8  C26      156.1200  -18.1900   25.7780 C.ar  903  CY9903     -0.0003
      9  C27      154.9140  -18.7000   26.2460 C.ar  903  CY9903     -0.0000
     10  C28      154.7780  -19.0550   27.5830 C.ar  903  CY9903     -0.0003
     11  C29      155.8490  -18.9020   28.4560 C.ar  903  CY9903     -0.0042
     12  C24      157.0570  -18.3950   27.9880 C.ar  903  CY9903     -0.0202
     13  C10      158.2550  -18.2670   28.9290 C.3   903  CY9903      0.0515
     14  N2       159.9060  -16.8640   30.0590 N.2   903  CY9903     -0.2079
     15  C9       158.3000  -16.1490   31.6630 C.3   903  CY9903      0.1413
     16  C11      156.5080  -15.0410   28.3820 C.3   903  CY9903      0.0002
     17  C12      158.6530  -13.2530   28.7680 C.3   903  CY9903      0.0026
     18  C7       158.8180  -13.7030   31.2600 C.3   903  CY9903      0.1570
     19  O7       158.5050  -12.3810   31.7060 O.3   903  CY9903     -0.2228
     20  C8       158.2280  -14.7270   32.2330 C.3   903  CY9903      0.0703
     21  C13      158.9940  -14.5870   33.5520 C.2   903  CY9903     -0.0273
     22  C14      158.3960  -13.9600   34.6390 C.2   903  CY9903     -0.0302
     23  C15      159.0790  -13.8060   35.8420 C.3   903  CY9903      0.0331
     24  C16      158.8530  -14.9530   36.8280 C.3   903  CY9903      0.0648
     25  C22      159.2980  -14.5540   38.2370 C.3   903  CY9903      0.0082
     26  C17      159.6250  -16.2010   36.3920 C.2   903  CY9903      0.1817
     27  O17      160.8520  -16.1800   36.3050 O.2   903  CY9903     -0.2932
     28  C18      158.8540  -17.4850   36.0850 C.3   903  CY9903      0.1954
     29  O18      159.7870  -18.5200   35.7610 O.3   903  CY9903     -0.2136
     30  C23      158.0240  -17.8740   37.3100 C.3   903  CY9903      0.0452
     31  C19      158.0210  -17.2360   35.0000 C.2   903  CY9903      0.0094
     32  C20      158.4930  -17.4350   33.7080 C.2   903  CY9903      0.0160
     33  C21      157.6790  -17.1820   32.6090 C.3   903  CY9903      0.2052
     34  O21      156.3950  -16.7120   33.0430 O.3   903  CY9903     -0.4466
     35  C30      155.4260  -17.6380   32.8130 C.2   903  CY9903      0.3178
     36  C31      154.1030  -17.3380   33.1180 C.3   903  CY9903      0.1212
     37  O30      155.7080  -18.7260   32.3130 O.2   903  CY9903     -0.2501
@<TRIPOS>BOND
     1     8     9   ar
     2     8     7   ar
     3     9    10   ar
     4     7    12   ar
     5    10    11   ar
     6    12    11   ar
     7    12    13    1
     8    16     2    1
     9    17     6    1
    10    13     4    1
    11     4    14    1
    12     4     3    1
    13     2     6    1
    14     2     3    1
    15     6    18    1
    16    14     1    2
    17     3    15    1
    18    18    19    1
    19    18    20    1
    20     1    15    1
    21     1     5    2
    22    15    20    1
    23    15    33    1
    24    20    21    1
    25    37    35    2
    26    33    34    1
    27    33    32    1
    28    35    34    1
    29    35    36    1
    30    21    22    2
    31    32    31    2
    32    22    23    1
    33    31    28    1
    34    29    28    1
    35    23    24    1
    36    28    26    1
    37    28    30    1
    38    27    26    2
    39    26    24    1
    40    24    25    1
