@<TRIPOS>MOLECULE
3ekt_017_B_1.pdb
 38 41 0 0 0
SMALL
GASTEIGER

@<TRIPOS>ATOM
      1  N1        22.6540   48.8330  -11.0660 N.pl3 200  017200     -0.1281
      2  C2        22.3510   47.5880  -10.6590 C.ar  200  017200      0.0892
      3  C3        22.9330   47.1040   -9.4990 C.ar  200  017200      0.0194
      4  C4        22.6210   45.8270   -9.0890 C.ar  200  017200      0.0213
      5  C5        21.7140   45.0900   -9.8320 C.ar  200  017200      0.1223
      6  C6        21.1990   45.6770  -10.9790 C.ar  200  017200      0.0213
      7  C7        21.5180   46.8790  -11.3360 C.ar  200  017200      0.0194
      8  S8        21.2920   43.5830   -9.4290 S.O2  200  017200      0.0634
      9  O9        22.3600   42.8080   -8.8610 O.2   200  017200     -0.1528
     10  O10       20.8370   42.8890  -10.6090 O.2   200  017200     -0.1528
     11  N11       20.0570   43.5680   -8.3690 N.3   200  017200     -0.1529
     12  C12       20.2980   44.5140   -7.2800 C.3   200  017200      0.0958
     13  C13       19.7790   43.9830   -5.9540 C.3   200  017200      0.0178
     14  C14       20.2570   42.5660   -5.6930 C.3   200  017200      0.0015
     15  C15       20.2370   44.9210   -4.8480 C.3   200  017200      0.0015
     16  C16       18.7980   43.8890   -9.0340 C.3   200  017200      0.1304
     17  C17       17.8270   42.7420   -8.7950 C.3   200  017200      0.1898
     18  O18       16.5220   43.2360   -9.0850 O.3   200  017200     -0.2197
     19  C19       18.2170   41.5130   -9.6360 C.3   200  017200      0.1347
     20  N20       17.4270   40.3960   -9.1660 N.am  200  017200     -0.1675
     21  C21       17.9650   39.3670   -8.4870 C.2   200  017200      0.4211
     22  O22       19.1390   39.2940   -8.1710 O.2   200  017200     -0.2246
     23  O23       16.9840   38.3730   -8.0600 O.3   200  017200     -0.4345
     24  C24       17.2970   37.0180   -7.7810 C.3   200  017200      0.2048
     25  C25       16.3440   36.6290   -6.6590 C.3   200  017200      0.1884
     26  O26       15.1600   36.1190   -7.2910 O.3   200  017200     -0.3265
     27  C27       15.4650   35.7090   -8.6430 C.3   200  017200      0.2388
     28  O28       14.6330   36.3590   -9.6290 O.3   200  017200     -0.3304
     29  C29       15.4230   37.0610  -10.5960 C.3   200  017200      0.1451
     30  C30       16.8890   36.7350  -10.3120 C.3   200  017200      0.0409
     31  C31       16.9030   36.1060   -8.9250 C.3   200  017200      0.1016
     32  C32       17.9020   41.6420  -11.1230 C.3   200  017200      0.0508
     33  C33       17.3240   39.6430  -12.5130 C.ar  200  017200     -0.0042
     34  C34       17.6740   38.4590  -13.1580 C.ar  200  017200     -0.0003
     35  C35       18.9940   38.0140  -13.1590 C.ar  200  017200     -0.0000
     36  C36       19.9620   38.7430  -12.4730 C.ar  200  017200     -0.0003
     37  C37       19.6090   39.9240  -11.8160 C.ar  200  017200     -0.0042
     38  C38       18.2900   40.3700  -11.8310 C.ar  200  017200     -0.0204
@<TRIPOS>BOND
     1    35    34   ar
     2    35    36   ar
     3    34    33   ar
     4    33    38   ar
     5    36    37   ar
     6    38    37   ar
     7    38    32    1
     8     7     6   ar
     9     7     2   ar
    10    32    19    1
    11     1     2    1
    12     6     5   ar
    13     2     3   ar
    14    10     8    2
    15    29    30    1
    16    29    28    1
    17    30    31    1
    18     5     8    1
    19     5     4   ar
    20    19    20    1
    21    19    17    1
    22    28    27    1
    23     3     4   ar
    24     8     9    2
    25     8    11    1
    26    20    21   am
    27    18    17    1
    28    16    17    1
    29    16    11    1
    30    31    27    1
    31    31    24    1
    32    27    26    1
    33    21    22    2
    34    21    23    1
    35    11    12    1
    36    23    24    1
    37    24    25    1
    38    26    25    1
    39    12    13    1
    40    13    14    1
    41    13    15    1
