@<TRIPOS>MOLECULE
3eku_CY9_A_1.pdb
 37 40 0 0 0
SMALL
GASTEIGER

@<TRIPOS>ATOM
      1  C1        62.1080  -16.3140   30.1990 C.1   903  CY9903      0.1281
      2  C5        59.5270  -14.6220   28.6550 C.3   903  CY9903      0.0055
      3  C4        59.9660  -16.0040   29.1460 C.3   903  CY9903      0.0423
      4  C3        61.0040  -16.6160   28.2030 C.3   903  CY9903      0.1199
      5  O1        63.0280  -16.2350   31.0190 O.2   903  CY9903     -0.2269
      6  C6        60.6830  -13.6440   28.8620 C.3   903  CY9903      0.0309
      7  C25       59.5470  -17.7750   25.4800 C.ar  903  CY9903     -0.0042
      8  C26       58.4670  -17.8610   24.6060 C.ar  903  CY9903     -0.0003
      9  C27       57.2230  -18.2660   25.0770 C.ar  903  CY9903     -0.0000
     10  C28       57.0610  -18.5850   26.4200 C.ar  903  CY9903     -0.0003
     11  C29       58.1400  -18.5010   27.2920 C.ar  903  CY9903     -0.0042
     12  C24       59.3850  -18.0960   26.8230 C.ar  903  CY9903     -0.0202
     13  C10       60.5840  -18.0230   27.7730 C.3   903  CY9903      0.0515
     14  N2        62.2820  -16.6670   28.9310 N.2   903  CY9903     -0.2079
     15  C9        60.6560  -15.9630   30.5140 C.3   903  CY9903      0.1413
     16  C11       59.1250  -14.6690   27.1800 C.3   903  CY9903      0.0002
     17  C12       61.2460  -12.9390   27.8040 C.3   903  CY9903      0.0026
     18  C7        61.2290  -13.4990   30.2820 C.3   903  CY9903      0.1570
     19  O7        60.8790  -12.2080   30.7910 O.3   903  CY9903     -0.2228
     20  C8        60.5770  -14.5720   31.1560 C.3   903  CY9903      0.0703
     21  C13       61.2520  -14.5230   32.5300 C.2   903  CY9903     -0.0273
     22  C14       60.5980  -13.8750   33.5700 C.2   903  CY9903     -0.0302
     23  C15       61.1510  -13.7850   34.8440 C.3   903  CY9903      0.0331
     24  C16       60.7810  -14.9830   35.7200 C.3   903  CY9903      0.0648
     25  C22       60.8920  -14.6370   37.2070 C.3   903  CY9903      0.0082
     26  C17       61.6890  -16.1710   35.3930 C.2   903  CY9903      0.1817
     27  O17       62.9080  -16.0790   35.5360 O.2   903  CY9903     -0.2932
     28  C18       61.0670  -17.4740   34.8860 C.3   903  CY9903      0.1954
     29  O18       62.1140  -18.3770   34.5210 O.3   903  CY9903     -0.2136
     30  C23       60.1950  -18.0820   35.9870 C.3   903  CY9903      0.0452
     31  C19       60.2810  -17.1760   33.7790 C.2   903  CY9903      0.0094
     32  C20       60.7800  -17.3480   32.4920 C.2   903  CY9903      0.0160
     33  C21       59.9970  -17.0360   31.3870 C.3   903  CY9903      0.2052
     34  O21       58.7110  -16.5460   31.7940 O.3   903  CY9903     -0.4466
     35  C30       57.7320  -17.4590   31.5540 C.2   903  CY9903      0.3178
     36  C31       56.4090  -17.1320   31.8210 C.3   903  CY9903      0.1212
     37  O30       58.0140  -18.5600   31.0780 O.2   903  CY9903     -0.2501
@<TRIPOS>BOND
     1     8     9   ar
     2     8     7   ar
     3     9    10   ar
     4     7    12   ar
     5    10    11   ar
     6    12    11   ar
     7    12    13    1
     8    16     2    1
     9    13     4    1
    10    17     6    1
    11     4    14    1
    12     4     3    1
    13     2     6    1
    14     2     3    1
    15     6    18    1
    16    14     1    2
    17     3    15    1
    18     1    15    1
    19     1     5    2
    20    18    19    1
    21    18    20    1
    22    15    20    1
    23    15    33    1
    24    37    35    2
    25    20    21    1
    26    33    34    1
    27    33    32    1
    28    35    34    1
    29    35    36    1
    30    32    31    2
    31    21    22    2
    32    22    23    1
    33    31    28    1
    34    29    28    1
    35    23    24    1
    36    28    26    1
    37    28    30    1
    38    26    27    2
    39    26    24    1
    40    24    25    1
