@<TRIPOS>MOLECULE
3eku_ATP_A_1.pdb
 31 33 0 0 0
SMALL
GASTEIGER

@<TRIPOS>ATOM
      1  PG        70.0790    1.0160   31.2550 P.3   800  ATP800      0.5373
      2  O1G       71.2700    0.9280   32.1300 O.3   800  ATP800     -0.1143
      3  O2G       69.9210   -0.2820   30.3180 O.2   800  ATP800     -0.2221
      4  O3G       68.7040    1.1240   32.0840 O.3   800  ATP800     -0.1143
      5  PB        69.9280    2.2140   28.6940 P.3   800  ATP800      0.2277
      6  O1B       68.9870    1.1070   28.4080 O.3   800  ATP800     -0.4368
      7  O2B       69.6000    3.5600   28.1730 O.2   800  ATP800     -0.5168
      8  O3B       70.1080    2.3100   30.2930 O.3   800  ATP800     -0.2258
      9  PA        71.7660    1.6460   26.6420 P.3   800  ATP800      0.2189
     10  O1A       71.8510    0.1940   26.3650 O.3   800  ATP800     -0.4371
     11  O2A       70.8450    2.4690   25.8270 O.2   800  ATP800     -0.5170
     12  O3A       71.4060    1.8070   28.2040 O.3   800  ATP800     -0.2700
     13  O5'       73.2440    2.2740   26.5750 O.3   800  ATP800     -0.3112
     14  C5'       73.4600    3.6750   26.7580 C.3   800  ATP800      0.1813
     15  C4'       74.8710    3.8800   27.3120 C.3   800  ATP800      0.1821
     16  O4'       75.8010    3.2960   26.3820 O.3   800  ATP800     -0.3135
     17  C3'       75.2300    5.3640   27.4230 C.3   800  ATP800      0.2184
     18  O3'       76.1040    5.5510   28.5390 O.3   800  ATP800     -0.2174
     19  C2'       76.0000    5.5820   26.1220 C.3   800  ATP800      0.2570
     20  O2'       76.8910    6.6880   26.2850 O.3   800  ATP800     -0.2130
     21  C1'       76.8090    4.2870   26.1310 C.3   800  ATP800      0.3186
     22  N9        77.4570    4.0490   24.8230 N.pl3 800  ATP800     -0.1439
     23  C8        76.8570    4.1200   23.6390 C.3   800  ATP800      0.3377
     24  N7        77.7420    3.8710   22.6750 N.2   800  ATP800     -0.2095
     25  C5        78.9160    3.6430   23.2480 C.2   800  ATP800      0.2526
     26  C6        80.1880    3.3590   22.7660 C.2   800  ATP800      0.4393
     27  N6        80.4030    3.2550   21.4590 N.pl3 800  ATP800      0.2180
     28  N1        81.1900    3.1980   23.6390 N.2   800  ATP800      0.0021
     29  C2        80.9830    3.3000   24.9400 C.3   800  ATP800      0.5254
     30  N3        79.7860    3.5680   25.4310 N.2   800  ATP800     -0.0055
     31  C4        78.7370    3.7490   24.6200 C.2   800  ATP800      0.3518
@<TRIPOS>BOND
     1    27    26    1
     2    24    25    2
     3    24    23    1
     4    26    25    1
     5    26    28    2
     6    25    31    1
     7    28    29    1
     8    23    22    1
     9    31    22    1
    10    31    30    2
    11    22    21    1
    12    29    30    1
    13    11     9    2
    14    19    21    1
    15    19    20    1
    16    19    17    1
    17    21    16    1
    18    10     9    1
    19    16    15    1
    20    13     9    1
    21    13    14    1
    22     9    12    1
    23    14    15    1
    24    15    17    1
    25    17    18    1
    26     7     5    2
    27    12     5    1
    28     6     5    1
    29     5     8    1
    30     8     1    1
    31     3     1    2
    32     1     4    1
    33     1     2    1
