@<TRIPOS>MOLECULE
3ekv_478_A_1.pdb
 35 37 0 0 0
SMALL
GASTEIGER

@<TRIPOS>ATOM
      1  C1        23.4000   25.8700   10.7830 C.3   200  478200      0.1856
      2  C2        24.4520   27.7830   11.7810 C.3   200  478200      0.0784
      3  C3        21.4400   28.2740   12.7340 C.2   200  478200      0.4211
      4  C4        23.1200   27.2820   11.2620 C.3   200  478200      0.2024
      5  C5        19.5870   28.8070   14.2580 C.3   200  478200      0.1347
      6  C6        19.9690   29.1940   15.6810 C.3   200  478200      0.1898
      7  C7        18.2760   28.0360   14.1060 C.3   200  478200      0.0508
      8  C8        18.0450   27.6520   12.6600 C.ar  200  478200     -0.0204
      9  C9        18.4240   26.3950   12.1820 C.ar  200  478200     -0.0042
     10  C10       17.4570   28.5580   11.7890 C.ar  200  478200     -0.0042
     11  C11       18.2320   26.0650   10.8410 C.ar  200  478200     -0.0003
     12  C12       17.2640   28.2280   10.4520 C.ar  200  478200     -0.0003
     13  C13       17.6400   26.9730    9.9760 C.ar  200  478200     -0.0000
     14  C14       19.0380   30.2540   16.2520 C.3   200  478200      0.1304
     15  C15       20.1020   32.4520   16.4680 C.3   200  478200      0.0958
     16  C16       21.6130   32.2010   16.4280 C.3   200  478200      0.0178
     17  C17       17.1060   33.0120   15.7110 C.ar  200  478200      0.1223
     18  C18       16.0720   32.3350   16.3650 C.ar  200  478200      0.0213
     19  C19       15.1760   32.9770   17.2100 C.ar  200  478200      0.0194
     20  C20       15.2810   34.3520   17.3990 C.ar  200  478200      0.0892
     21  C21       16.2840   35.0510   16.7400 C.ar  200  478200      0.0194
     22  C22       17.1860   34.3810   15.9070 C.ar  200  478200      0.0213
     23  C23       22.2520   32.2430   15.0420 C.3   200  478200      0.0015
     24  C24       22.3240   33.2540   17.2740 C.3   200  478200      0.0015
     25  C25       25.2870   26.5250   11.9820 C.3   200  478200      0.1461
     26  N1        20.6520   27.9610   13.7600 N.am  200  478200     -0.1675
     27  N2        19.3690   31.5270   15.5820 N.3   200  478200     -0.1529
     28  N3        14.4000   34.9810   18.2110 N.pl3 200  478200     -0.1281
     29  O1        22.2460   27.1400   12.3730 O.3   200  478200     -0.4346
     30  O2        21.4990   29.3460   12.1360 O.2   200  478200     -0.2246
     31  O3        19.9580   28.0360   16.5280 O.3   200  478200     -0.2197
     32  O4        17.4210   31.1750   14.0660 O.2   200  478200     -0.1528
     33  O5        18.7150   33.0920   13.7920 O.2   200  478200     -0.1528
     34  O6        24.4480   25.4180   11.6380 O.3   200  478200     -0.3498
     35  S1        18.1350   32.1960   14.7720 S.O2  200  478200      0.0634
@<TRIPOS>BOND
     1    13    12   ar
     2    13    11   ar
     3    12    10   ar
     4     1     4    1
     5     1    34    1
     6    11     9   ar
     7     4     2    1
     8     4    29    1
     9    34    25    1
    10     2    25    1
    11    10     8   ar
    12    30     3    2
    13     9     8   ar
    14    29     3    1
    15     8     7    1
    16     3    26   am
    17    26     5    1
    18    33    35    2
    19    32    35    2
    20     7     5    1
    21     5     6    1
    22    35    27    1
    23    35    17    1
    24    23    16    1
    25    27    14    1
    26    27    15    1
    27     6    14    1
    28     6    31    1
    29    17    22   ar
    30    17    18   ar
    31    22    21   ar
    32    18    19   ar
    33    16    15    1
    34    16    24    1
    35    21    20   ar
    36    19    20   ar
    37    20    28    1
