@<TRIPOS>MOLECULE
3ekx_1UN_B_1.pdb
 40 43 0 0 0
SMALL
GASTEIGER

@<TRIPOS>ATOM
      1  C1        17.6520   27.4490   12.7990 C.3   201  1UN201      0.0161
      2  C2        18.3740   26.8110   11.6210 C.3   201  1UN201      0.0032
      3  C3        17.5420   26.7500   10.3450 C.3   201  1UN201      0.0001
      4  C4        16.8880   28.0990   10.0830 C.3   201  1UN201      0.0000
      5  C5        16.1660   28.5860   11.3310 C.3   201  1UN201      0.0000
      6  C6        17.1240   28.8360   12.4940 C.3   201  1UN201      0.0014
      7  N7        19.7000   28.3220   13.7270 N.3   201  1UN201     -0.2643
      8  C8        20.4650   27.6440   12.6890 C.3   201  1UN201      0.1365
      9  C9        19.6630   27.5800   11.3870 C.3   201  1UN201      0.0254
     10  C10       18.5190   27.5190   14.0440 C.3   201  1UN201      0.0725
     11  C11       21.7100   28.3770   12.3210 C.2   201  1UN201      0.2558
     12  N12       22.7420   27.5550   12.1370 N.am  201  1UN201     -0.2077
     13  C13       24.0630   27.9180   11.6750 C.3   201  1UN201      0.0788
     14  C14       24.6920   28.7540   12.7890 C.3   201  1UN201      0.0217
     15  C15       23.9610   28.6780   10.3500 C.3   201  1UN201      0.0217
     16  C16       24.8630   26.6300   11.4480 C.3   201  1UN201      0.0217
     17  O17       21.6810   29.5930   12.1850 O.2   201  1UN201     -0.2719
     18  C18       20.4270   28.3490   14.9830 C.3   201  1UN201      0.1075
     19  C19       19.9360   29.5350   15.7930 C.3   201  1UN201      0.1885
     20  C20       20.5990   30.8460   15.3910 C.3   201  1UN201      0.1383
     21  O21       20.2180   29.1920   17.1330 O.3   201  1UN201     -0.2198
     22  N22       19.8830   31.9160   16.0470 N.am  201  1UN201     -0.1999
     23  C23       22.0740   31.0060   15.7490 C.3   201  1UN201      0.0864
     24  C24       18.8960   32.5950   15.4700 C.2   201  1UN201      0.2646
     25  O25       18.5620   32.4850   14.3050 O.2   201  1UN201     -0.2684
     26  C29       18.1700   33.5500   16.3600 C.ar  201  1UN201      0.0542
     27  C30       18.9000   34.4270   17.1640 C.ar  201  1UN201      0.0045
     28  C31       18.2810   35.3300   18.0260 C.ar  201  1UN201      0.0034
     29  C32       16.8960   35.3930   18.1000 C.ar  201  1UN201      0.0417
     30  C33       16.1010   34.5470   17.3310 C.ar  201  1UN201      0.1919
     31  C34       16.6960   33.5600   16.4060 C.ar  201  1UN201      0.0215
     32  O38       14.7860   34.5830   17.4030 O.3   201  1UN201     -0.2869
     33  C39       15.7930   32.6670   15.5910 C.3   201  1UN201      0.0345
     34  S74       22.7670   32.3280   14.8010 S.3   201  1UN201     -0.1118
     35  C77       22.6520   33.7870   15.6490 C.ar  201  1UN201      0.0253
     36  C78       22.4720   34.9430   14.9010 C.ar  201  1UN201      0.0061
     37  C79       22.3600   36.1670   15.5410 C.ar  201  1UN201      0.0005
     38  C80       22.4490   36.2380   16.9250 C.ar  201  1UN201      0.0000
     39  C81       22.6340   35.0800   17.6700 C.ar  201  1UN201      0.0005
     40  C82       22.7350   33.8470   17.0370 C.ar  201  1UN201      0.0061
@<TRIPOS>BOND
     1     4     3    1
     2     4     5    1
     3     3     2    1
     4    15    13    1
     5     5     6    1
     6     9     2    1
     7     9     8    1
     8    16    13    1
     9     2     1    1
    10    13    12    1
    11    13    14    1
    12    12    11   am
    13    17    11    2
    14    11     8    1
    15     6     1    1
    16     8     7    1
    17     1    10    1
    18     7    10    1
    19     7    18    1
    20    25    24    2
    21    34    35    1
    22    34    23    1
    23    36    37   ar
    24    36    35   ar
    25    18    19    1
    26    20    23    1
    27    20    19    1
    28    20    22    1
    29    24    22   am
    30    24    26    1
    31    37    38   ar
    32    33    31    1
    33    35    40   ar
    34    19    21    1
    35    26    31   ar
    36    26    27   ar
    37    31    30   ar
    38    38    39   ar
    39    40    39   ar
    40    27    28   ar
    41    30    32    1
    42    30    29   ar
    43    28    29   ar
