@<TRIPOS>MOLECULE
3ekz_G3P_A_1.pdb
 10 9 0 0 0
SMALL
GASTEIGER

@<TRIPOS>ATOM
      1  O1        13.4240   44.7490   22.3440 O.3   352  G3P352     -0.2175
      2  C1        12.0810   44.4850   21.9810 C.3   352  G3P352      0.2174
      3  C2        11.0920   45.5220   22.5300 C.3   352  G3P352      0.2147
      4  O2         9.8600   45.5950   21.8120 O.3   352  G3P352     -0.2176
      5  C3        11.7550   46.8610   22.7700 C.3   352  G3P352      0.1892
      6  O1P       11.0280   47.9220   22.2120 O.3   352  G3P352     -0.2674
      7  O4P       13.2420   49.1340   22.3460 O.3   352  G3P352     -0.1145
      8  O2P       11.1300   50.4140   22.4360 O.3   352  G3P352     -0.1145
      9  O3P       11.9070   49.3440   20.2740 O.2   352  G3P352     -0.2224
     10  P         11.8450   49.2530   21.8010 P.3   352  G3P352      0.5327
@<TRIPOS>BOND
     1     9    10    2
     2    10     6    1
     3    10     7    1
     4    10     8    1
     5     4     3    1
     6     2     1    1
     7     2     3    1
     8     6     5    1
     9     3     5    1
