@<TRIPOS>MOLECULE
3ekz_13P_A_1.pdb
 10 9 0 0 0
SMALL
GASTEIGER

@<TRIPOS>ATOM
      1  P          7.7990   41.7800   18.3650 P.3   350  13P350      0.5330
      2  O1P        7.9450   40.5540   17.5060 O.2   350  13P350     -0.2224
      3  O2P        6.3810   42.1500   18.7190 O.3   350  13P350     -0.1145
      4  O3P        8.6300   42.9450   17.9120 O.3   350  13P350     -0.1145
      5  O1         8.4520   41.3740   19.7700 O.3   350  13P350     -0.2621
      6  C1         7.6550   41.5600   20.9440 C.3   350  13P350      0.2204
      7  C2         8.5050   41.9590   22.1120 C.2   350  13P350      0.2140
      8  O2         9.5320   41.3460   22.3790 O.2   350  13P350     -0.2906
      9  C3         8.0450   43.1100   22.9670 C.3   350  13P350      0.2485
     10  O3         9.1930   43.6590   23.6030 O.3   350  13P350     -0.2118
@<TRIPOS>BOND
     1     2     1    2
     2     4     1    1
     3     1     3    1
     4     1     5    1
     5     5     6    1
     6     6     7    1
     7     7     8    2
     8     7     9    1
     9     9    10    1
