@<TRIPOS>MOLECULE
3el0_1UN_A_1.pdb
 40 43 0 0 0
SMALL
GASTEIGER

@<TRIPOS>ATOM
      1  C1        22.3500   -3.8350   14.2510 C.3   201  1UN201      0.0161
      2  C2        21.4630   -5.0690   14.1250 C.3   201  1UN201      0.0032
      3  C3        22.2370   -6.3670   14.3270 C.3   201  1UN201      0.0001
      4  C4        23.0710   -6.3540   15.6040 C.3   201  1UN201      0.0000
      5  C5        23.9900   -5.1340   15.6430 C.3   201  1UN201      0.0000
      6  C6        23.1830   -3.8420   15.5340 C.3   201  1UN201      0.0014
      7  N7        20.4810   -2.5260   15.1700 N.3   201  1UN201     -0.2643
      8  C8        19.5540   -3.6540   15.0820 C.3   201  1UN201      0.1365
      9  C9        20.3040   -4.9760   15.1110 C.3   201  1UN201      0.0254
     10  C10       21.4990   -2.5730   14.1220 C.3   201  1UN201      0.0725
     11  C11       18.6090   -3.6280   16.2580 C.2   201  1UN201      0.2558
     12  N12       17.4150   -4.1570   16.0610 N.am  201  1UN201     -0.2077
     13  C13       16.2170   -3.8130   16.8120 C.3   201  1UN201      0.0788
     14  C14       15.4360   -2.8140   15.9470 C.3   201  1UN201      0.0217
     15  C15       16.4780   -3.1940   18.1960 C.3   201  1UN201      0.0217
     16  C16       15.4420   -5.1140   16.9990 C.3   201  1UN201      0.0217
     17  O17       18.9580   -3.1520   17.3260 O.2   201  1UN201     -0.2719
     18  C18       19.7050   -1.2940   14.9450 C.3   201  1UN201      0.1075
     19  C19       20.3960   -0.0510   15.5030 C.3   201  1UN201      0.1885
     20  C20       19.9330    0.3250   16.9140 C.3   201  1UN201      0.1383
     21  O21       20.1350    1.0010   14.5710 O.3   201  1UN201     -0.2198
     22  N22       20.8440    1.3070   17.4830 N.am  201  1UN201     -0.1999
     23  C23       18.5140    0.8800   16.9640 C.3   201  1UN201      0.0864
     24  C24       21.6050    1.0700   18.5430 C.2   201  1UN201      0.2646
     25  O25       21.7150   -0.0320   19.0590 O.2   201  1UN201     -0.2684
     26  C29       22.3860    2.1920   19.1440 C.ar  201  1UN201      0.0542
     27  C30       21.7460    3.3340   19.6190 C.ar  201  1UN201      0.0045
     28  C31       22.4610    4.3820   20.2020 C.ar  201  1UN201      0.0034
     29  C32       23.8490    4.3330   20.3410 C.ar  201  1UN201      0.0417
     30  C33       24.5600    3.2340   19.8800 C.ar  201  1UN201      0.1919
     31  C34       23.8580    2.1000   19.2510 C.ar  201  1UN201      0.0215
     32  O38       25.8670    3.1390   19.9780 O.3   201  1UN201     -0.2869
     33  C39       24.6900    0.9360   18.7840 C.3   201  1UN201      0.0345
     34  S74       17.7210    0.4150   18.4730 S.3   201  1UN201     -0.1118
     35  C77       18.1400    1.6220   19.5820 C.ar  201  1UN201      0.0253
     36  C78       17.7710    2.9420   19.3510 C.ar  201  1UN201      0.0061
     37  C79       18.0900    3.9330   20.2850 C.ar  201  1UN201      0.0005
     38  C80       18.8010    3.5950   21.4370 C.ar  201  1UN201      0.0000
     39  C81       19.1860    2.2690   21.6580 C.ar  201  1UN201      0.0005
     40  C82       18.8510    1.2830   20.7350 C.ar  201  1UN201      0.0061
@<TRIPOS>BOND
     1    10     1    1
     2    10     7    1
     3     2     1    1
     4     2     3    1
     5     2     9    1
     6     1     6    1
     7     3     4    1
     8    21    19    1
     9    18     7    1
    10    18    19    1
    11     8     9    1
    12     8     7    1
    13     8    11    1
    14    19    20    1
    15     6     5    1
    16     4     5    1
    17    14    13    1
    18    12    11   am
    19    12    13    1
    20    11    17    2
    21    13    16    1
    22    13    15    1
    23    20    23    1
    24    20    22    1
    25    23    34    1
    26    22    24   am
    27    34    35    1
    28    24    25    2
    29    24    26    1
    30    33    31    1
    31    26    31   ar
    32    26    27   ar
    33    31    30   ar
    34    36    35   ar
    35    36    37   ar
    36    35    40   ar
    37    27    28   ar
    38    30    32    1
    39    30    29   ar
    40    28    29   ar
    41    37    38   ar
    42    40    39   ar
    43    38    39   ar
