@<TRIPOS>MOLECULE
3el2_ATP_A_1.pdb
 31 33 0 0 0
SMALL
GASTEIGER

@<TRIPOS>ATOM
      1  PG        70.2560    0.8690   31.7830 P.3   800  ATP800      0.5373
      2  O1G       71.5210    0.7050   32.5330 O.3   800  ATP800     -0.1143
      3  O2G       69.9770   -0.3560   30.7740 O.2   800  ATP800     -0.2221
      4  O3G       68.9640    0.9740   32.7430 O.3   800  ATP800     -0.1143
      5  PB        70.0270    2.1860   29.2930 P.3   800  ATP800      0.2277
      6  O1B       69.0430    1.1270   28.9870 O.3   800  ATP800     -0.4368
      7  O2B       69.7330    3.5660   28.8520 O.2   800  ATP800     -0.5168
      8  O3B       70.2450    2.2090   30.8910 O.3   800  ATP800     -0.2258
      9  PA        71.7650    1.6500   27.1420 P.3   800  ATP800      0.2189
     10  O1A       71.8660    0.2170   26.7810 O.3   800  ATP800     -0.4371
     11  O2A       70.7930    2.5010   26.4210 O.2   800  ATP800     -0.5170
     12  O3A       71.4680    1.7360   28.7240 O.3   800  ATP800     -0.2700
     13  O5'       73.2340    2.2980   27.0300 O.3   800  ATP800     -0.3112
     14  C5'       73.4490    3.6840   27.3020 C.3   800  ATP800      0.1813
     15  C4'       74.8950    3.8680   27.7620 C.3   800  ATP800      0.1821
     16  O4'       75.7440    3.3160   26.7400 O.3   800  ATP800     -0.3135
     17  C3'       75.2630    5.3430   27.9070 C.3   800  ATP800      0.2184
     18  O3'       76.1340    5.5130   29.0290 O.3   800  ATP800     -0.2174
     19  C2'       76.0220    5.6020   26.6070 C.3   800  ATP800      0.2570
     20  O2'       76.9500    6.6650   26.8270 O.3   800  ATP800     -0.2130
     21  C1'       76.7790    4.2780   26.5000 C.3   800  ATP800      0.3186
     22  N9        77.3420    4.0660   25.1470 N.pl3 800  ATP800     -0.1439
     23  C8        76.6850    4.1570   23.9910 C.3   800  ATP800      0.3377
     24  N7        77.5130    3.8970   22.9820 N.2   800  ATP800     -0.2095
     25  C5        78.7130    3.6400   23.4950 C.2   800  ATP800      0.2526
     26  C6        79.9530    3.3350   22.9530 C.2   800  ATP800      0.4393
     27  N6        80.1180    3.2480   21.6360 N.pl3 800  ATP800      0.2180
     28  N1        80.9940    3.1490   23.7800 N.2   800  ATP800      0.0021
     29  C2        80.8520    3.2510   25.0880 C.3   800  ATP800      0.5254
     30  N3        79.6860    3.5410   25.6390 N.2   800  ATP800     -0.0055
     31  C4        78.6020    3.7440   24.8750 C.2   800  ATP800      0.3518
@<TRIPOS>BOND
     1    27    26    1
     2    26    25    1
     3    26    28    2
     4    24    25    2
     5    24    23    1
     6    25    31    1
     7    28    29    1
     8    23    22    1
     9    31    22    1
    10    31    30    2
    11    29    30    1
    12    22    21    1
    13    11     9    2
    14    21    19    1
    15    21    16    1
    16    19    20    1
    17    19    17    1
    18    16    15    1
    19    10     9    1
    20    13     9    1
    21    13    14    1
    22     9    12    1
    23    14    15    1
    24    15    17    1
    25    17    18    1
    26    12     5    1
    27     7     5    2
    28     6     5    1
    29     5     8    1
    30     3     1    2
    31     8     1    1
    32     1     2    1
    33     1     4    1
