@<TRIPOS>MOLECULE
3el3_HEM_A_1.pdb
 43 50 0 0 0
SMALL
GASTEIGER

@<TRIPOS>ATOM
      1  CHA      -32.5910   -4.4090  -17.2540 C.2   500  HEM500      0.0000
      2  CHB      -34.9600   -0.3360  -16.5910 C.2   500  HEM500      0.0000
      3  CHC      -30.9470    2.1900  -17.4810 C.2   500  HEM500      0.0000
      4  CHD      -28.5600   -1.9450  -18.0940 C.2   500  HEM500      0.0000
      5  C1A      -33.5920   -3.5570  -16.9940 C.2   500  HEM500      0.0000
      6  C2A      -34.9420   -3.9620  -16.6920 C.2   500  HEM500      0.0000
      7  C3A      -35.6390   -2.8060  -16.4890 C.2   500  HEM500      0.0000
      8  C4A      -34.7060   -1.6890  -16.6810 C.2   500  HEM500      0.0000
      9  CMA      -37.1300   -2.6090  -16.1410 C.3   500  HEM500      0.0000
     10  CAA      -35.3200   -5.4900  -16.6650 C.3   500  HEM500      0.0000
     11  CBA      -36.6240   -5.9580  -16.0180 C.3   500  HEM500      0.0000
     12  CGA      -36.9330   -7.4610  -16.2740 C.2   500  HEM500      0.0000
     13  O1A      -37.1210   -8.1620  -15.2250 O.co2 500  HEM500      0.0000
     14  O2A      -36.9890   -7.8960  -17.4420 O.co2 500  HEM500      0.0000
     15  C1B      -34.0930    0.7090  -16.7780 C.ar  500  HEM500      0.0000
     16  C2B      -34.4580    2.1110  -16.6760 C.ar  500  HEM500      0.0000
     17  C3B      -33.3430    2.8260  -16.9190 C.ar  500  HEM500      0.0000
     18  C4B      -32.2700    1.8930  -17.1820 C.ar  500  HEM500      0.0000
     19  CMB      -35.8470    2.6370  -16.3400 C.3   500  HEM500      0.0000
     20  CAB      -33.1820    4.3630  -16.9140 C.3   500  HEM500      0.0000
     21  CBB      -33.4440    5.0000  -18.2710 C.3   500  HEM500      0.0000
     22  C1C      -29.9310    1.2810  -17.7230 C.2   500  HEM500      0.0000
     23  C2C      -28.5160    1.6300  -18.0160 C.2   500  HEM500      0.0000
     24  C3C      -27.8460    0.4600  -18.1810 C.2   500  HEM500      0.0000
     25  C4C      -28.8180   -0.6120  -17.9970 C.2   500  HEM500      0.0000
     26  CMC      -27.9760    3.0880  -18.1020 C.3   500  HEM500      0.0000
     27  CAC      -26.3540    0.1850  -18.5000 C.3   500  HEM500      0.0000
     28  CBC      -25.7340    0.9910  -19.6510 C.3   500  HEM500      0.0000
     29  C1D      -29.4390   -2.9780  -17.9310 C.ar  500  HEM500      0.0000
     30  C2D      -29.1200   -4.3750  -18.0500 C.ar  500  HEM500      0.0000
     31  C3D      -30.2720   -5.0740  -17.8050 C.ar  500  HEM500      0.0000
     32  C4D      -31.2800   -4.1000  -17.5440 C.ar  500  HEM500      0.0000
     33  CMD      -27.7200   -4.9190  -18.3910 C.3   500  HEM500      0.0000
     34  CAD      -30.4870   -6.5980  -17.7980 C.3   500  HEM500      0.0000
     35  CBD      -30.7560   -7.1290  -16.3470 C.3   500  HEM500      0.0000
     36  CGD      -31.0020   -8.6190  -16.3490 C.2   500  HEM500      0.0000
     37  O1D      -30.4320   -9.3420  -17.2000 O.co2 500  HEM500      0.0000
     38  O2D      -31.8040   -9.0260  -15.4780 O.co2 500  HEM500      0.0000
     39  NA       -33.4790   -2.1960  -16.9840 N.2   500  HEM500      0.0000
     40  NB       -32.7590    0.6050  -17.0880 N.ar  500  HEM500      0.0000
     41  NC       -30.0840   -0.0950  -17.7140 N.2   500  HEM500      0.0000
     42  ND       -30.7910   -2.8050  -17.6210 N.ar  500  HEM500      0.0000
     43 FE        -31.7850   -1.1200  -17.3450 Fe    500  HEM500      0.0000
@<TRIPOS>BOND
     1    28    27    1
     2    27    24    1
     3    33    30    1
     4    21    20    1
     5    24    23    2
     6    24    25    1
     7    26    23    1
     8     4    25    1
     9     4    29    2
    10    30    29   ar
    11    30    31   ar
    12    23    22    1
    13    25    41    2
    14    29    42   ar
    15    31    34    1
    16    31    32   ar
    17    34    35    1
    18    22    41    1
    19    22     3    2
    20    41    43    1
    21    42    32   ar
    22    42    43    1
    23    32     1    2
    24     3    18    1
    25    14    12   ar
    26    43    40    1
    27    43    39    1
    28     1     5    1
    29    37    36   ar
    30    18    40   ar
    31    18    17   ar
    32    40    15   ar
    33     5    39    2
    34     5     6    1
    35    39     8    1
    36    17    20    1
    37    17    16   ar
    38    15    16   ar
    39    15     2    1
    40     6    10    1
    41     6     7    2
    42     8     2    2
    43     8     7    1
    44    16    19    1
    45    10    11    1
    46     7     9    1
    47    36    35    1
    48    36    38   ar
    49    12    11    1
    50    12    13   ar
