@<TRIPOS>MOLECULE
3el3_EL3_A_1.pdb
 15 17 0 0 0
SMALL
GASTEIGER

@<TRIPOS>ATOM
      1  CAI      -35.5750   -4.9820  -24.0630 C.3   501  EL3501      0.0040
      2  CAO      -34.2520   -4.7120  -23.3510 C.3   501  EL3501      0.0146
      3  CAH      -33.6200   -3.6990  -24.3060 C.3   501  EL3501      0.0037
      4  CAG      -34.7920   -2.7450  -24.5570 C.3   501  EL3501      0.0006
      5  CAM      -36.0530   -3.5320  -24.1740 C.3   501  EL3501      0.0037
      6  CAN      -36.5930   -3.0510  -22.8230 C.3   501  EL3501      0.0146
      7  CAC      -36.8560   -1.5460  -22.8800 C.3   501  EL3501      0.0040
      8  CAD      -37.8880   -3.7970  -22.4770 C.3   501  EL3501      0.0040
      9  CAJ      -35.5640   -3.2880  -21.7140 C.2   501  EL3501     -0.0524
     10  CAA      -35.7510   -2.6190  -20.3480 C.3   501  EL3501      0.0257
     11  CAK      -34.4820   -4.1240  -21.9660 C.2   501  EL3501     -0.0527
     12  CAE      -33.3830   -4.6550  -21.0340 C.3   501  EL3501      0.0214
     13  CAF      -32.4460   -5.3910  -22.0040 C.3   501  EL3501      0.0046
     14  CAL      -33.3990   -5.9500  -23.0490 C.3   501  EL3501      0.0037
     15  CAB      -32.6890   -6.4970  -24.2980 C.3   501  EL3501      0.0003
@<TRIPOS>BOND
     1     4     3    1
     2     4     5    1
     3     3     2    1
     4    15    14    1
     5     5     1    1
     6     5     6    1
     7     1     2    1
     8     2    14    1
     9     2    11    1
    10    14    13    1
    11     7     6    1
    12     6     8    1
    13     6     9    1
    14    13    12    1
    15    11     9    2
    16    11    12    1
    17     9    10    1
