@<TRIPOS>MOLECULE
3el4_ROC_A_1.pdb
 49 53 0 0 0
SMALL
GASTEIGER

@<TRIPOS>ATOM
      1  C          6.2260   -6.3450   18.0590 C.2   100  ROC100      0.2910
      2  O          6.5210   -5.7370   19.0980 O.2   100  ROC100     -0.2659
      3  N1         5.2490   -8.1340   16.7940 N.2   100  ROC100     -0.4013
      4  C2         5.4940   -7.5540   18.0310 C.2   100  ROC100      0.1679
      5  C3         4.9890   -8.1900   19.2030 C.3   100  ROC100      0.0899
      6  C4         4.2530   -9.4010   19.0710 C.2   100  ROC100     -0.0160
      7  C5         3.2970  -11.1710   17.6250 C.ar  100  ROC100      0.0022
      8  C6         3.0990  -11.6920   16.3080 C.ar  100  ROC100      0.0002
      9  C7         3.6240  -11.0180   15.1610 C.ar  100  ROC100      0.0026
     10  C8         4.3550   -9.8100   15.3140 C.ar  100  ROC100      0.0320
     11  C4A        4.0280   -9.9610   17.7850 C.ar  100  ROC100      0.0257
     12  C8A        4.5540   -9.2900   16.6180 C.ar  100  ROC100      0.1309
     13  N          6.5870   -5.8140   16.8730 N.am  100  ROC100     -0.1916
     14  CA         7.3170   -4.5540   16.7880 C.3   100  ROC100      0.1823
     15  C1         6.5510   -3.6020   15.8840 C.2   100  ROC100      0.2618
     16  O1         6.6440   -3.6470   14.6570 O.2   100  ROC100     -0.2715
     17  CB         8.7290   -4.7980   16.2590 C.3   100  ROC100      0.1195
     18  CG         9.5930   -5.5240   17.2680 C.2   100  ROC100      0.2630
     19  OD1        9.9360   -4.9700   18.3110 O.2   100  ROC100     -0.2716
     20  ND2        9.9270   -6.7750   16.9790 N.am  100  ROC100     -0.0877
     21  C9         5.5280   -0.3560   16.0890 C.3   100  ROC100      0.1879
     22  O2         5.2510   -0.0220   17.4480 O.3   100  ROC100     -0.2198
     23  CA1        4.9420   -1.7690   15.7900 C.3   100  ROC100      0.1313
     24  N2         5.7570   -2.7290   16.5180 N.am  100  ROC100     -0.2027
     25  CB1        3.4740   -1.9500   16.2700 C.3   100  ROC100      0.0506
     26  CG1        2.9750   -3.3770   16.1560 C.ar  100  ROC100     -0.0204
     27  CD1        2.6020   -3.8890   14.9150 C.ar  100  ROC100     -0.0042
     28  CD2        2.9360   -4.1720   17.3010 C.ar  100  ROC100     -0.0042
     29  CE1        2.1910   -5.2140   14.8250 C.ar  100  ROC100     -0.0003
     30  CE2        2.5240   -5.4880   17.1920 C.ar  100  ROC100     -0.0003
     31  CZ         2.1540   -6.0080   15.9570 C.ar  100  ROC100     -0.0000
     32  N11        5.8580    0.7960   13.8900 N.3   100  ROC100     -0.2643
     33  CM         5.1150    0.8010   15.1620 C.3   100  ROC100      0.1075
     34  C21        5.0650    1.3600   12.7430 C.3   100  ROC100      0.1365
     35  CC         3.7830    0.6030   12.4200 C.2   100  ROC100      0.2558
     36  O3         3.8100   -0.6350   12.4100 O.2   100  ROC100     -0.2719
     37  C31        5.9010    1.3680   11.4480 C.3   100  ROC100      0.0254
     38  C3A        7.2060    2.1460   11.6760 C.3   100  ROC100      0.0032
     39  C41        8.0850    2.1600   10.4280 C.3   100  ROC100      0.0001
     40  C51        8.7710    0.7960   10.1730 C.3   100  ROC100      0.0000
     41  C61        9.5990    0.3010   11.3770 C.3   100  ROC100      0.0000
     42  C71        8.6760    0.2070   12.6040 C.3   100  ROC100      0.0014
     43  C7A        8.0360    1.5770   12.9090 C.3   100  ROC100      0.0161
     44  C81        7.1100    1.5340   14.1370 C.3   100  ROC100      0.0725
     45  N3         2.7180    1.4080   12.2200 N.am  100  ROC100     -0.2077
     46  CD         1.3630    1.0010   11.8580 C.3   100  ROC100      0.0788
     47  C11        0.5760    2.2860   11.7650 C.3   100  ROC100      0.0217
     48  C22        1.3030    0.3510   10.4960 C.3   100  ROC100      0.0217
     49  C32        0.7130    0.1090   12.9320 C.3   100  ROC100      0.0217
@<TRIPOS>BOND
     1    40    39    1
     2    40    41    1
     3    39    38    1
     4    48    46    1
     5    41    42    1
     6    37    38    1
     7    37    34    1
     8    38    43    1
     9    47    46    1
    10    46    45    1
    11    46    49    1
    12    45    35   am
    13    36    35    2
    14    35    34    1
    15    42    43    1
    16    34    32    1
    17    43    44    1
    18    32    44    1
    19    32    33    1
    20    16    15    2
    21    29    27   ar
    22    29    31   ar
    23    27    26   ar
    24     9    10   ar
    25     9     8   ar
    26    33    21    1
    27    10    12   ar
    28    23    21    1
    29    23    25    1
    30    23    24    1
    31    15    24   am
    32    15    14    1
    33    31    30   ar
    34    21    22    1
    35    26    25    1
    36    26    28   ar
    37    17    14    1
    38    17    18    1
    39     8     7   ar
    40    12     3    2
    41    12    11   ar
    42    14    13    1
    43     3     4    2
    44    13     1   am
    45    20    18   am
    46    30    28   ar
    47    18    19    2
    48     7    11   ar
    49    11     6    2
    50     4     1    1
    51     4     5    1
    52     1     2    2
    53     6     5    1
