@<TRIPOS>MOLECULE
3el5_1UN_B_1.pdb
 40 43 0 0 0
SMALL
GASTEIGER

@<TRIPOS>ATOM
      1  C1         8.0680    1.6420   13.0990 C.3   201  1UN201      0.0161
      2  C2         7.3920    2.5160   11.9440 C.3   201  1UN201      0.0032
      3  C3         8.3000    2.7520   10.6490 C.3   201  1UN201      0.0001
      4  C4         8.8580    1.3450   10.2510 C.3   201  1UN201      0.0000
      5  C5         9.5000    0.5200   11.4490 C.3   201  1UN201      0.0000
      6  C6         8.4450    0.1750   12.6270 C.3   201  1UN201      0.0014
      7  N7         5.7880    0.8040   13.9290 N.3   201  1UN201     -0.2643
      8  C8         5.1110    1.6050   12.8130 C.3   201  1UN201      0.1365
      9  C9         6.0200    1.7870   11.5090 C.3   201  1UN201      0.0254
     10  C10        7.0900    1.4590   14.3850 C.3   201  1UN201      0.0725
     11  C11        3.9190    0.8840   12.3480 C.2   201  1UN201      0.2558
     12  N12        2.8630    1.7710   12.0750 N.am  201  1UN201     -0.2077
     13  C13        1.4880    1.3700   11.5770 C.3   201  1UN201      0.0788
     14  C14        0.8440    0.4770   12.6190 C.3   201  1UN201      0.0217
     15  C15        1.5610    0.5430   10.2110 C.3   201  1UN201      0.0217
     16  C16        0.6580    2.7160   11.4010 C.3   201  1UN201      0.0217
     17  O17        4.0060   -0.4000   12.2330 O.2   201  1UN201     -0.2719
     18  C18        4.9850    0.6910   15.1750 C.3   201  1UN201      0.1075
     19  C19        5.5050   -0.5480   15.9080 C.3   201  1UN201      0.1885
     20  C20        4.8080   -1.8970   15.5500 C.3   201  1UN201      0.1383
     21  O21        5.3240   -0.2360   17.2750 O.3   201  1UN201     -0.2198
     22  N22        5.5480   -2.9200   16.3070 N.am  201  1UN201     -0.1999
     23  C23        3.3400   -2.0610   15.9620 C.3   201  1UN201      0.0864
     24  C24        6.5700   -3.6200   15.6020 C.2   201  1UN201      0.2646
     25  O25        6.8660   -3.4170   14.4020 O.2   201  1UN201     -0.2684
     26  C29        7.2820   -4.5580   16.3950 C.ar  201  1UN201      0.0542
     27  C30        6.5130   -5.4890   17.2530 C.ar  201  1UN201      0.0045
     28  C31        7.1580   -6.4340   18.1000 C.ar  201  1UN201      0.0034
     29  C32        8.5780   -6.4760   18.1050 C.ar  201  1UN201      0.0417
     30  C33        9.3520   -5.5660   17.2650 C.ar  201  1UN201      0.1919
     31  C34        8.7400   -4.5910   16.3950 C.ar  201  1UN201      0.0215
     32  O38       10.7200   -5.6190   17.2940 O.3   201  1UN201     -0.2869
     33  C39        9.6630   -3.6860   15.5700 C.3   201  1UN201      0.0345
     34  S74        2.5340   -3.3020   14.8320 S.3   201  1UN201     -0.1118
     35  C77        2.6710   -4.7690   15.7810 C.ar  201  1UN201      0.0253
     36  C78        2.9230   -5.9450   15.0430 C.ar  201  1UN201      0.0061
     37  C79        3.0470   -7.1760   15.7750 C.ar  201  1UN201      0.0005
     38  C80        2.9240   -7.2320   17.2140 C.ar  201  1UN201      0.0000
     39  C81        2.6630   -6.0340   17.9680 C.ar  201  1UN201      0.0005
     40  C82        2.5380   -4.7880   17.2250 C.ar  201  1UN201      0.0061
@<TRIPOS>BOND
     1    15    13    1
     2     4     3    1
     3     4     5    1
     4     3     2    1
     5    16    13    1
     6     5     6    1
     7     9     2    1
     8     9     8    1
     9    13    12    1
    10    13    14    1
    11     2     1    1
    12    12    11   am
    13    17    11    2
    14    11     8    1
    15     6     1    1
    16     8     7    1
    17     1    10    1
    18     7    10    1
    19     7    18    1
    20    25    24    2
    21    34    35    1
    22    34    23    1
    23    36    37   ar
    24    36    35   ar
    25    18    19    1
    26    20    19    1
    27    20    23    1
    28    20    22    1
    29    33    31    1
    30    24    22   am
    31    24    26    1
    32    37    38   ar
    33    35    40   ar
    34    19    21    1
    35    26    31   ar
    36    26    27   ar
    37    31    30   ar
    38    38    39   ar
    39    40    39   ar
    40    27    28   ar
    41    30    32    1
    42    30    29   ar
    43    28    29   ar
