@<TRIPOS>MOLECULE
3el7_PD3_A_1.pdb
 36 40 0 0 0
SMALL
GASTEIGER

@<TRIPOS>ATOM
      1  C4        22.6960   -8.9030    9.7520 C.2   601  PD3601      0.3401
      2  C5        22.6130   -7.7310    9.0170 C.3   601  PD3601      0.2601
      3  C6        23.7800   -7.1830    8.5050 C.2   601  PD3601      0.4078
      4  N1        24.9450   -7.8060    8.7410 N.2   601  PD3601     -0.0027
      5  N3        23.8910   -9.4750    9.9530 N.2   601  PD3601     -0.0088
      6  CAQ       21.1820  -10.0410   12.4380 C.3   601  PD3601      0.0490
      7  CAO       21.8820  -11.2720   13.0210 C.3   601  PD3601      0.0043
      8  CAP       21.6280  -12.3470   11.9630 C.3   601  PD3601      0.0043
      9  CAR       21.9840  -11.5420   10.7140 C.3   601  PD3601      0.0490
     10  CBH       21.0690  -10.3370   10.9390 C.3   601  PD3601      0.1873
     11  NBI       21.4460   -9.1770   10.1190 N.pl3 601  PD3601     -0.0842
     12  NAV       20.6420   -8.3410    9.7030 N.2   601  PD3601     -0.0954
     13  C2        24.9830   -8.9210    9.4500 C.3   601  PD3601      0.5248
     14  NAA       23.7430   -6.0530    7.8040 N.pl3 601  PD3601      0.2118
     15  CBE       21.2650   -7.3910    9.0070 C.2   601  PD3601      0.1047
     16  CAS       20.6350   -6.1460    8.3790 C.3   601  PD3601      0.0725
     17  CAZ       19.4340   -6.5250    7.5090 C.ar  601  PD3601     -0.0151
     18  CAM       18.2840   -5.7420    7.5010 C.ar  601  PD3601      0.0128
     19  CAH       19.5090   -7.6680    6.7230 C.ar  601  PD3601     -0.0038
     20  CAF       18.4320   -8.0360    5.9250 C.ar  601  PD3601      0.0010
     21  CAI       17.2830   -7.2540    5.9230 C.ar  601  PD3601      0.0166
     22  CBB       17.2030   -6.1110    6.7080 C.ar  601  PD3601      0.0747
     23  NAW       16.0700   -5.4150    6.6320 N.am  601  PD3601     -0.1607
     24  CAY       15.7620   -4.2740    7.2430 C.2   601  PD3601      0.3477
     25  OAB       16.5390   -3.6750    7.9830 O.2   601  PD3601     -0.2484
     26  NAX       14.5280   -3.8560    6.9740 N.am  601  PD3601     -0.1607
     27  CBC       13.9180   -2.7510    7.4010 C.ar  601  PD3601      0.0749
     28  CAN       14.5650   -1.7560    8.1250 C.ar  601  PD3601      0.0205
     29  CAJ       12.6030   -2.5630    6.9970 C.ar  601  PD3601      0.0166
     30  CAG       11.9230   -1.3920    7.3080 C.ar  601  PD3601      0.0013
     31  CAK       12.5730   -0.3970    8.0290 C.ar  601  PD3601      0.0039
     32  CBD       13.8890   -0.5800    8.4300 C.ar  601  PD3601      0.0727
     33  CBJ       14.5910    0.5740    9.1510 C.3   601  PD3601      0.4186
     34  FAD       15.6780    0.1370    9.7750 F     601  PD3601     -0.1659
     35  FAE       14.9410    1.4920    8.2590 F     601  PD3601     -0.1659
     36  FAC       13.7600    1.1110   10.0360 F     601  PD3601     -0.1659
@<TRIPOS>BOND
     1    21    20   ar
     2    21    22   ar
     3    20    19   ar
     4    23    22    1
     5    23    24   am
     6    22    18   ar
     7    19    17   ar
     8    26    24   am
     9    26    27    1
    10    29    30   ar
    11    29    27   ar
    12    24    25    2
    13    30    31   ar
    14    27    28   ar
    15    18    17   ar
    16    17    16    1
    17    14     3    1
    18    31    32   ar
    19    28    32   ar
    20    35    33    1
    21    16    15    1
    22    32    33    1
    23     3     4    2
    24     3     2    1
    25     4    13    1
    26    15     2    1
    27    15    12    2
    28     2     1    1
    29    33    34    1
    30    33    36    1
    31    13     5    1
    32    12    11    1
    33     1     5    2
    34     1    11    1
    35    11    10    1
    36     9    10    1
    37     9     8    1
    38    10     6    1
    39     8     7    1
    40     6     7    1
