@<TRIPOS>MOLECULE
3el8_PD5_A_1.pdb
 33 36 0 0 0
SMALL
GASTEIGER

@<TRIPOS>ATOM
      1  C4         6.2140    8.2230    6.7640 C.2   601  PD5601      0.3405
      2  C5         5.5660    7.2160    7.4560 C.3   601  PD5601      0.2639
      3  C6         6.3210    6.1690    7.9710 C.2   601  PD5601      0.4081
      4  N1         7.6450    6.1770    7.7750 N.2   601  PD5601     -0.0027
      5  N3         7.5500    8.1660    6.6060 N.2   601  PD5601     -0.0088
      6  CAA        4.5340   11.3850    5.9670 C.3   601  PD5601      0.0532
      7  CBE        5.5470   10.2950    5.6080 C.3   601  PD5601      0.1876
      8  CAB        5.4760    9.9560    4.1170 C.3   601  PD5601      0.0532
      9  NBF        5.2760    9.0850    6.3950 N.pl3 601  PD5601     -0.0839
     10  NAS        4.1520    8.7370    6.7720 N.2   601  PD5601     -0.0914
     11  C2         8.2340    7.1580    7.1080 C.3   601  PD5601      0.5248
     12  NAC        5.7480    5.1820    8.6540 N.pl3 601  PD5601      0.2118
     13  CBB        4.2290    7.5870    7.4340 C.2   601  PD5601      0.1226
     14  CAZ        3.1800    6.8750    8.0070 C.ar  601  PD5601      0.0183
     15  CAO        2.2670    7.5370    8.8170 C.ar  601  PD5601      0.0027
     16  CAM        1.1220    6.8810    9.2590 C.ar  601  PD5601      0.0167
     17  CAN        2.9520    5.5450    7.6680 C.ar  601  PD5601      0.0027
     18  CAL        1.8060    4.8880    8.1080 C.ar  601  PD5601      0.0167
     19  CAX        0.8780    5.5610    8.8950 C.ar  601  PD5601      0.0750
     20  NAT       -0.3080    5.0370    9.2080 N.am  601  PD5601     -0.1607
     21  CAV       -0.7220    3.8010    8.9400 C.2   601  PD5601      0.3477
     22  OAD       -0.0200    2.9710    8.3680 O.2   601  PD5601     -0.2484
     23  NAU       -1.9640    3.5470    9.3470 N.am  601  PD5601     -0.1607
     24  CAY       -2.6380    2.4050    9.2120 C.ar  601  PD5601      0.0749
     25  CAP       -2.1110    1.2750    8.5990 C.ar  601  PD5601      0.0205
     26  CAJ       -3.9360    2.3690    9.7040 C.ar  601  PD5601      0.0166
     27  CAH       -4.7120    1.2210    9.5860 C.ar  601  PD5601      0.0013
     28  CAK       -4.1780    0.0970    8.9700 C.ar  601  PD5601      0.0039
     29  CBA       -2.8790    0.1200    8.4760 C.ar  601  PD5601      0.0727
     30  CBG       -2.3200   -1.1450    7.8190 C.3   601  PD5601      0.4186
     31  FAF       -2.2560   -2.1120    8.7290 F     601  PD5601     -0.1659
     32  FAG       -3.1270   -1.5200    6.8320 F     601  PD5601     -0.1659
     33  FAE       -1.1040   -0.9320    7.3280 F     601  PD5601     -0.1659
@<TRIPOS>BOND
     1     8     7    1
     2     7     6    1
     3     7     9    1
     4     9     1    1
     5     9    10    1
     6     5     1    2
     7     5    11    1
     8     1     2    1
     9    10    13    2
    10    32    30    1
    11    11     4    1
    12    33    30    1
    13    13     2    1
    14    13    14    1
    15     2     3    1
    16    17    14   ar
    17    17    18   ar
    18     4     3    2
    19    30    29    1
    20    30    31    1
    21     3    12    1
    22    14    15   ar
    23    18    19   ar
    24    22    21    2
    25    29    25   ar
    26    29    28   ar
    27    25    24   ar
    28    15    16   ar
    29    19    20    1
    30    19    16   ar
    31    21    20   am
    32    21    23   am
    33    28    27   ar
    34    24    23    1
    35    24    26   ar
    36    27    26   ar
