@<TRIPOS>MOLECULE
3ela_GLC_L_1.pdb
 11 11 0 0 0
SMALL
GASTEIGER

@<TRIPOS>ATOM
      1  C1        60.2740    0.2560   17.4180 C.3   215  GLC215      0.1777
      2  C2        60.6580   -0.5860   18.6480 C.3   215  GLC215      0.2141
      3  C3        59.7090   -0.2040   19.7710 C.3   215  GLC215      0.2173
      4  C4        59.9470    1.2770   20.1040 C.3   215  GLC215      0.2142
      5  C5        59.6630    2.1360   18.8600 C.3   215  GLC215      0.1810
      6  C6        59.9610    3.6220   19.1260 C.3   215  GLC215      0.2141
      7  O2        60.6390   -1.9860   18.4310 O.3   215  GLC215     -0.2176
      8  O3        59.9540   -1.0870   20.8350 O.3   215  GLC215     -0.2175
      9  O4        59.1500    1.7250   21.1830 O.3   215  GLC215     -0.2176
     10  O5        60.3490    1.6580   17.6890 O.3   215  GLC215     -0.3481
     11  O6        58.7670    4.3960   19.1430 O.3   215  GLC215     -0.2176
@<TRIPOS>BOND
     1     1    10    1
     2     1     2    1
     3    10     5    1
     4     7     2    1
     5     2     3    1
     6     5     6    1
     7     5     4    1
     8     6    11    1
     9     3     4    1
    10     3     8    1
    11     4     9    1
