@<TRIPOS>MOLECULE
3ela_FUC_L_1.pdb
 10 10 0 0 0
SMALL
GASTEIGER

@<TRIPOS>ATOM
      1  C1        48.1730   -5.0130    5.4990 C.3   216  FUC216      0.1776
      2  C2        49.3390   -6.0230    5.5520 C.3   216  FUC216      0.2141
      3  C3        49.3430   -6.9550    6.7570 C.3   216  FUC216      0.2172
      4  C4        48.0390   -6.8820    7.5370 C.3   216  FUC216      0.2116
      5  C5        47.6920   -5.4390    7.8780 C.3   216  FUC216      0.1483
      6  C6        46.3830   -5.3870    8.6590 C.3   216  FUC216      0.0349
      7  O2        50.5800   -5.3530    5.5520 O.3   216  FUC216     -0.2176
      8  O3        49.5870   -8.2670    6.3070 O.3   216  FUC216     -0.2175
      9  O4        46.9880   -7.4530    6.7840 O.3   216  FUC216     -0.2177
     10  O5        47.5970   -4.5960    6.7360 O.3   216  FUC216     -0.3508
@<TRIPOS>BOND
     1     1     2    1
     2     1    10    1
     3     2     7    1
     4     2     3    1
     5     8     3    1
     6    10     5    1
     7     3     4    1
     8     9     4    1
     9     4     5    1
    10     5     6    1
