@<TRIPOS>MOLECULE
3ela_0Z6_H_1.pdb
 34 35 0 0 0
SMALL
GASTEIGER

@<TRIPOS>ATOM
      1  N         14.1880    9.3050   52.7560 N.3   407  0Z6407     -0.1227
      2  CA        14.0100    8.1960   53.7340 C.3   407  0Z6407      0.1736
      3  C         13.5250    6.9390   53.0240 C.2   407  0Z6407      0.2595
      4  O         13.9790    6.6130   51.9190 O.2   407  0Z6407     -0.2718
      5  CB        15.3070    7.7910   54.4740 C.3   407  0Z6407      0.0547
      6  CG        16.3150    8.8900   54.6660 C.ar  407  0Z6407     -0.0202
      7  CD1       16.9360    9.5000   53.5840 C.ar  407  0Z6407     -0.0042
      8  CD2       16.6950    9.2660   55.9620 C.ar  407  0Z6407     -0.0042
      9  CE1       17.8820   10.5030   53.7730 C.ar  407  0Z6407     -0.0003
     10  CE2       17.6560   10.2860   56.1820 C.ar  407  0Z6407     -0.0003
     11  CZ        18.2490   10.9070   55.0860 C.ar  407  0Z6407     -0.0000
     12  N1        12.6250    6.2220   53.6880 N.am  407  0Z6407     -0.1962
     13  CA1       12.3380    4.8270   53.3650 C.3   407  0Z6407      0.1771
     14  C1        11.1810    4.7130   52.4090 C.2   407  0Z6407      0.2619
     15  O1        10.0830    5.2250   52.6590 O.2   407  0Z6407     -0.2715
     16  CB1       12.0160    4.0410   54.6310 C.3   407  0Z6407      0.0574
     17  CG1       13.1080    4.0620   55.6560 C.ar  407  0Z6407     -0.0200
     18 CD11       14.2020    3.2070   55.5420 C.ar  407  0Z6407     -0.0042
     19 CD21       13.0330    4.9310   56.7530 C.ar  407  0Z6407     -0.0042
     20 CE11       15.2160    3.2320   56.4980 C.ar  407  0Z6407     -0.0003
     21 CE21       14.0320    4.9650   57.7200 C.ar  407  0Z6407     -0.0003
     22  CZ1       15.1320    4.1220   57.5960 C.ar  407  0Z6407     -0.0000
     23  N2        11.4460    4.0350   51.2970 N.am  407  0Z6407     -0.1982
     24  CA2       10.4850    3.8480   50.2540 C.3   407  0Z6407      0.1524
     25  C2         9.8120    2.4880   50.5070 C.2   407  0Z6407      0.1707
     26  O2         8.7140    2.3420   49.9730 O.2   407  0Z6407     -0.2943
     27  CB2       11.2130    3.9150   48.9030 C.3   407  0Z6407      0.0329
     28  CG2       11.6600    5.3230   48.5720 C.3   407  0Z6407      0.0491
     29  CD        12.8520    5.3800   47.7110 C.3   407  0Z6407      0.2205
     30  NE        13.2870    6.7220   47.4020 N.pl3 407  0Z6407     -0.0865
     31  CZ2       14.0640    7.0010   46.3570 C.cat 407  0Z6407      0.5346
     32  NH1       14.4370    6.0100   45.5570 N.pl3 407  0Z6407      0.1354
     33  NH2       14.4680    8.2360   46.1090 N.pl3 407  0Z6407      0.1354
     34  C3         9.8490    1.5780   51.5380 C.3   407  0Z6407      0.0741
@<TRIPOS>BOND
     1    32    31    1
     2    33    31    1
     3    31    30    2
     4    30    29    1
     5    29    28    1
     6    28    27    1
     7    27    24    1
     8    26    25    2
     9    24    25    1
    10    24    23    1
    11    25    34    1
    12    23    14   am
    13     4     3    2
    14    14    15    2
    15    14    13    1
    16     1     2    1
    17     3    12   am
    18     3     2    1
    19    13    12    1
    20    13    16    1
    21     7     9   ar
    22     7     6   ar
    23     2     5    1
    24     9    11   ar
    25     5     6    1
    26    16    17    1
    27     6     8   ar
    28    11    10   ar
    29    18    17   ar
    30    18    20   ar
    31    17    19   ar
    32     8    10   ar
    33    20    22   ar
    34    19    21   ar
    35    22    21   ar
