@<TRIPOS>MOLECULE
3elb_C5P_A_1.pdb
 21 22 0 0 0
SMALL
GASTEIGER

@<TRIPOS>ATOM
      1  O3P       18.9570    3.8060   56.8570 O.3   400  C5P400     -0.1145
      2  P         20.2740    3.0890   56.8460 P.3   400  C5P400      0.5327
      3  O1P       20.9940    3.2840   58.2050 O.3   400  C5P400     -0.1145
      4  O2P       20.0710    1.5920   56.5910 O.2   400  C5P400     -0.2224
      5  O5'       21.3300    3.6470   55.7580 O.3   400  C5P400     -0.2675
      6  C5'       21.5840    5.0350   55.6440 C.3   400  C5P400      0.1859
      7  C4'       22.2550    5.4080   54.3060 C.3   400  C5P400      0.1801
      8  O4'       23.5110    4.7730   54.2520 O.3   400  C5P400     -0.3320
      9  C3'       21.4360    4.8730   53.1210 C.3   400  C5P400      0.2158
     10  O3'       21.5600    5.7700   52.0360 O.3   400  C5P400     -0.2175
     11  C2'       22.0980    3.5390   52.8030 C.3   400  C5P400      0.2319
     12  O2'       21.9040    3.1370   51.4370 O.3   400  C5P400     -0.2157
     13  C1'       23.5450    3.9340   53.0430 C.3   400  C5P400      0.2400
     14  N1        24.3460    2.7400   53.3120 N.am  400  C5P400     -0.1778
     15  C2        25.2790    2.3130   52.3220 C.1   400  C5P400      0.2756
     16  N3        26.0450    1.1970   52.5340 N.2   400  C5P400     -0.3024
     17  C4        25.9080    0.4660   53.7100 C.2   400  C5P400      0.2346
     18  C5        25.0000    0.8660   54.6920 C.2   400  C5P400      0.0687
     19  C6        24.2060    1.9850   54.4890 C.2   400  C5P400      0.0836
     20  O2        25.4070    2.9380   51.2820 O.2   400  C5P400     -0.1925
     21  N4        26.6810   -0.5960   53.9000 N.pl3 400  C5P400     -0.0921
@<TRIPOS>BOND
     1    20    15    2
     2    12    11    1
     3    10     9    1
     4    15    16    2
     5    15    14   am
     6    16    17    2
     7    11    13    1
     8    11     9    1
     9    13    14    1
    10    13     8    1
    11     9     7    1
    12    14    19    1
    13    17    21    1
    14    17    18    1
    15     8     7    1
    16     7     6    1
    17    19    18    2
    18     6     5    1
    19     5     2    1
    20     4     2    2
    21     2     1    1
    22     2     3    1
