@<TRIPOS>MOLECULE
3elc_GPP_C_1.pdb
 19 18 0 0 0
SMALL
GASTEIGER

@<TRIPOS>ATOM
      1  C1        42.5310   -0.7640   27.4390 C.3   904  GPP904      0.1747
      2  O1        43.6410   -1.6190   26.9160 O.3   904  GPP904     -0.3089
      3  C2        41.5870   -0.4380   26.4530 C.2   904  GPP904     -0.0024
      4  C3        40.3270    0.1680   26.5870 C.2   904  GPP904     -0.0454
      5  C4        39.8220    0.6030   27.9700 C.3   904  GPP904      0.0261
      6  C5        39.4350    0.4510   25.3380 C.3   904  GPP904      0.0264
      7  C6        38.6250   -0.7530   24.7840 C.3   904  GPP904      0.0297
      8  C7        39.5010   -1.6460   24.1650 C.2   904  GPP904     -0.0342
      9  C8        40.0010   -2.8390   24.6890 C.2   904  GPP904     -0.0478
     10  C9        40.9820   -3.6700   23.8760 C.3   904  GPP904      0.0260
     11  C10       39.5820   -3.3550   26.0720 C.3   904  GPP904      0.0260
     12  PA        45.0830   -0.9460   26.4660 P.3   904  GPP904      0.2233
     13  O1A       45.0220   -0.7160   25.0000 O.2   904  GPP904     -0.5169
     14  O2A       45.3470    0.1680   27.4110 O.3   904  GPP904     -0.4370
     15  O3A       46.2950   -2.0160   26.6930 O.3   904  GPP904     -0.2261
     16  PB        47.8760   -1.5850   26.9090 P.3   904  GPP904      0.5373
     17  O1B       48.1960   -2.2800   28.3140 O.3   904  GPP904     -0.1143
     18  O2B       48.6920   -2.4050   25.7940 O.2   904  GPP904     -0.2221
     19  O3B       48.2540   -0.1460   26.9400 O.3   904  GPP904     -0.1143
@<TRIPOS>BOND
     1    10     9    1
     2     8     9    2
     3     8     7    1
     4     9    11    1
     5     7     6    1
     6    13    12    2
     7     6     4    1
     8    18    16    2
     9     3     4    2
    10     3     1    1
    11    12    15    1
    12    12     2    1
    13    12    14    1
    14     4     5    1
    15    15    16    1
    16    16    19    1
    17    16    17    1
    18     2     1    1
