@<TRIPOS>MOLECULE
3elc_F01_A_1.pdb
 18 19 0 0 0
SMALL
GASTEIGER

@<TRIPOS>ATOM
      1  O1        33.4890    5.9290   42.1690 O.2   901  F01901     -0.1925
      2  C6        34.0770    5.1880   41.3840 C.1   901  F01901      0.2758
      3  N1        35.1160    5.7190   40.6310 N.2   901  F01901     -0.3000
      4  C7        35.7990    4.9410   39.7360 C.2   901  F01901      0.2617
      5  N2        36.7780    5.4860   39.0410 N.pl3 901  F01901     -0.0896
      6  C8        35.4660    3.6140   39.5750 C.2   901  F01901      0.2033
      7  F1        36.1470    2.8770   38.6830 F     901  F01901     -0.1985
      8  C9        34.4390    3.0440   40.3140 C.2   901  F01901      0.1132
      9  N3        33.7190    3.8330   41.2360 N.am  901  F01901     -0.1756
     10  C1        32.6250    3.2510   42.0570 C.3   901  F01901      0.2401
     11  O4        33.2060    2.0040   42.5090 O.3   901  F01901     -0.3318
     12  C4        32.2030    0.9780   42.3810 C.3   901  F01901      0.1829
     13  C5        32.8990   -0.3640   42.0750 C.3   901  F01901      0.2142
     14  O5        33.5860   -0.3160   40.7990 O.3   901  F01901     -0.2176
     15  C3        31.3890    1.3990   41.1660 C.3   901  F01901      0.2159
     16  O3        30.1050    0.8310   41.2270 O.3   901  F01901     -0.2175
     17  C2        31.3250    2.9070   41.3220 C.3   901  F01901      0.2319
     18  O2        30.2220    3.2500   42.1540 O.3   901  F01901     -0.2157
@<TRIPOS>BOND
     1     7     6    1
     2     5     4    1
     3     6     4    1
     4     6     8    2
     5     4     3    2
     6     8     9    1
     7     3     2    2
     8    14    13    1
     9    15    16    1
    10    15    17    1
    11    15    12    1
    12     9     2   am
    13     9    10    1
    14    17    10    1
    15    17    18    1
    16     2     1    2
    17    10    11    1
    18    13    12    1
    19    12    11    1
