@<TRIPOS>MOLECULE
3eld_SFG_A_1.pdb
 27 29 0 0 0
SMALL
GASTEIGER

@<TRIPOS>ATOM
      1  N        -23.2470   -3.1500    8.0360 N.3   293  SFG293     -0.1208
      2  CA       -23.6560   -1.7440    7.8650 C.3   293  SFG293      0.1944
      3  C        -22.6320   -1.0390    6.9610 C.2   293  SFG293      0.3819
      4  O        -21.6190   -1.6950    6.6540 O.co2 293  SFG293     -0.2441
      5  OXT      -22.8860    0.1230    6.5780 O.co2 293  SFG293     -0.2441
      6  CB       -23.7520   -1.0590    9.2370 C.3   293  SFG293      0.0321
      7  CG       -24.9810   -1.5800   10.0150 C.3   293  SFG293      0.0212
      8  CD       -25.2060   -0.8920   11.3630 C.3   293  SFG293      0.0944
      9  NE       -24.0870   -1.2320   12.2650 N.3   293  SFG293     -0.1328
     10  C5'      -26.5040   -1.4240   12.0180 C.3   293  SFG293      0.0514
     11  C4'      -27.7940   -0.8050   11.4230 C.3   293  SFG293      0.1537
     12  O4'      -28.9410   -1.5400   11.9140 O.3   293  SFG293     -0.3161
     13  C3'      -28.0310    0.6540   11.8460 C.3   293  SFG293      0.2159
     14  O3'      -28.0300    1.4550   10.6670 O.3   293  SFG293     -0.2175
     15  C2'      -29.4220    0.6500   12.4710 C.3   293  SFG293      0.2569
     16  O2'      -30.1890    1.7690   12.0210 O.3   293  SFG293     -0.2130
     17  C1'      -30.0280   -0.6190   11.8900 C.3   293  SFG293      0.3185
     18  N9       -31.0340   -1.2720   12.7640 N.pl3 293  SFG293     -0.1439
     19  C8       -30.9910   -1.4010   14.0920 C.3   293  SFG293      0.3377
     20  N7       -32.0640   -2.0770   14.5050 N.2   293  SFG293     -0.2095
     21  C5       -32.7940   -2.3790   13.4410 C.2   293  SFG293      0.2526
     22  C6       -33.9900   -3.0590   13.2490 C.2   293  SFG293      0.4393
     23  N6       -34.6670   -3.5640   14.2840 N.pl3 293  SFG293      0.2180
     24  N1       -34.4610   -3.1890   11.9960 N.2   293  SFG293      0.0021
     25  C2       -33.7980   -2.6950   10.9570 C.3   293  SFG293      0.5254
     26  N3       -32.6490   -2.0400   11.1150 N.2   293  SFG293     -0.0055
     27  C4       -32.1300   -1.8740   12.3310 C.2   293  SFG293      0.3518
@<TRIPOS>BOND
     1     5     3   ar
     2     4     3   ar
     3     3     2    1
     4     2     1    1
     5     2     6    1
     6     6     7    1
     7     7     8    1
     8    14    13    1
     9    25    26    1
    10    25    24    1
    11    26    27    2
    12     8    10    1
    13     8     9    1
    14    11    13    1
    15    11    12    1
    16    11    10    1
    17    13    15    1
    18    17    12    1
    19    17    15    1
    20    17    18    1
    21    24    22    2
    22    16    15    1
    23    27    18    1
    24    27    21    1
    25    18    19    1
    26    22    21    1
    27    22    23    1
    28    21    20    2
    29    19    20    1
