@<TRIPOS>MOLECULE
3ele_PLP_A_1.pdb
 16 16 0 0 0
SMALL
GASTEIGER

@<TRIPOS>ATOM
      1  N1        70.5360   80.6320  -11.6200 N.2   500  PLP500     -0.2505
      2  C2        69.4230   81.2160  -12.2290 C.2   500  PLP500      0.0679
      3  C2A       68.5980   82.1940  -11.4560 C.3   500  PLP500      0.0499
      4  C3        69.1010   80.9090  -13.5670 C.3   500  PLP500      0.1987
      5  O3        68.0180   81.4930  -14.1790 O.3   500  PLP500     -0.2162
      6  C4        69.8780   79.9750  -14.2910 C.3   500  PLP500      0.1228
      7  C4A       69.2230   79.3750  -15.5220 C.2   500  PLP500      0.2141
      8  O4A       68.4890   78.3920  -15.4120 O.2   500  PLP500     -0.2879
      9  C5        71.0120   79.3930  -13.6460 C.2   500  PLP500      0.0147
     10  C6        71.3290   79.7270  -12.3060 C.2   500  PLP500      0.0926
     11  C5A       71.8950   78.3590  -14.3130 C.3   500  PLP500      0.1780
     12  O4P       72.9860   78.9040  -14.9860 O.3   500  PLP500     -0.2656
     13  P         74.0620   77.8770  -15.6070 P.3   500  PLP500      0.5329
     14  O1P       75.4370   78.4760  -15.5310 O.3   500  PLP500     -0.1145
     15  O2P       73.7640   77.6790  -17.0650 O.2   500  PLP500     -0.2224
     16  O3P       74.0490   76.5570  -14.9080 O.3   500  PLP500     -0.1145
@<TRIPOS>BOND
     1    15    13    2
     2    13    14    1
     3    13    12    1
     4    13    16    1
     5     7     8    2
     6     7     6    1
     7    12    11    1
     8    11     9    1
     9     6     9    1
    10     6     4    1
    11     5     4    1
    12     9    10    2
    13     4     2    1
    14    10     1    1
    15     2     1    2
    16     2     3    1
