@<TRIPOS>MOLECULE
3elf_2FP_A_1.pdb
 20 19 0 0 0
SMALL
GASTEIGER

@<TRIPOS>ATOM
      1  P6        12.0230   48.6760   21.6760 P.3   350  2FP350      0.5327
      2  O6        11.0860   47.4070   22.0320 O.3   350  2FP350     -0.2674
      3  C6        11.5280   46.0590   21.8640 C.3   350  2FP350      0.1892
      4  C5        10.3820   45.1400   22.2680 C.3   350  2FP350      0.2151
      5  O5         9.3140   45.3320   21.3440 O.3   350  2FP350     -0.2176
      6  C4        10.7040   43.6590   22.1990 C.3   350  2FP350      0.2220
      7  O4        12.0160   43.3610   22.7030 O.3   350  2FP350     -0.2171
      8  C3         9.6490   42.8690   22.9720 C.3   350  2FP350      0.2439
      9  O3        10.2400   42.3940   24.1950 O.3   350  2FP350     -0.2122
     10  C2         9.2060   41.7020   22.1310 C.2   350  2FP350      0.2137
     11  O2         9.6330   40.6030   22.4360 O.2   350  2FP350     -0.2906
     12  C1         8.2650   41.8680   20.9370 C.3   350  2FP350      0.2203
     13  O1         8.7060   41.2360   19.7040 O.3   350  2FP350     -0.2621
     14  O61       13.3600   48.3600   22.3060 O.3   350  2FP350     -0.1145
     15  O62       12.0390   48.7690   20.1700 O.2   350  2FP350     -0.2224
     16  O63       11.2820   49.8200   22.3150 O.3   350  2FP350     -0.1145
     17  P1         7.8700   41.4180   18.3150 P.3   350  2FP350      0.5330
     18  O11        8.1520   42.8560   17.9390 O.3   350  2FP350     -0.1145
     19  O12        6.4390   41.2550   18.7800 O.3   350  2FP350     -0.1145
     20  O13        8.3140   40.3450   17.3540 O.2   350  2FP350     -0.2224
@<TRIPOS>BOND
     1    20    17    2
     2    18    17    1
     3    17    19    1
     4    17    13    1
     5    13    12    1
     6    15     1    2
     7    12    10    1
     8     5     4    1
     9     1     2    1
    10     1    14    1
    11     1    16    1
    12     3     2    1
    13     3     4    1
    14    10    11    2
    15    10     8    1
    16     6     4    1
    17     6     7    1
    18     6     8    1
    19     8     9    1
