@<TRIPOS>MOLECULE
3elh_DUD_A_1.pdb
 24 25 0 0 0
SMALL
GASTEIGER

@<TRIPOS>ATOM
      1  N1       -15.9800   14.7300   15.4460 N.am  160  DUD160     -0.1790
      2  C2       -17.0770   14.8620   14.5640 C.1   160  DUD160      0.2844
      3  N3       -17.4230   16.0600   14.0820 N.2   160  DUD160     -0.2452
      4  C4       -16.7280   17.1520   14.4190 C.1   160  DUD160      0.2182
      5  C5       -15.6310   17.0520   15.2740 C.2   160  DUD160      0.1242
      6  C6       -15.2660   15.8110   15.7700 C.2   160  DUD160      0.0928
      7  O2       -17.7490   13.8580   14.2420 O.2   160  DUD160     -0.1918
      8  O4       -17.0770   18.2660   13.9550 O.2   160  DUD160     -0.2085
      9  C1'      -15.5770   13.4080   15.9580 C.3   160  DUD160      0.2090
     10  C2'      -14.3230   12.9520   15.2210 C.3   160  DUD160      0.0874
     11  C3'      -13.2110   13.1170   16.2350 C.3   160  DUD160      0.1857
     12  C4'      -13.9300   13.0240   17.5820 C.3   160  DUD160      0.1773
     13  O4'      -15.2460   13.5430   17.3410 O.3   160  DUD160     -0.3339
     14  O3'      -12.2230   12.0970   16.0700 O.3   160  DUD160     -0.2203
     15  C5'      -13.2370   13.8150   18.7010 C.3   160  DUD160      0.1812
     16  O5'      -13.1410   15.1770   18.2620 O.3   160  DUD160     -0.3111
     17  PA       -11.7770   16.0250   18.3560 P.3   160  DUD160      0.2231
     18  O1A      -11.1350   15.9160   19.7250 O.3   160  DUD160     -0.4370
     19  O2A      -12.0700   17.3730   17.7550 O.2   160  DUD160     -0.5169
     20  O3A      -10.8120   15.3190   17.2520 O.3   160  DUD160     -0.2261
     21  PB        -9.5900   14.2860   17.5610 P.3   160  DUD160      0.5373
     22  O1B       -8.6550   14.6880   16.4480 O.2   160  DUD160     -0.2221
     23  O2B      -10.2060   12.9010   17.4710 O.3   160  DUD160     -0.1143
     24  O3B       -9.0720   14.6670   18.9260 O.3   160  DUD160     -0.1143
@<TRIPOS>BOND
     1     8     4    2
     2     3     4    2
     3     3     2    2
     4     7     2    2
     5     4     5    1
     6     2     1   am
     7    10     9    1
     8    10    11    1
     9     5     6    2
    10     1     6    1
    11     1     9    1
    12     9    13    1
    13    14    11    1
    14    11    12    1
    15    22    21    2
    16    20    21    1
    17    20    17    1
    18    13    12    1
    19    23    21    1
    20    21    24    1
    21    12    15    1
    22    19    17    2
    23    16    17    1
    24    16    15    1
    25    17    18    1
