@<TRIPOS>MOLECULE
3elj_GS7_A_1.pdb
 34 37 0 0 0
SMALL
GASTEIGER

@<TRIPOS>ATOM
      1  C11       20.7730    8.5190   32.3400 C.2   365  GS7365      0.2127
      2  N2        21.3920    7.3760   31.9960 N.2   365  GS7365     -0.3123
      3  C19       19.5210    8.3970   32.9060 C.3   365  GS7365      0.1908
      4  C22       19.0130    7.1340   33.0720 C.1   365  GS7365      0.0886
      5  N5        17.7770    7.2490   33.6400 N.2   365  GS7365     -0.1850
      6  C21       17.4810    8.5660   33.8470 C.2   365  GS7365      0.1072
      7  C20       18.5510    9.3090   33.3980 C.2   365  GS7365      0.0194
      8  N6        19.6100    5.9950   32.7410 N.2   365  GS7365     -0.2754
      9  C10       20.8160    6.1850   32.2010 C.1   365  GS7365      0.2343
     10  N1        21.4930    5.0070   31.8270 N.pl3 365  GS7365     -0.1218
     11  C9        22.7630    4.9740   31.2170 C.ar  365  GS7365      0.1173
     12  C2        23.6990    4.0630   31.6580 C.ar  365  GS7365      0.1544
     13  O1        23.2950    3.2430   32.7030 O.3   365  GS7365     -0.4701
     14  C1        24.1830    2.1400   32.8230 C.3   365  GS7365      0.2525
     15  C8        23.0940    5.8190   30.1790 C.ar  365  GS7365      0.0202
     16  C7        24.3440    5.7590   29.6050 C.ar  365  GS7365     -0.0010
     17  C4        25.2790    4.8450   30.0440 C.ar  365  GS7365      0.0044
     18  C3        24.9550    3.9930   31.0800 C.ar  365  GS7365      0.0357
     19  C5        26.6290    4.8080   29.4040 C.3   365  GS7365      0.1773
     20  S         26.5390    3.7910   27.9470 S.O2  365  GS7365     -0.0040
     21  O2        25.6290    4.4050   26.9980 O.2   365  GS7365     -0.1726
     22  O3        26.3330    2.4240   28.3880 O.2   365  GS7365     -0.1726
     23  C6        28.1780    3.9200   27.2980 C.3   365  GS7365      0.1764
     24  O4        20.8260   12.3130   32.6810 O.2   365  GS7365     -0.2665
     25  C18       21.7270   12.5310   31.8800 C.2   365  GS7365      0.2876
     26  N4        21.8210   13.6440   31.0860 N.am  365  GS7365     -0.0836
     27  C17       22.8270   11.5640   31.7060 C.ar  365  GS7365      0.0993
     28  C16       24.0940   12.0080   31.3940 C.ar  365  GS7365      0.1458
     29  F         24.3470   13.3170   31.2440 F     365  GS7365     -0.2040
     30  C15       25.1190   11.1050   31.2310 C.ar  365  GS7365      0.0299
     31  C14       24.8710    9.7600   31.3830 C.ar  365  GS7365      0.0036
     32  C13       23.6040    9.3200   31.6970 C.ar  365  GS7365      0.0169
     33  C12       22.5690   10.2150   31.8610 C.ar  365  GS7365      0.0795
     34  N3        21.2650    9.8190   32.1790 N.pl3 365  GS7365     -0.1851
@<TRIPOS>BOND
     1    21    20    2
     2    23    20    1
     3    20    22    2
     4    20    19    1
     5    19    17    1
     6    16    17   ar
     7    16    15   ar
     8    17    18   ar
     9    15    11   ar
    10    18    12   ar
    11    26    25   am
    12    11    12   ar
    13    11    10    1
    14    30    31   ar
    15    30    28   ar
    16    29    28    1
    17    31    32   ar
    18    28    27   ar
    19    12    13    1
    20    32    33   ar
    21    27    33   ar
    22    27    25    1
    23    10     9    1
    24    33    34    1
    25    25    24    2
    26     2     9    2
    27     2     1    2
    28    34     1    1
    29     9     8    2
    30     1     3    1
    31    13    14    1
    32     8     4    2
    33     3     4    1
    34     3     7    1
    35     4     5    2
    36     7     6    2
    37     5     6    1
