@<TRIPOS>MOLECULE
3ell_HEM_A_1.pdb
 43 50 0 0 0
SMALL
GASTEIGER

@<TRIPOS>ATOM
      1 FE          6.8660   43.7160  -17.2780 Fe    200  HEM200      0.0000
      2  CHA        7.0990   45.6810  -14.3720 C.2   200  HEM200      0.0000
      3  CHB        7.1200   46.5060  -19.1380 C.2   200  HEM200      0.0000
      4  CHC        6.8900   41.7220  -19.9760 C.2   200  HEM200      0.0000
      5  CHD        6.3120   40.9590  -15.2330 C.2   200  HEM200      0.0000
      6  NA         7.0430   45.6710  -16.8270 N.ar  200  HEM200      0.0000
      7  C1A        7.1730   46.3110  -15.6000 C.ar  200  HEM200      0.0000
      8  C2A        7.3680   47.7750  -15.8040 C.ar  200  HEM200      0.0000
      9  C3A        7.3330   47.9680  -17.1310 C.ar  200  HEM200      0.0000
     10  C4A        7.1480   46.6900  -17.7840 C.ar  200  HEM200      0.0000
     11  CMA        7.4890   49.3380  -17.9020 C.3   200  HEM200      0.0000
     12  CAA        7.5610   48.8000  -14.6630 C.2   200  HEM200      0.0000
     13  CBA        6.6660   49.1580  -14.0690 C.2   200  HEM200      0.0000
     14  CGA        6.9630   50.2700  -13.0340 C.2   200  HEM200      0.0000
     15  O1A        8.0630   50.8810  -13.0900 O.co2 200  HEM200      0.0000
     16  O2A        6.0110   50.4610  -12.2190 O.co2 200  HEM200      0.0000
     17  NB         6.9730   44.0550  -19.1540 N.2   200  HEM200      0.0000
     18  C1B        7.0500   45.2940  -19.7730 C.2   200  HEM200      0.0000
     19  C2B        7.0920   45.1030  -21.2170 C.2   200  HEM200      0.0000
     20  C3B        7.0690   43.7620  -21.4490 C.2   200  HEM200      0.0000
     21  C4B        6.9810   43.0990  -20.1510 C.2   200  HEM200      0.0000
     22  CMB        7.1740   46.2780  -22.2480 C.3   200  HEM200      0.0000
     23  CAB        7.1160   42.9740  -22.7970 C.2   200  HEM200      0.0000
     24  CBB        6.4920   43.4010  -23.9070 C.2   200  HEM200      0.0000
     25  NC         6.6780   41.7430  -17.5250 N.ar  200  HEM200      0.0000
     26  C1C        6.7240   41.0960  -18.7500 C.ar  200  HEM200      0.0000
     27  C2C        6.5150   39.6820  -18.5660 C.ar  200  HEM200      0.0000
     28  C3C        6.3130   39.4660  -17.2380 C.ar  200  HEM200      0.0000
     29  C4C        6.4250   40.7470  -16.5870 C.ar  200  HEM200      0.0000
     30  CMC        6.4870   38.6180  -19.7220 C.3   200  HEM200      0.0000
     31  CAC        6.0150   38.1300  -16.5120 C.2   200  HEM200      0.0000
     32  CBC        6.3230   36.9010  -16.8190 C.2   200  HEM200      0.0000
     33  ND         6.7270   43.3800  -15.2200 N.2   200  HEM200      0.0000
     34  C1D        6.4710   42.1700  -14.6020 C.2   200  HEM200      0.0000
     35  C2D        6.4250   42.3680  -13.1870 C.2   200  HEM200      0.0000
     36  C3D        6.6760   43.6310  -12.9400 C.2   200  HEM200      0.0000
     37  C4D        6.8650   44.3380  -14.2050 C.2   200  HEM200      0.0000
     38  CMD        6.1340   41.2290  -12.1660 C.3   200  HEM200      0.0000
     39  CAD        6.7020   44.1760  -11.5020 C.3   200  HEM200      0.0000
     40  CBD        5.4970   45.0600  -11.2020 C.3   200  HEM200      0.0000
     41  CGD        5.3830   45.4130   -9.7400 C.2   200  HEM200      0.0000
     42  O1D        4.4650   46.1640   -9.4080 O.co2 200  HEM200      0.0000
     43  O2D        6.2260   44.8660   -8.9790 O.co2 200  HEM200      0.0000
@<TRIPOS>BOND
     1    24    23    2
     2    23    20    1
     3    22    19    1
     4    20    19    2
     5    20    21    1
     6    19    18    1
     7    21     4    2
     8    21    17    1
     9     4    26    1
    10    18    17    2
    11    18     3    1
    12    30    27    1
    13    17     1    1
    14     3    10    2
    15    26    27   ar
    16    26    25   ar
    17    27    28   ar
    18    11     9    1
    19    10     9   ar
    20    10     6   ar
    21    25     1    1
    22    25    29   ar
    23     1     6    1
    24     1    33    1
    25    28    29   ar
    26    28    31    1
    27     9     8   ar
    28     6     7   ar
    29    32    31    2
    30    29     5    1
    31     8     7   ar
    32     8    12    1
    33     7     2    2
    34     5    34    2
    35    33    34    1
    36    33    37    2
    37    12    13    2
    38    34    35    1
    39     2    37    1
    40    37    36    1
    41    13    14    1
    42    35    36    2
    43    35    38    1
    44    15    14   ar
    45    14    16   ar
    46    36    39    1
    47    39    40    1
    48    40    41    1
    49    41    42   ar
    50    41    43   ar
