@<TRIPOS>MOLECULE
3elm_24F_A_1.pdb
 34 36 0 0 0
SMALL
GASTEIGER

@<TRIPOS>ATOM
      1  C01       -7.5790   26.9970   49.8780 C.ar  400  24F400      0.1386
      2  C02       -8.0950   26.1190   50.8740 C.ar  400  24F400      0.0369
      3  C03       -7.5510   26.1020   52.1930 C.ar  400  24F400      0.0036
      4  C04       -6.4640   26.9750   52.5560 C.ar  400  24F400      0.0062
      5  C05       -5.9410   27.8600   51.5590 C.ar  400  24F400      0.0036
      6  C06       -6.4910   27.8690   50.2350 C.ar  400  24F400      0.0369
      7  O07       -8.1090   27.0050   48.5990 O.3   400  24F400     -0.4755
      8  C08       -8.0170   28.1520   47.7540 C.3   400  24F400      0.2055
      9  C09       -5.9000   26.9610   53.9320 C.ar  400  24F400      0.0308
     10  C10       -5.9740   25.8410   54.7730 C.ar  400  24F400      0.0084
     11  C11       -5.3350   26.1260   56.0440 C.ar  400  24F400      0.0271
     12  C12       -4.8300   27.4220   56.0690 C.ar  400  24F400      0.1530
     13  S13       -5.0920   28.3290   54.6290 S.2   400  24F400     -0.0672
     14  S14       -3.9670   28.0830   57.4390 S.O2  400  24F400      0.0830
     15  N15       -2.3530   27.8490   57.2420 N.3   400  24F400     -0.0672
     16  O16       -4.1350   29.5430   57.4550 O.2   400  24F400     -0.1511
     17  O17       -4.3450   27.3800   58.6630 O.2   400  24F400     -0.1511
     18  C18       -1.7920   26.4810   57.1910 C.3   400  24F400      0.2002
     19  C19       -1.8480   26.0310   55.7020 C.2   400  24F400      0.3822
     20  OM0       -2.0740   24.8350   55.4590 O.co2 400  24F400     -0.2440
     21  O21       -1.6420   26.9130   54.8550 O.co2 400  24F400     -0.2440
     22  C22       -0.3560   26.5080   57.7490 C.3   400  24F400      0.0324
     23  C23        0.5420   25.3180   57.3170 C.3   400  24F400      0.0237
     24  C24        1.9640   25.4310   57.8870 C.3   400  24F400      0.0968
     25  N25        1.9080   25.5400   59.3640 N.am  400  24F400     -0.2460
     26  C26        1.1010   26.6730   59.8880 C.3   400  24F400      0.0968
     27  C27       -0.3400   26.6740   59.2960 C.3   400  24F400      0.0237
     28  C28       -9.0200   27.9780   46.6140 C.3   400  24F400      0.0512
     29  C29        2.3420   24.5960   60.1860 C.2   400  24F400      0.4048
     30  O30        3.2310   23.6930   59.5330 O.3   400  24F400     -0.4383
     31  O31        2.0640   24.4380   61.3780 O.2   400  24F400     -0.2262
     32  C32        3.4580   22.3860   60.0790 C.3   400  24F400      0.1707
     33  C33        4.8450   21.9030   59.6360 C.3   400  24F400      0.0474
     34  C34        2.3730   21.4370   59.5600 C.3   400  24F400      0.0474
@<TRIPOS>BOND
     1    28     8    1
     2     8     7    1
     3     7     1    1
     4     1     6   ar
     5     1     2   ar
     6     6     5   ar
     7     2     3   ar
     8     5     4   ar
     9     3     4   ar
    10     4     9    1
    11     9    13   ar
    12     9    10   ar
    13    13    12   ar
    14    10    11   ar
    15    21    19   ar
    16    20    19   ar
    17    19    18    1
    18    11    12   ar
    19    12    14    1
    20    18    15    1
    21    18    22    1
    22    15    14    1
    23    23    22    1
    24    23    24    1
    25    14    16    2
    26    14    17    2
    27    22    27    1
    28    24    25    1
    29    27    26    1
    30    25    26    1
    31    25    29   am
    32    30    32    1
    33    30    29    1
    34    34    32    1
    35    33    32    1
    36    29    31    2
