@<TRIPOS>MOLECULE
3elu_SAM_A_1.pdb
 27 29 0 0 0
SMALL
GASTEIGER

@<TRIPOS>ATOM
      1  N        -23.1570   -3.2120    8.0330 N.3   4633  SAM4633    -0.1208
      2  CA       -23.5580   -1.7960    7.7680 C.3   4633  SAM4633     0.1952
      3  C        -22.6040   -1.1270    6.7910 C.2   4633  SAM4633     0.3819
      4  O        -21.5510   -1.6860    6.4700 O.co2 4633  SAM4633    -0.2441
      5  OXT      -22.8850   -0.0410    6.2790 O.co2 4633  SAM4633    -0.2441
      6  CB       -23.6300   -1.0120    9.0620 C.3   4633  SAM4633     0.0414
      7  CG       -25.0190   -1.1110    9.6730 C.3   4633  SAM4633     0.0503
      8  SD       -25.0170   -0.4220   11.3210 S.3   4633  SAM4633    -0.1761
      9  CE       -25.1670    1.3350   10.9070 C.3   4633  SAM4633     0.0590
     10  C5'      -26.5770   -0.9950   12.0470 C.3   4633  SAM4633     0.0806
     11  C4'      -27.8460   -0.5400   11.3420 C.3   4633  SAM4633     0.1622
     12  O4'      -28.9270   -1.3550   11.7480 O.3   4633  SAM4633    -0.3153
     13  C3'      -28.1990    0.8850   11.7370 C.3   4633  SAM4633     0.2168
     14  O3'      -28.2250    1.6840   10.5800 O.3   4633  SAM4633    -0.2175
     15  C2'      -29.5690    0.7940   12.3800 C.3   4633  SAM4633     0.2569
     16  O2'      -30.4120    1.8360   11.9620 O.3   4633  SAM4633    -0.2130
     17  C1'      -30.0720   -0.5410   11.8600 C.3   4633  SAM4633     0.3185
     18  N9       -31.0460   -1.1740   12.7540 N.pl3 4633  SAM4633    -0.1439
     19  C8       -31.0200   -1.2820   14.1240 C.3   4633  SAM4633     0.3377
     20  N7       -32.1290   -1.9550   14.5080 N.2   4633  SAM4633    -0.2095
     21  C5       -32.8460   -2.2770   13.4100 C.2   4633  SAM4633     0.2526
     22  C6       -34.0420   -2.9550   13.2240 C.2   4633  SAM4633     0.4393
     23  N6       -34.7140   -3.4380   14.2660 N.pl3 4633  SAM4633     0.2180
     24  N1       -34.5310   -3.1140   11.9400 N.2   4633  SAM4633     0.0021
     25  C2       -33.8330   -2.6280   10.8610 C.3   4633  SAM4633     0.5254
     26  N3       -32.6420   -1.9630   11.0530 N.2   4633  SAM4633    -0.0055
     27  C4       -32.1740   -1.7870   12.3020 C.2   4633  SAM4633     0.3518
@<TRIPOS>BOND
     1     5     3   ar
     2     4     3   ar
     3     3     2    1
     4     2     1    1
     5     2     6    1
     6     6     7    1
     7     7     8    1
     8    14    13    1
     9    25    26    1
    10    25    24    1
    11     9     8    1
    12    26    27    2
    13     8    10    1
    14    11    13    1
    15    11    12    1
    16    11    10    1
    17    13    15    1
    18    12    17    1
    19    17    15    1
    20    17    18    1
    21    24    22    2
    22    16    15    1
    23    27    18    1
    24    27    21    1
    25    18    19    1
    26    22    21    1
    27    22    23    1
    28    21    20    2
    29    19    20    1
