@<TRIPOS>MOLECULE
3elw_SAM_A_1.pdb
 27 29 0 0 0
SMALL
GASTEIGER

@<TRIPOS>ATOM
      1  N        -22.9710    3.6520   -6.9840 N.3   4633  SAM4633    -0.1208
      2  CA       -23.4040    2.2480   -6.6960 C.3   4633  SAM4633     0.1952
      3  C        -22.4520    1.5540   -5.7370 C.2   4633  SAM4633     0.3819
      4  O        -21.3870    2.0980   -5.4410 O.co2 4633  SAM4633    -0.2441
      5  OXT      -22.7260    0.4490   -5.2380 O.co2 4633  SAM4633    -0.2441
      6  CB       -23.4790    1.4470   -7.9860 C.3   4633  SAM4633     0.0414
      7  CG       -24.7260    1.8200   -8.7740 C.3   4633  SAM4633     0.0503
      8  SD       -25.0750    0.6740  -10.1140 S.3   4633  SAM4633    -0.1761
      9  CE       -23.8640    1.2050  -11.3560 C.3   4633  SAM4633     0.0590
     10  C5'      -26.5890    1.3840  -10.8010 C.3   4633  SAM4633     0.0806
     11  C4'      -27.8240    0.9320  -10.0370 C.3   4633  SAM4633     0.1622
     12  O4'      -28.9190    1.7450  -10.4100 O.3   4633  SAM4633    -0.3153
     13  C3'      -28.2110   -0.5070  -10.3590 C.3   4633  SAM4633     0.2168
     14  O3'      -28.3260   -1.2430   -9.1660 O.3   4633  SAM4633    -0.2175
     15  C2'      -29.5750   -0.4120  -11.0080 C.3   4633  SAM4633     0.2569
     16  O2'      -30.4310   -1.4390  -10.5820 O.3   4633  SAM4633    -0.2130
     17  C1'      -30.0720    0.9330  -10.5010 C.3   4633  SAM4633     0.3185
     18  N9       -31.0820    1.5380  -11.3960 N.pl3 4633  SAM4633    -0.1439
     19  C8       -31.0960    1.5500  -12.7700 C.3   4633  SAM4633     0.3377
     20  N7       -32.2090    2.2080  -13.1760 N.2   4633  SAM4633    -0.2095
     21  C5       -32.8920    2.6220  -12.0840 C.2   4633  SAM4633     0.2526
     22  C6       -34.0740    3.3370  -11.9110 C.2   4633  SAM4633     0.4393
     23  N6       -34.7790    3.7610  -12.9550 N.pl3 4633  SAM4633     0.2180
     24  N1       -34.5210    3.6130  -10.6360 N.2   4633  SAM4633     0.0021
     25  C2       -33.8090    3.1880   -9.5340 C.3   4633  SAM4633     0.5254
     26  N3       -32.6430    2.4850   -9.7150 N.2   4633  SAM4633    -0.0055
     27  C4       -32.1880    2.2110  -10.9610 C.2   4633  SAM4633     0.3518
@<TRIPOS>BOND
     1    20    19    1
     2    20    21    2
     3    23    22    1
     4    19    18    1
     5    21    22    1
     6    21    27    1
     7    22    24    2
     8    18    27    1
     9    18    17    1
    10     9     8    1
    11    15    16    1
    12    15    17    1
    13    15    13    1
    14    27    26    2
    15    10     8    1
    16    10    11    1
    17    24    25    1
    18    17    12    1
    19    12    11    1
    20    13    11    1
    21    13    14    1
    22     8     7    1
    23    26    25    1
    24     7     6    1
    25     6     2    1
    26     1     2    1
    27     2     3    1
    28     3     4   ar
    29     3     5   ar
