@<TRIPOS>MOLECULE
3ely_SAH_A_1.pdb
 26 28 0 0 0
SMALL
GASTEIGER

@<TRIPOS>ATOM
      1  N        -23.4170   -2.8500    9.0710 N.3   887  SAH887     -0.1208
      2  CA       -23.8900   -1.4740    8.7690 C.3   887  SAH887      0.1952
      3  CB       -23.9500   -0.6830   10.0710 C.3   887  SAH887      0.0422
      4  CG       -25.3780   -0.7710   10.5970 C.3   887  SAH887      0.0597
      5  SD       -25.5540    0.2480   12.0110 S.3   887  SAH887     -0.1375
      6  C        -23.0290   -0.7680    7.7550 C.2   887  SAH887      0.3819
      7  O        -21.9590   -1.2570    7.3760 O.co2 887  SAH887     -0.2441
      8  OXT      -23.3770    0.3180    7.2760 O.co2 887  SAH887     -0.2441
      9  C5'      -26.9350   -0.4720   12.8430 C.3   887  SAH887      0.0899
     10  C4'      -28.2250    0.1690   12.3490 C.3   887  SAH887      0.1630
     11  O4'      -29.3480   -0.5510   12.8450 O.3   887  SAH887     -0.3153
     12  C3'      -28.4140    1.6130   12.8030 C.3   887  SAH887      0.2168
     13  O3'      -28.4380    2.4370   11.6340 O.3   887  SAH887     -0.2175
     14  C2'      -29.7680    1.6610   13.4800 C.3   887  SAH887      0.2569
     15  O2'      -30.5310    2.7660   13.0050 O.3   887  SAH887     -0.2130
     16  C1'      -30.4230    0.3750   13.0020 C.3   887  SAH887      0.3185
     17  N9       -31.4350   -0.1990   13.9240 N.pl3 887  SAH887     -0.1439
     18  C8       -31.3770   -0.2590   15.2640 C.3   887  SAH887      0.3377
     19  N7       -32.4890   -0.8830   15.7160 N.2   887  SAH887     -0.2095
     20  C5       -33.2400   -1.2140   14.6430 C.2   887  SAH887      0.2526
     21  C6       -34.4630   -1.8520   14.4840 C.2   887  SAH887      0.4393
     22  N6       -35.1550   -2.2840   15.5640 N.pl3 887  SAH887      0.2180
     23  N1       -34.9580   -2.0380   13.2400 N.2   887  SAH887      0.0021
     24  C2       -34.2810   -1.6140   12.1580 C.3   887  SAH887      0.5254
     25  N3       -33.1070   -0.9900   12.2860 N.2   887  SAH887     -0.0055
     26  C4       -32.5680   -0.7800   13.5140 C.2   887  SAH887      0.3518
@<TRIPOS>BOND
     1     8     6   ar
     2     7     6   ar
     3     6     2    1
     4     2     1    1
     5     2     3    1
     6     3     4    1
     7     4     5    1
     8    13    12    1
     9     5     9    1
    10    24    25    1
    11    24    23    1
    12    25    26    2
    13    10    12    1
    14    10     9    1
    15    10    11    1
    16    12    14    1
    17    11    16    1
    18    16    14    1
    19    16    17    1
    20    15    14    1
    21    23    21    2
    22    26    17    1
    23    26    20    1
    24    17    18    1
    25    21    20    1
    26    21    22    1
    27    20    19    2
    28    18    19    1
