@<TRIPOS>MOLECULE
3elz_CHD_A_1.pdb
 29 32 0 0 0
SMALL
GASTEIGER

@<TRIPOS>ATOM
      1  C1        -5.4590   -1.6330  -14.6400 C.3   150  CHD150      0.0026
      2  C2        -4.7890   -1.6020  -13.2550 C.3   150  CHD150      0.0329
      3  C3        -5.5340   -2.4810  -12.2540 C.3   150  CHD150      0.1520
      4  O3        -4.9360   -2.2740  -10.9760 O.3   150  CHD150     -0.2232
      5  C4        -7.0410   -2.1520  -12.1870 C.3   150  CHD150      0.0330
      6  C5        -7.7090   -2.0520  -13.5920 C.3   150  CHD150      0.0050
      7  C6        -9.1900   -1.6250  -13.4350 C.3   150  CHD150      0.0330
      8  C7        -9.4120   -0.1020  -13.2810 C.3   150  CHD150      0.1519
      9  O7        -9.1990    0.2910  -11.9240 O.3   150  CHD150     -0.2232
     10  C8        -8.5550    0.7600  -14.2410 C.3   150  CHD150      0.0306
     11  C9        -7.0640    0.3130  -14.2730 C.3   150  CHD150      0.0050
     12  C10       -6.9220   -1.1870  -14.6400 C.3   150  CHD150      0.0004
     13  C11       -6.1470    1.2370  -15.1420 C.3   150  CHD150      0.0330
     14  C12       -6.3290    2.7320  -14.8240 C.3   150  CHD150      0.1519
     15  O12       -5.7570    3.0310  -13.5490 O.3   150  CHD150     -0.2232
     16  C13       -7.8120    3.1500  -14.8600 C.3   150  CHD150      0.0282
     17  C14       -8.6160    2.2460  -13.8830 C.3   150  CHD150      0.0048
     18  C15      -10.0040    2.8980  -13.8830 C.3   150  CHD150      0.0002
     19  C16       -9.6600    4.3990  -13.8740 C.3   150  CHD150      0.0001
     20  C17       -8.1150    4.4770  -14.1300 C.3   150  CHD150      0.0024
     21  C18       -8.3400    3.1310  -16.3230 C.3   150  CHD150      0.0025
     22  C19       -7.4900   -1.4360  -16.0630 C.3   150  CHD150      0.0000
     23  C20       -7.7010    5.7960  -14.8360 C.3   150  CHD150      0.0006
     24  C21       -6.2210    5.9390  -15.2580 C.3   150  CHD150      0.0000
     25  C22       -8.0820    6.9680  -13.9530 C.3   150  CHD150      0.0118
     26  C23       -8.9880    7.8300  -14.8280 C.3   150  CHD150      0.1141
     27  O25      -10.2230    9.3240  -13.5730 O.co2 150  CHD150     -0.2457
     28  C24      -10.2460    8.1860  -14.0730 C.2   150  CHD150      0.3649
     29  O26      -11.1800    7.3320  -14.0180 O.co2 150  CHD150     -0.2457
@<TRIPOS>BOND
     1    21    16    1
     2    22    12    1
     3    24    23    1
     4    13    14    1
     5    13    11    1
     6    16    14    1
     7    16    20    1
     8    16    17    1
     9    23    20    1
    10    23    25    1
    11    26    28    1
    12    26    25    1
    13    14    15    1
    14    12     1    1
    15    12    11    1
    16    12     6    1
    17     1     2    1
    18    11    10    1
    19    10    17    1
    20    10     8    1
    21    20    19    1
    22    28    29   ar
    23    28    27   ar
    24    17    18    1
    25    18    19    1
    26     6     7    1
    27     6     5    1
    28     7     8    1
    29     8     9    1
    30     2     3    1
    31     3     5    1
    32     3     4    1
