@<TRIPOS>MOLECULE
3em0_CHD_A_1.pdb
 29 32 0 0 0
SMALL
GASTEIGER

@<TRIPOS>ATOM
      1  C1       -20.3080   -0.0060  -15.2030 C.3   150  CHD150      0.0026
      2  C2       -19.9710   -0.5210  -16.6200 C.3   150  CHD150      0.0329
      3  C3       -18.6900   -1.3690  -16.6150 C.3   150  CHD150      0.1520
      4  O3       -18.3130   -1.6720  -17.9400 O.3   150  CHD150     -0.2232
      5  C4       -17.5310   -0.6030  -16.0120 C.3   150  CHD150      0.0330
      6  C5       -17.8360   -0.1180  -14.5900 C.3   150  CHD150      0.0050
      7  C6       -16.5650    0.5950  -14.0450 C.3   150  CHD150      0.0330
      8  C7       -16.3290    1.9640  -14.7170 C.3   150  CHD150      0.1519
      9  O7       -16.0090    1.7920  -16.1110 O.3   150  CHD150     -0.2232
     10  C8       -17.5800    2.8560  -14.5510 C.3   150  CHD150      0.0306
     11  C9       -18.8990    2.1750  -15.0740 C.3   150  CHD150      0.0050
     12  C10      -19.1410    0.7390  -14.4920 C.3   150  CHD150      0.0004
     13  C11      -20.1480    3.0950  -14.9050 C.3   150  CHD150      0.0330
     14  C12      -19.9010    4.5430  -15.3920 C.3   150  CHD150      0.1519
     15  O12      -19.8870    4.5520  -16.8180 O.3   150  CHD150     -0.2232
     16  C13      -18.5960    5.1810  -14.8220 C.3   150  CHD150      0.0282
     17  C14      -17.4080    4.2720  -15.1660 C.3   150  CHD150      0.0048
     18  C15      -16.2230    5.1160  -14.6560 C.3   150  CHD150      0.0002
     19  C16      -16.5830    6.5220  -15.1810 C.3   150  CHD150      0.0001
     20  C17      -18.0810    6.4480  -15.5910 C.3   150  CHD150      0.0024
     21  C18      -18.7140    5.4380  -13.2970 C.3   150  CHD150      0.0025
     22  C19      -19.5130    0.8220  -13.0130 C.3   150  CHD150      0.0000
     23  C20      -18.8170    7.7980  -15.3380 C.3   150  CHD150      0.0006
     24  C21      -20.3510    7.6920  -15.3570 C.3   150  CHD150      0.0000
     25  C22      -18.3710    8.8630  -16.3470 C.3   150  CHD150      0.0118
     26  C23      -18.6980   10.2900  -15.8790 C.3   150  CHD150      0.1141
     27  O25      -16.7850   10.4420  -14.4500 O.co2 150  CHD150     -0.2457
     28  C24      -18.0040   10.6740  -14.5630 C.2   150  CHD150      0.3649
     29  O26      -18.7160   11.1990  -13.6850 O.co2 150  CHD150     -0.2457
@<TRIPOS>BOND
     1     4     3    1
     2    15    14    1
     3     2     3    1
     4     2     1    1
     5     3     5    1
     6    25    26    1
     7    25    23    1
     8     9     8    1
     9     5     6    1
    10    26    28    1
    11    20    23    1
    12    20    19    1
    13    20    16    1
    14    14    13    1
    15    14    16    1
    16    24    23    1
    17     1    12    1
    18    19    18    1
    19    17    16    1
    20    17    18    1
    21    17    10    1
    22    11    13    1
    23    11    10    1
    24    11    12    1
    25    16    21    1
    26     8    10    1
    27     8     7    1
    28     6    12    1
    29     6     7    1
    30    28    27   ar
    31    28    29   ar
    32    12    22    1
