@<TRIPOS>MOLECULE
3em1_TYD_A_1.pdb
 25 26 0 0 0
SMALL
GASTEIGER

@<TRIPOS>ATOM
      1  PA        53.0300   10.4110   34.0270 P.3   143  TYD143      0.2231
      2  O1A       52.3550    9.9770   35.3060 O.3   143  TYD143     -0.4370
      3  O2A       54.1660   11.3650   34.0550 O.2   143  TYD143     -0.5169
      4  O3A       51.8040   10.9560   33.0970 O.3   143  TYD143     -0.2261
      5  PB        51.6010   12.1750   32.0490 P.3   143  TYD143      0.5373
      6  O1B       51.9530   11.6060   30.7240 O.2   143  TYD143     -0.2221
      7  O2B       52.4660   13.3170   32.5040 O.3   143  TYD143     -0.1143
      8  O3B       50.1330   12.4090   32.2030 O.3   143  TYD143     -0.1143
      9  O5'       53.4550    9.0920   33.2590 O.3   143  TYD143     -0.3111
     10  C5'       54.3430    9.1280   32.1360 C.3   143  TYD143      0.1812
     11  C4'       53.8740    8.0980   31.1350 C.3   143  TYD143      0.1773
     12  O4'       53.9690    6.7870   31.7220 O.3   143  TYD143     -0.3339
     13  C3'       52.4030    8.1660   30.7450 C.3   143  TYD143      0.1857
     14  O3'       52.1550    9.1280   29.7090 O.3   143  TYD143     -0.2203
     15  C2'       52.0770    6.7550   30.2870 C.3   143  TYD143      0.0874
     16  C1'       53.0080    5.9160   31.1720 C.3   143  TYD143      0.2090
     17  N1        52.2600    5.3010   32.2780 N.am  143  TYD143     -0.1794
     18  C2        51.8540    3.9640   32.1420 C.1   143  TYD143      0.2844
     19  O2        52.1250    3.3230   31.1220 O.2   143  TYD143     -0.1918
     20  N3        51.1610    3.3930   33.1440 N.2   143  TYD143     -0.2455
     21  C4        50.8550    4.0630   34.2510 C.1   143  TYD143      0.2134
     22  O4        50.2140    3.4960   35.1950 O.2   143  TYD143     -0.2088
     23  C5        51.2630    5.4690   34.4090 C.2   143  TYD143      0.0891
     24  C5M       50.9360    6.2570   35.6450 C.3   143  TYD143      0.0462
     25  C6        51.9990    6.0330   33.3740 C.2   143  TYD143      0.0877
@<TRIPOS>BOND
     1    14    13    1
     2    15    13    1
     3    15    16    1
     4     6     5    2
     5    13    11    1
     6    19    18    2
     7    11    12    1
     8    11    10    1
     9    16    12    1
    10    16    17    1
    11     5     8    1
    12     5     7    1
    13     5     4    1
    14    10     9    1
    15    18    17   am
    16    18    20    2
    17    17    25    1
    18     4     1    1
    19    20    21    2
    20     9     1    1
    21    25    23    2
    22     1     3    2
    23     1     2    1
    24    21    23    1
    25    21    22    2
    26    23    24    1
