@<TRIPOS>MOLECULE
3em3_478_B_1.pdb
 35 37 0 0 0
SMALL
GASTEIGER

@<TRIPOS>ATOM
      1  C1        24.4120    2.5790   19.9270 C.3   200  478200      0.1856
      2  C2        24.8390    0.6400   18.5600 C.3   200  478200      0.0784
      3  C3        21.8620    0.3420   18.3770 C.2   200  478200      0.4211
      4  C4        23.8440    1.2310   19.5310 C.3   200  478200      0.2024
      5  C5        19.9120   -0.1240   16.9160 C.3   200  478200      0.1347
      6  C6        20.2390   -0.5220   15.4740 C.3   200  478200      0.1898
      7  C7        18.5820    0.6390   17.0090 C.3   200  478200      0.0508
      8  C8        18.3800    1.0640   18.4400 C.ar  200  478200     -0.0204
      9  C9        18.5740    2.3880   18.8090 C.ar  200  478200     -0.0042
     10  C10       18.0110    0.1270   19.3920 C.ar  200  478200     -0.0042
     11  C11       18.4160    2.7650   20.1320 C.ar  200  478200     -0.0003
     12  C12       17.8420    0.5120   20.7200 C.ar  200  478200     -0.0003
     13  C13       18.0500    1.8320   21.0980 C.ar  200  478200     -0.0000
     14  C14       19.3170   -1.6070   14.9120 C.3   200  478200      0.1304
     15  C15       20.1950   -3.8820   14.5910 C.3   200  478200      0.0958
     16  C16       21.7120   -3.7090   14.4570 C.3   200  478200      0.0178
     17  C17       17.3430   -4.2640   15.5160 C.ar  200  478200      0.1223
     18  C18       16.2240   -3.5330   15.1190 C.ar  200  478200      0.0213
     19  C19       15.2110   -4.0930   14.3670 C.ar  200  478200      0.0194
     20  C20       15.2950   -5.4220   14.0000 C.ar  200  478200      0.0892
     21  C21       16.3800   -6.1920   14.4070 C.ar  200  478200      0.0194
     22  C22       17.3980   -5.6160   15.1650 C.ar  200  478200      0.0213
     23  C23       22.3660   -3.6710   15.8290 C.3   200  478200      0.0015
     24  C24       22.3330   -4.8320   13.6200 C.3   200  478200      0.0015
     25  C25       26.0240    1.5800   18.5870 C.3   200  478200      0.1461
     26  N1        20.9850    0.7070   17.4450 N.am  200  478200     -0.1675
     27  N2        19.6650   -2.8880   15.5480 N.3   200  478200     -0.1529
     28  N3        14.2940   -5.9250   13.2500 N.pl3 200  478200     -0.1281
     29  O1        22.5890    1.4810   18.9140 O.3   200  478200     -0.4346
     30  O2        22.0320   -0.7780   18.8400 O.2   200  478200     -0.2246
     31  O3        20.1370    0.6370   14.6470 O.3   200  478200     -0.2197
     32  O4        17.7780   -2.4480   17.1190 O.2   200  478200     -0.1528
     33  O5        19.0160   -4.3510   17.4360 O.2   200  478200     -0.1528
     34  O6        25.6000    2.8020   19.1740 O.3   200  478200     -0.3498
     35  S1        18.4530   -3.5060   16.4190 S.O2  200  478200      0.0634
@<TRIPOS>BOND
     1    28    20    1
     2    24    16    1
     3    20    19   ar
     4    20    21   ar
     5    19    18   ar
     6    21    22   ar
     7    16    15    1
     8    16    23    1
     9    15    27    1
    10    31     6    1
    11    14     6    1
    12    14    27    1
    13    18    17   ar
    14    22    17   ar
    15     6     5    1
    16    17    35    1
    17    27    35    1
    18    35    32    2
    19    35    33    2
    20     5     7    1
    21     5    26    1
    22     7     8    1
    23    26     3   am
    24     3    30    2
    25     3    29    1
    26     8     9   ar
    27     8    10   ar
    28     2    25    1
    29     2     4    1
    30    25    34    1
    31     9    11   ar
    32    29     4    1
    33    34     1    1
    34    10    12   ar
    35     4     1    1
    36    11    13   ar
    37    12    13   ar
