@<TRIPOS>MOLECULE
3em6_017_A_1.pdb
 38 41 0 0 0
SMALL
GASTEIGER

@<TRIPOS>ATOM
      1  N1        14.3940   -5.9700   13.3150 N.pl3 200  017200     -0.1281
      2  C2        15.3430   -5.3800   14.0800 C.ar  200  017200      0.0892
      3  C3        16.4650   -6.0980   14.4880 C.ar  200  017200      0.0194
      4  C4        17.4340   -5.4810   15.2770 C.ar  200  017200      0.0213
      5  C5        17.2770   -4.1580   15.6880 C.ar  200  017200      0.1223
      6  C6        16.1550   -3.4520   15.2570 C.ar  200  017200      0.0213
      7  C7        15.1800   -4.0610   14.4740 C.ar  200  017200      0.0194
      8  S8        18.3930   -3.4030   16.5570 S.O2  200  017200      0.0634
      9  O9        19.0550   -4.3200   17.4370 O.2   200  017200     -0.1528
     10  O10       17.7120   -2.3560   17.3400 O.2   200  017200     -0.1528
     11  N11       19.2410   -2.8630   15.4020 N.3   200  017200     -0.1529
     12  C12       20.1220   -3.7360   14.6180 C.3   200  017200      0.0958
     13  C13       21.5880   -3.4880   14.9910 C.3   200  017200      0.0178
     14  C14       21.9950   -3.6720   16.4500 C.3   200  017200      0.0015
     15  C15       22.4370   -4.3690   14.0720 C.3   200  017200      0.0015
     16  C16       19.0530   -1.4910   14.9430 C.3   200  017200      0.1304
     17  C17       20.0910   -0.5140   15.4850 C.3   200  017200      0.1898
     18  O18       20.0980    0.6250   14.6300 O.3   200  017200     -0.2197
     19  C19       19.8470   -0.0830   16.9280 C.3   200  017200      0.1347
     20  N20       20.9800    0.7380   17.2950 N.am  200  017200     -0.1675
     21  C21       21.8970    0.4420   18.2100 C.2   200  017200      0.4211
     22  O22       22.0020   -0.6080   18.8190 O.2   200  017200     -0.2246
     23  O23       22.8500    1.5150   18.4240 O.3   200  017200     -0.4345
     24  C24       23.7260    1.4260   19.5410 C.3   200  017200      0.2048
     25  C25       25.0560    1.9730   19.0580 C.3   200  017200      0.1884
     26  O26       24.9460    3.3850   19.2360 O.3   200  017200     -0.3265
     27  C27       24.0150    3.6810   20.2860 C.3   200  017200      0.2388
     28  O28       23.0040    4.6020   19.8710 O.3   200  017200     -0.3304
     29  C29       21.6950    4.0330   19.9730 C.3   200  017200      0.1451
     30  C30       21.8330    2.7180   20.7220 C.3   200  017200      0.0409
     31  C31       23.3140    2.3840   20.6430 C.3   200  017200      0.1016
     32  C32       18.5500    0.7070   17.0980 C.3   200  017200      0.0508
     33  C33       18.4220    2.5340   18.8300 C.ar  200  017200     -0.0042
     34  C34       18.2580    2.9570   20.1420 C.ar  200  017200     -0.0003
     35  C35       18.0490    2.0300   21.1570 C.ar  200  017200     -0.0000
     36  C36       18.0120    0.6750   20.8530 C.ar  200  017200     -0.0003
     37  C37       18.1700    0.2470   19.5380 C.ar  200  017200     -0.0042
     38  C38       18.3830    1.1750   18.5260 C.ar  200  017200     -0.0204
@<TRIPOS>BOND
     1     1     2    1
     2    15    13    1
     3     2     7   ar
     4     2     3   ar
     5     7     6   ar
     6     3     4   ar
     7    12    13    1
     8    12    11    1
     9    18    17    1
    10    16    11    1
    11    16    17    1
    12    13    14    1
    13     6     5   ar
    14     4     5   ar
    15    11     8    1
    16    17    19    1
    17     5     8    1
    18     8    10    2
    19     8     9    2
    20    19    32    1
    21    19    20    1
    22    32    38    1
    23    20    21   am
    24    21    23    1
    25    21    22    2
    26    23    24    1
    27    38    33   ar
    28    38    37   ar
    29    33    34   ar
    30    25    26    1
    31    25    24    1
    32    26    27    1
    33    37    36   ar
    34    24    31    1
    35    28    29    1
    36    28    27    1
    37    29    30    1
    38    34    35   ar
    39    27    31    1
    40    31    30    1
    41    36    35   ar
