@<TRIPOS>MOLECULE
3emb_SAM_A_1.pdb
 27 29 0 0 0
SMALL
GASTEIGER

@<TRIPOS>ATOM
      1  N        -14.9050    3.3650   12.4850 N.3   4633  SAM4633    -0.1208
      2  CA       -15.2450    4.8080   12.2320 C.3   4633  SAM4633     0.1952
      3  C        -14.1530    5.5290   11.4390 C.2   4633  SAM4633     0.3819
      4  O        -13.0120    5.0740   11.4090 O.co2 4633  SAM4633    -0.2441
      5  OXT      -14.3740    6.5680   10.8040 O.co2 4633  SAM4633    -0.2441
      6  CB       -15.5240    5.5440   13.5390 C.3   4633  SAM4633     0.0414
      7  CG       -16.9420    5.2950   14.0380 C.3   4633  SAM4633     0.0503
      8  SD       -17.4080    6.2040   15.5270 S.3   4633  SAM4633    -0.1761
      9  CE       -16.2240    5.5750   16.7510 C.3   4633  SAM4633     0.0590
     10  C5'      -18.8820    5.3230   16.0970 C.3   4633  SAM4633     0.0806
     11  C4'      -20.1420    5.7430   15.3530 C.3   4633  SAM4633     0.1622
     12  O4'      -21.1900    4.8330   15.6440 O.3   4633  SAM4633    -0.3153
     13  C3'      -20.6180    7.1360   15.7600 C.3   4633  SAM4633     0.2168
     14  O3'      -20.4980    8.0210   14.6710 O.3   4633  SAM4633    -0.2175
     15  C2'      -22.0620    6.9300   16.1860 C.3   4633  SAM4633     0.2569
     16  O2'      -22.9360    7.9030   15.6840 O.3   4633  SAM4633    -0.2130
     17  C1'      -22.3950    5.5640   15.6020 C.3   4633  SAM4633     0.3185
     18  N9       -23.4660    4.8930   16.3520 N.pl3 4633  SAM4633    -0.1439
     19  C8       -23.6820    4.8660   17.7120 C.3   4633  SAM4633     0.3377
     20  N7       -24.7870    4.1220   17.9460 N.2   4633  SAM4633    -0.2095
     21  C5       -25.2760    3.6700   16.7610 C.2   4633  SAM4633     0.2526
     22  C6       -26.3800    2.8910   16.4100 C.2   4633  SAM4633     0.4393
     23  N6       -27.2340    2.3900   17.3220 N.pl3 4633  SAM4633     0.2180
     24  N1       -26.5840    2.6270   15.0710 N.2   4633  SAM4633     0.0021
     25  C2       -25.7390    3.1090   14.0970 C.3   4633  SAM4633     0.5254
     26  N3       -24.6670    3.8770   14.4450 N.2   4633  SAM4633    -0.0055
     27  C4       -24.4440    4.1490   15.7520 C.2   4633  SAM4633     0.3518
@<TRIPOS>BOND
     1     5     3   ar
     2     4     3   ar
     3     3     2    1
     4     2     1    1
     5     2     6    1
     6     6     7    1
     7     7     8    1
     8    25    26    1
     9    25    24    1
    10    26    27    2
    11    14    13    1
    12    24    22    2
    13    11    12    1
    14    11    13    1
    15    11    10    1
    16     8    10    1
    17     8     9    1
    18    17    12    1
    19    17    15    1
    20    17    18    1
    21    16    15    1
    22    27    18    1
    23    27    21    1
    24    13    15    1
    25    18    19    1
    26    22    21    1
    27    22    23    1
    28    21    20    2
    29    19    20    1
