@<TRIPOS>MOLECULE
3emd_GTA_A_1.pdb
 29 31 0 0 0
SMALL
GASTEIGER

@<TRIPOS>ATOM
      1  N2         8.7870   13.6720   35.6670 N.pl3 401  GTA401     -0.0226
      2  O6         7.5960   16.7900   32.4670 O.2   401  GTA401     -0.2115
      3  C6         7.5950   15.6050   32.8760 C.1   401  GTA401      0.2145
      4  C5         6.9620   14.5170   32.1110 C.3   401  GTA401      0.2475
      5  N7         6.3120   14.4590   30.9470 N.3   401  GTA401     -0.2343
      6  C7         5.9570   15.5000   29.9540 C.3   401  GTA401      0.0924
      7  C8         5.8370   13.1420   30.5560 C.3   401  GTA401      0.1735
      8  N9         6.3470   12.4410   31.7430 N.pl3 401  GTA401     -0.2454
      9  C4         6.9960   13.1540   32.6520 C.2   401  GTA401      0.2086
     10  N3         7.6100   12.9230   33.8310 N.2   401  GTA401     -0.3118
     11  C2         8.1840   13.9570   34.4910 C.1   401  GTA401      0.2525
     12  N1         8.1750   15.2340   34.0300 N.2   401  GTA401     -0.2526
     13  O3A        3.2900    9.1410   30.4870 O.3   401  GTA401     -0.2175
     14  C1A        6.1380   10.9690   31.7970 C.3   401  GTA401      0.2287
     15  C2A        4.6980   10.5110   31.9300 C.3   401  GTA401      0.2310
     16  C3A        4.3390   10.1090   30.5170 C.3   401  GTA401      0.2158
     17  C4A        5.6610    9.5870   29.9660 C.3   401  GTA401      0.1799
     18  C5A        5.7970    9.7100   28.4580 C.3   401  GTA401      0.1813
     19  O4A        6.6660   10.3860   30.5990 O.3   401  GTA401     -0.3326
     20  O2A        4.6790    9.3570   32.7760 O.3   401  GTA401     -0.2158
     21  P1         6.1940   11.7390   26.8030 P.3   401  GTA401      0.2231
     22  O11        7.6320   11.2970   26.6640 O.2   401  GTA401     -0.5169
     23  O12        5.8760   13.2110   26.8720 O.3   401  GTA401     -0.4370
     24  O13        5.3490   11.0540   25.6190 O.3   401  GTA401     -0.2261
     25  O15        5.5500   11.0630   28.1060 O.3   401  GTA401     -0.3111
     26  P2         3.8250   11.4570   25.3020 P.3   401  GTA401      0.5373
     27  O22        3.0770   11.5890   26.6070 O.3   401  GTA401     -0.1143
     28  O21        3.3250   10.5160   24.2320 O.2   401  GTA401     -0.2221
     29  O23        3.9610   12.9220   24.6470 O.3   401  GTA401     -0.1143
@<TRIPOS>BOND
     1    28    26    2
     2    29    26    1
     3    26    24    1
     4    26    27    1
     5    24    21    1
     6    22    21    2
     7    21    23    1
     8    21    25    1
     9    25    18    1
    10    18    17    1
    11     6     5    1
    12    17    16    1
    13    17    19    1
    14    13    16    1
    15    16    15    1
    16     7     5    1
    17     7     8    1
    18    19    14    1
    19     5     4    1
    20     8    14    1
    21     8     9    1
    22    14    15    1
    23    15    20    1
    24     4     9    1
    25     4     3    1
    26     2     3    2
    27     9    10    2
    28     3    12    2
    29    10    11    2
    30    12    11    2
    31    11     1    1
