@<TRIPOS>MOLECULE
3emd_SFG_A_1.pdb
 27 29 0 0 0
SMALL
GASTEIGER

@<TRIPOS>ATOM
      1  N          3.8100    3.5790   12.8390 N.3   293  SFG293     -0.1208
      2  CA         3.3940    4.9880   12.5340 C.3   293  SFG293      0.1944
      3  C          4.4660    5.6870   11.7320 C.2   293  SFG293      0.3819
      4  O          5.5710    5.1670   11.5460 O.co2 293  SFG293     -0.2441
      5  OXT        4.2800    6.7890   11.2180 O.co2 293  SFG293     -0.2441
      6  CB         3.0670    5.7330   13.8340 C.3   293  SFG293      0.0321
      7  CG         1.7060    5.2840   14.3860 C.3   293  SFG293      0.0212
      8  CD         1.2030    6.0410   15.6140 C.3   293  SFG293      0.0944
      9  NE         2.1590    5.8790   16.6960 N.3   293  SFG293     -0.1328
     10  C5'       -0.0930    5.4020   16.1050 C.3   293  SFG293      0.0514
     11  C4'       -1.3480    5.9060   15.3870 C.3   293  SFG293      0.1537
     12  O4'       -2.4900    5.0790   15.6620 O.3   293  SFG293     -0.3161
     13  C3'       -1.7290    7.3100   15.8320 C.3   293  SFG293      0.2159
     14  O3'       -1.6630    8.1560   14.6870 O.3   293  SFG293     -0.2175
     15  C2'       -3.1640    7.2080   16.3120 C.3   293  SFG293      0.2569
     16  O2'       -3.9810    8.3090   15.9010 O.3   293  SFG293     -0.2130
     17  C1'       -3.6400    5.9230   15.6590 C.3   293  SFG293      0.3185
     18  N9        -4.7360    5.2850   16.4210 N.pl3 293  SFG293     -0.1439
     19  C8        -4.9270    5.3210   17.7590 C.3   293  SFG293      0.3377
     20  N7        -6.0330    4.6110   18.1000 N.2   293  SFG293     -0.2095
     21  C5        -6.5550    4.1050   16.9600 C.2   293  SFG293      0.2526
     22  C6        -7.7240    3.2760   16.5950 C.2   293  SFG293      0.4393
     23  N6        -8.5770    2.8260   17.5560 N.pl3 293  SFG293      0.2180
     24  N1        -7.9000    2.9870   15.2790 N.2   293  SFG293      0.0021
     25  C2        -7.0660    3.4270   14.3150 C.3   293  SFG293      0.5254
     26  N3        -5.9960    4.1960   14.5750 N.2   293  SFG293     -0.0055
     27  C4        -5.6990    4.5560   15.8540 C.2   293  SFG293      0.3518
@<TRIPOS>BOND
     1     5     3   ar
     2     4     3   ar
     3     3     2    1
     4     2     1    1
     5     2     6    1
     6     6     7    1
     7    25    26    1
     8    25    24    1
     9     7     8    1
    10    26    27    2
    11    14    13    1
    12    24    22    2
    13    11    12    1
    14    11    13    1
    15    11    10    1
    16     8    10    1
    17     8     9    1
    18    17    12    1
    19    17    15    1
    20    17    18    1
    21    13    15    1
    22    27    18    1
    23    27    21    1
    24    16    15    1
    25    18    19    1
    26    22    21    1
    27    22    23    1
    28    21    20    2
    29    19    20    1
