@<TRIPOS>MOLECULE
3emg_685_A_1.pdb
 28 30 0 0 0
SMALL
GASTEIGER

@<TRIPOS>ATOM
      1  C1        15.7190   39.6340    6.3370 C.3   685  685685      0.0262
      2  C2        14.5590   38.8840    6.9040 C.3   685  685685      0.1283
      3  C4        15.1970   37.6190    7.2780 C.3   685  685685      0.2036
      4  O5        15.2430   37.1750    5.9480 O.3   685  685685     -0.2185
      5  N6        13.9660   39.5200    8.0260 N.am  685  685685     -0.2034
      6  C7        12.7120   39.6910    8.1220 C.2   685  685685      0.2580
      7  O8        12.1050   39.2640    7.2770 O.2   685  685685     -0.2720
      8  C9        12.1660   40.3430    9.3120 C.3   685  685685      0.1796
      9  S10       12.7940   41.7140   10.0650 S.3   685  685685     -0.0645
     10  C11       11.6680   41.7020   11.1760 C.2   685  685685      0.1874
     11  N12       10.9430   40.7210   11.0000 N.2   685  685685     -0.4003
     12  C13       11.1030   39.9920   10.0550 C.2   685  685685      0.1067
     13  C14       10.1970   38.8610    9.8350 C.3   685  685685      0.0629
     14  C15       11.5740   42.6030   12.2620 C.2   685  685685      0.1810
     15  C16       10.5490   42.6030   13.1230 C.2   685  685685      0.0577
     16  C17       10.6700   43.4750   14.1260 C.2   685  685685      0.1145
     17  N18       11.6530   44.2590   14.2790 N.2   685  685685     -0.1683
     18  C19       12.6110   44.1580   13.4980 C.1   685  685685      0.1697
     19  N20       13.6640   44.9360   13.7070 N.pl3 685  685685     -0.1358
     20  C21       14.8490   44.9240   13.0370 C.ar  685  685685      0.0819
     21  C22       15.1010   44.1790   11.9450 C.ar  685  685685      0.0131
     22  C23       16.3550   44.2380   11.3560 C.ar  685  685685     -0.0208
     23  C24       16.7570   43.4330   10.1780 C.3   685  685685      0.0311
     24  C25       17.2970   45.0740   11.8300 C.ar  685  685685     -0.0084
     25  C26       17.0420   45.8220   12.9190 C.ar  685  685685     -0.0208
     26  C27       18.1270   46.6820   13.4620 C.3   685  685685      0.0311
     27  C28       15.8300   45.7480   13.5260 C.ar  685  685685      0.0131
     28  N29       12.5870   43.3520   12.5060 N.2   685  685685     -0.3330
@<TRIPOS>BOND
     1     4     3    1
     2     1     2    1
     3     2     3    1
     4     2     5    1
     5     7     6    2
     6     5     6   am
     7     6     8    1
     8     8    12    1
     9     8     9    1
    10    13    12    1
    11    12    11    2
    12     9    10    1
    13    23    22    1
    14    11    10    2
    15    10    14    1
    16    22    24   ar
    17    22    21   ar
    18    24    25   ar
    19    21    20   ar
    20    14    28    2
    21    14    15    1
    22    28    18    2
    23    25    26    1
    24    25    27   ar
    25    20    27   ar
    26    20    19    1
    27    15    16    2
    28    18    19    1
    29    18    17    2
    30    16    17    1
