@<TRIPOS>MOLECULE
3emh_III_B_1.pdb
 47 47 0 0 0
SMALL
GASTEIGER

@<TRIPOS>ATOM
      1  N        -11.0330  -29.4700   -7.2430 N.3     1  ALA1       -0.1231
      2  CA       -11.5000  -28.0760   -7.4810 C.3     1  ALA1        0.1694
      3  C        -13.0230  -27.9930   -7.4510 C.2     1  ALA1        0.2592
      4  O        -13.7140  -29.0100   -7.4680 O.2     1  ALA1       -0.2718
      5  CB       -10.9710  -27.5660   -8.8160 C.3     1  ALA1        0.0304
      6  N        -13.5290  -26.7660   -7.4200 N.am    2  ARG2       -0.1966
      7  CA       -14.9610  -26.4930   -7.3580 C.3     2  ARG2        0.1729
      8  C        -15.8180  -27.2780   -8.3460 C.2     2  ARG2        0.2616
      9  O        -16.9610  -27.6200   -8.0450 O.2     2  ARG2       -0.2715
     10  CB       -15.1940  -24.9930   -7.5520 C.3     2  ARG2        0.0348
     11  CG       -16.6080  -24.5230   -7.2400 C.3     2  ARG2        0.0492
     12  CD       -16.7220  -23.0200   -7.4350 C.3     2  ARG2        0.2205
     13  NE       -15.8370  -22.2760   -6.5400 N.pl3   2  ARG2       -0.0865
     14  CZ       -16.1990  -21.7900   -5.3590 C.cat   2  ARG2        0.5346
     15  NH1      -17.4390  -21.9660   -4.9200 N.pl3   2  ARG2        0.1354
     16  NH2      -15.3220  -21.1290   -4.6140 N.pl3   2  ARG2        0.1354
     17  N        -15.2690  -27.5600   -9.5240 N.am    3  ALA3       -0.1963
     18  CA       -16.0020  -28.2920  -10.5500 C.3     3  ALA3        0.1728
     19  C        -16.2390  -29.7590  -10.1930 C.2     3  ALA3        0.2616
     20  O        -16.9740  -30.4590  -10.8910 O.2     3  ALA3       -0.2715
     21  CB       -15.2660  -28.1910  -11.8820 C.3     3  ALA3        0.0334
     22  N        -15.6180  -30.2200   -9.1100 N.am    4  GLU4       -0.1963
     23  CA       -15.7620  -31.6040   -8.6630 C.3     4  GLU4        0.1733
     24  C        -16.4910  -31.6700   -7.3230 C.2     4  GLU4        0.2616
     25  O        -16.3380  -30.7850   -6.4810 O.2     4  GLU4       -0.2715
     26  CB       -14.3860  -32.2590   -8.5160 C.3     4  GLU4        0.0429
     27  CG       -13.5640  -32.2950   -9.7920 C.3     4  GLU4        0.1163
     28  CD       -12.1870  -32.8910   -9.5720 C.2     4  GLU4        0.3649
     29  OE1      -12.1080  -34.0430   -9.0950 O.co2   4  GLU4       -0.2457
     30  OE2      -11.1850  -32.2090   -9.8760 O.co2   4  GLU4       -0.2457
     31  N        -17.2750  -32.7250   -7.1260 N.am    5  VAL5       -0.1963
     32  CA       -18.0230  -32.8980   -5.8840 C.3     5  VAL5        0.1727
     33  C        -17.1240  -33.4000   -4.7570 C.2     5  VAL5        0.2616
     34  O        -16.2800  -34.2700   -4.9680 O.2     5  VAL5       -0.2715
     35  CB       -19.1830  -33.9060   -6.0650 C.3     5  VAL5        0.0290
     36  CG1      -19.9320  -34.0800   -4.7550 C.3     5  VAL5        0.0023
     37  CG2      -20.1270  -33.4270   -7.1540 C.3     5  VAL5        0.0023
     38  N        -17.3020  -32.8430   -3.5620 N.am    6  HIS6       -0.1973
     39  CA       -16.5150  -33.2580   -2.4060 C.3     6  HIS6        0.1652
     40  C        -17.3290  -34.2140   -1.5420 C.2     6  HIS6        0.2291
     41  O        -16.8770  -35.3620   -1.3440 O.2     6  HIS6       -0.2864
     42  CB       -16.1000  -32.0490   -1.5620 C.3     6  HIS6        0.0731
     43  CG       -15.4120  -32.4180   -0.2830 C.2     6  HIS6        0.0652
     44  ND1      -14.2140  -33.0980   -0.2530 N.2     6  HIS6       -0.2310
     45  CD2      -15.7690  -32.2280    1.0090 C.3     6  HIS6        0.1683
     46  CE1      -13.8620  -33.3110    1.0030 C.2     6  HIS6        0.1939
     47  NE2      -14.7890  -32.7940    1.7890 N.2     6  HIS6       -0.2440
@<TRIPOS>BOND
     1    21    18    1
     2    20    19    2
     3    18    19    1
     4    18    17    1
     5    19    22   am
     6    30    28   ar
     7    27    28    1
     8    27    26    1
     9    28    29   ar
    10    17     8   am
    11    22    23    1
    12     5     2    1
    13    23    26    1
    14    23    24    1
    15     8     9    2
    16     8     7    1
    17    10     7    1
    18    10    11    1
    19     2     3    1
    20     2     1    1
    21     4     3    2
    22     3     6   am
    23    12    11    1
    24    12    13    1
    25     6     7    1
    26    24    31   am
    27    24    25    2
    28    37    35    1
    29    31    32    1
    30    13    14    2
    31    35    32    1
    32    35    36    1
    33    32    33    1
    34    14    15    1
    35    14    16    1
    36    34    33    2
    37    33    38   am
    38    38    39    1
    39    39    42    1
    40    39    40    1
    41    42    43    1
    42    40    41    2
    43    43    44    2
    44    43    45    1
    45    44    46    1
    46    46    47    2
    47    45    47    1
