@<TRIPOS>MOLECULE
3eml_ZMA_A_1.pdb
 25 28 0 0 0
SMALL
GASTEIGER

@<TRIPOS>ATOM
      1  C1       -10.9920   -8.7960   60.6170 C.ar  401  ZMA401     -0.0009
      2  C2       -11.2410   -8.2970   61.8890 C.ar  401  ZMA401      0.0417
      3  C3       -11.9840   -7.1330   62.0450 C.ar  401  ZMA401      0.1957
      4  O4       -12.2310   -6.6380   63.2860 O.3   401  ZMA401     -0.2866
      5  C5       -12.4760   -6.4690   60.9280 C.ar  401  ZMA401      0.0417
      6  C6       -12.2300   -6.9690   59.6570 C.ar  401  ZMA401     -0.0009
      7  C7       -11.4920   -8.1350   59.5010 C.ar  401  ZMA401     -0.0202
      8  C8       -11.2080   -8.6770   58.1010 C.3   401  ZMA401      0.0506
      9  C9        -9.7460   -9.1040   58.0060 C.3   401  ZMA401      0.1309
     10  N10       -9.4200   -9.5440   56.6440 N.pl3 401  ZMA401     -0.1508
     11  C11       -8.9530   -8.5930   55.8420 C.1   401  ZMA401      0.2337
     12  N12       -8.5850   -8.8570   54.5780 N.2   401  ZMA401     -0.2439
     13  N13       -8.8330   -7.3590   56.3580 N.2   401  ZMA401     -0.2893
     14  C14       -8.3650   -6.3420   55.6260 C.cat 401  ZMA401      0.3237
     15  N15       -8.2660   -5.1250   56.1560 N.pl3 401  ZMA401     -0.0749
     16  N16       -7.9810   -6.5820   54.3090 N.pl3 401  ZMA401     -0.0559
     17  N17       -7.5250   -5.8520   53.4280 N.2   401  ZMA401     -0.0900
     18  C18       -8.1040   -7.8740   53.8000 C.1   401  ZMA401      0.2508
     19  N19       -7.6760   -7.8290   52.5440 N.2   401  ZMA401     -0.2666
     20  C20       -7.3130   -6.5650   52.3200 C.1   401  ZMA401      0.1525
     21  C21       -6.8090   -6.0540   51.1310 C.ar  401  ZMA401      0.2205
     22  C22       -6.5540   -6.6880   49.9910 C.ar  401  ZMA401      0.0523
     23  C23       -6.0810   -5.7960   49.1210 C.ar  401  ZMA401      0.0446
     24  C24       -6.0340   -4.5980   49.7030 C.ar  401  ZMA401      0.1807
     25  O25       -6.4920   -4.7390   50.9840 O.2   401  ZMA401     -0.4394
@<TRIPOS>BOND
     1    23    24   ar
     2    23    22   ar
     3    24    25   ar
     4    22    21   ar
     5    25    21   ar
     6    21    20    1
     7    20    19    2
     8    20    17    2
     9    19    18    2
    10    17    16    1
    11    18    16    1
    12    18    12    2
    13    16    14    1
    14    12    11    2
    15    14    15    1
    16    14    13    2
    17    11    13    2
    18    11    10    1
    19    10     9    1
    20     9     8    1
    21     8     7    1
    22     7     6   ar
    23     7     1   ar
    24     6     5   ar
    25     1     2   ar
    26     5     3   ar
    27     2     3   ar
    28     3     4    1
