@<TRIPOS>MOLECULE
3emm_HEM_A_1.pdb
 43 50 0 0 0
SMALL
GASTEIGER

@<TRIPOS>ATOM
      1  CHA       18.8940   -0.1920    9.2470 C.2   200  HEM200      0.0000
      2  CHB       14.4920    1.2890   10.5640 C.2   200  HEM200      0.0000
      3  CHC       13.6220    2.8500    6.0590 C.2   200  HEM200      0.0000
      4  CHD       17.6590    0.6270    4.5860 C.2   200  HEM200      0.0000
      5  C1A       17.7880    0.0810   10.0200 C.2   200  HEM200      0.0000
      6  C2A       17.6390   -0.1670   11.4440 C.2   200  HEM200      0.0000
      7  C3A       16.4150    0.2390   11.7990 C.2   200  HEM200      0.0000
      8  C4A       15.7630    0.7680   10.6160 C.2   200  HEM200      0.0000
      9  CMA       15.7620    0.1980   13.1920 C.3   200  HEM200      0.0000
     10  CAA       18.6980   -0.8260   12.3580 C.3   200  HEM200      0.0000
     11  CBA       19.5310    0.2010   13.1130 C.3   200  HEM200      0.0000
     12  CGA       20.2900   -0.4980   14.2160 C.2   200  HEM200      0.0000
     13  O1A       20.4570   -1.7480   14.1440 O.co2 200  HEM200      0.0000
     14  O2A       20.7200    0.1990   15.1720 O.co2 200  HEM200      0.0000
     15  C1B       13.9050    1.8870    9.4750 C.ar  200  HEM200      0.0000
     16  C2B       12.6710    2.6280    9.5080 C.ar  200  HEM200      0.0000
     17  C3B       12.4220    3.0630    8.2600 C.ar  200  HEM200      0.0000
     18  C4B       13.4990    2.6030    7.4120 C.ar  200  HEM200      0.0000
     19  CMB       11.8240    2.8500   10.7790 C.3   200  HEM200      0.0000
     20  CAB       11.2380    3.9180    7.7570 C.2   200  HEM200      0.0000
     21  CBB       10.6980    4.8980    8.4970 C.2   200  HEM200      0.0000
     22  C1C       14.6260    2.3550    5.2580 C.2   200  HEM200      0.0000
     23  C2C       14.7080    2.4780    3.8200 C.2   200  HEM200      0.0000
     24  C3C       15.8310    1.8640    3.4240 C.2   200  HEM200      0.0000
     25  C4C       16.4780    1.3270    4.5960 C.2   200  HEM200      0.0000
     26  CMC       13.6740    3.2140    2.9410 C.3   200  HEM200      0.0000
     27  CAC       16.3920    1.6830    1.9920 C.2   200  HEM200      0.0000
     28  CBC       16.1200    2.5080    0.9890 C.2   200  HEM200      0.0000
     29  C1D       18.3720    0.2280    5.6860 C.ar  200  HEM200      0.0000
     30  C2D       19.6630   -0.4260    5.6340 C.ar  200  HEM200      0.0000
     31  C3D       20.0410   -0.6690    7.0870 C.ar  200  HEM200      0.0000
     32  C4D       18.9420   -0.1540    7.8720 C.ar  200  HEM200      0.0000
     33  CMD       20.4870   -0.7930    4.3820 C.3   200  HEM200      0.0000
     34  CAD       21.3210   -1.3650    7.6030 C.3   200  HEM200      0.0000
     35  CBD       21.1130   -2.8790    7.5110 C.3   200  HEM200      0.0000
     36  CGD       19.9570   -3.3460    8.3670 C.2   200  HEM200      0.0000
     37  O1D       18.9080   -3.7610    7.7990 O.co2 200  HEM200      0.0000
     38  O2D       20.0740   -3.3030    9.6220 O.co2 200  HEM200      0.0000
     39  NA        16.6290    0.6540    9.5480 N.2   200  HEM200      0.0000
     40  NB        14.3920    1.8900    8.1860 N.ar  200  HEM200      0.0000
     41  NC        15.7230    1.6450    5.7010 N.2   200  HEM200      0.0000
     42  ND        17.9780    0.3760    7.0150 N.ar  200  HEM200      0.0000
     43 FE         16.2630    1.3050    7.6620 Fe    200  HEM200      0.0000
@<TRIPOS>BOND
     1    28    27    2
     2    27    24    1
     3    26    23    1
     4    24    23    2
     5    24    25    1
     6    23    22    1
     7    33    30    1
     8     4    25    1
     9     4    29    2
    10    25    41    2
    11    22    41    1
    12    22     3    2
    13    30    29   ar
    14    30    31   ar
    15    29    42   ar
    16    41    43    1
    17     3    18    1
    18    42    43    1
    19    42    32   ar
    20    31    34    1
    21    31    32   ar
    22    18    40   ar
    23    18    17   ar
    24    35    34    1
    25    35    36    1
    26    43    40    1
    27    43    39    1
    28    20    17    1
    29    20    21    2
    30    37    36   ar
    31    32     1    2
    32    40    15   ar
    33    17    16   ar
    34    36    38   ar
    35     1     5    1
    36    15    16   ar
    37    15     2    1
    38    16    19    1
    39    39     5    2
    40    39     8    1
    41     5     6    1
    42     2     8    2
    43     8     7    1
    44     6     7    2
    45     6    10    1
    46     7     9    1
    47    10    11    1
    48    11    12    1
    49    13    12   ar
    50    12    14   ar
