@<TRIPOS>MOLECULE
3emq_HAH_A_1.pdb
 18 19 0 0 0
SMALL
GASTEIGER

@<TRIPOS>ATOM
      1  C1        13.7050    5.6160    3.4380 C.3   1000  HAH1000     0.1062
      2  N1        12.6630    4.5490    3.1790 N.3   1000  HAH1000    -0.2119
      3  C2        15.1220    5.2470    2.9630 C.3   1000  HAH1000     0.2005
      4  O2        15.5310    3.9800    3.4420 O.3   1000  HAH1000    -0.2188
      5  C3        16.1100    6.3300    3.2930 C.3   1000  HAH1000     0.2135
      6  O3        17.3880    6.0140    2.7440 O.3   1000  HAH1000    -0.2176
      7  C4        15.6150    7.6860    2.7480 C.3   1000  HAH1000     0.1848
      8  O4        16.5190    8.7060    3.1400 O.3   1000  HAH1000    -0.2203
      9  C5        14.3980    7.9200    3.2210 C.3   1000  HAH1000     0.0372
     10  C6        13.3450    7.0310    2.9570 C.3   1000  HAH1000     0.0228
     11  C10       12.0900    4.4760    1.7020 C.3   1000  HAH1000     0.1182
     12  C11       10.6010    4.5100    1.6780 C.ar  1000  HAH1000     0.0342
     13  C12        9.8400    4.1780    0.4840 C.ar  1000  HAH1000     0.1931
     14  O12       10.4680    3.7890   -0.7670 O.3   1000  HAH1000    -0.2869
     15  C13        8.4400    4.2180    0.4770 C.ar  1000  HAH1000     0.0417
     16  C14        7.7710    4.5790    1.6470 C.ar  1000  HAH1000     0.0033
     17  C15        8.4520    4.8990    2.8000 C.ar  1000  HAH1000    -0.0001
     18  C16        9.8970    4.8600    2.8080 C.ar  1000  HAH1000     0.0003
@<TRIPOS>BOND
     1    14    13    1
     2    15    13   ar
     3    15    16   ar
     4    13    12   ar
     5    16    17   ar
     6    12    11    1
     7    12    18   ar
     8    11     2    1
     9     6     5    1
    10     7     8    1
    11     7     9    1
    12     7     5    1
    13    17    18   ar
    14    10     9    1
    15    10     1    1
    16     3     5    1
    17     3     1    1
    18     3     4    1
    19     2     1    1
