@<TRIPOS>MOLECULE
3ems_ARG_A_1.pdb
 12 11 0 0 0
SMALL
GASTEIGER

@<TRIPOS>ATOM
      1  N        -24.0450  -11.5860    1.3280 N.3   130  ARG130     -0.1208
      2  CA       -25.3170  -11.3820    0.5770 C.3   130  ARG130      0.1944
      3  C        -25.3200  -12.2060   -0.7130 C.2   130  ARG130      0.3819
      4  O        -25.8030  -11.7870   -1.7670 O.co2 130  ARG130     -0.2441
      5  CB       -25.5280   -9.8930    0.2850 C.3   130  ARG130      0.0343
      6  CG       -26.9800   -9.4820    0.0890 C.3   130  ARG130      0.0490
      7  CD       -27.0810   -8.0380   -0.3750 C.3   130  ARG130      0.2205
      8  NE       -26.8150   -7.8850   -1.8070 N.pl3 130  ARG130     -0.0865
      9  CZ       -26.4660   -6.7400   -2.3900 C.cat 130  ARG130      0.5346
     10  NH1      -26.2490   -6.6930   -3.6970 N.pl3 130  ARG130      0.1354
     11  NH2      -26.3210   -5.6390   -1.6680 N.pl3 130  ARG130      0.1354
     12  OXT      -24.8330  -13.3360   -0.7310 O.co2 130  ARG130     -0.2441
@<TRIPOS>BOND
     1    10     9    1
     2     9     8    2
     3     9    11    1
     4     8     7    1
     5     4     3   ar
     6    12     3   ar
     7     3     2    1
     8     7     6    1
     9     6     5    1
    10     5     2    1
    11     2     1    1
