@<TRIPOS>MOLECULE
3emt_DGI_A_1.pdb
 27 29 0 0 0
SMALL
GASTEIGER

@<TRIPOS>ATOM
      1  O1B       50.0000   12.5170   32.1810 O.3   201  DGI201     -0.1143
      2  PB        51.5380   12.1770   32.1000 P.3   201  DGI201      0.5373
      3  O2B       52.4450   13.5720   32.6060 O.3   201  DGI201     -0.1143
      4  O3B       51.9610   11.6670   30.4890 O.2   201  DGI201     -0.2221
      5  O3A       51.7240   10.9570   33.1620 O.3   201  DGI201     -0.2261
      6  PA        52.9870   10.4670   34.0610 P.3   201  DGI201      0.2231
      7  O1A       52.3850   10.1350   35.4870 O.3   201  DGI201     -0.4370
      8  O2A       54.3050   11.6220   34.1390 O.2   201  DGI201     -0.5169
      9  O5'       53.4340    9.1090   33.3690 O.3   201  DGI201     -0.3111
     10  C5'       54.2800    9.1600   32.2220 C.3   201  DGI201      0.1812
     11  C4'       53.8200    8.1080   31.2300 C.3   201  DGI201      0.1772
     12  O4'       53.9520    6.7800   31.7690 O.3   201  DGI201     -0.3347
     13  C3'       52.3410    8.2390   30.8830 C.3   201  DGI201      0.1857
     14  O3'       52.0960    9.1320   29.7860 O.3   201  DGI201     -0.2203
     15  C2'       51.9280    6.8310   30.5210 C.3   201  DGI201      0.0865
     16  C1'       52.8410    5.9670   31.3750 C.3   201  DGI201      0.1981
     17  N9        52.1040    5.5770   32.5960 N.pl3 201  DGI201     -0.2374
     18  C8        51.9450    6.3150   33.7030 C.3   201  DGI201      0.2245
     19  N7        51.2140    5.6070   34.5970 N.2   201  DGI201     -0.2322
     20  C5        50.9330    4.4190   34.0370 C.2   201  DGI201      0.2182
     21  C4        51.5040    4.4040   32.7770 C.2   201  DGI201      0.2299
     22  N3        51.3690    3.3330   31.9900 N.2   201  DGI201     -0.3074
     23  C2        50.6940    2.2600   32.4300 C.1   201  DGI201      0.2531
     24  N2        50.5740    1.1840   31.6210 N.pl3 201  DGI201     -0.0226
     25  N1        50.1410    2.2420   33.6520 N.2   201  DGI201     -0.2485
     26  C6        50.2420    3.2930   34.4700 C.1   201  DGI201      0.2372
     27  O6        49.7210    3.2710   35.6080 O.2   201  DGI201     -0.2069
@<TRIPOS>BOND
     1    14    13    1
     2     4     2    2
     3    15    13    1
     4    15    16    1
     5    13    11    1
     6    11    12    1
     7    11    10    1
     8    16    12    1
     9    16    17    1
    10    24    23    1
    11    22    23    2
    12    22    21    2
    13     2     1    1
    14     2     3    1
    15     2     5    1
    16    10     9    1
    17    23    25    2
    18    17    21    1
    19    17    18    1
    20    21    20    1
    21     5     6    1
    22     9     6    1
    23    25    26    2
    24    18    19    1
    25    20    26    1
    26    20    19    2
    27     6     8    2
    28     6     7    1
    29    26    27    2
