@<TRIPOS>MOLECULE
3emy_III_B_1.pdb
 48 47 0 0 0
SMALL
GASTEIGER

@<TRIPOS>ATOM
      1  CA        19.0260   49.6870    4.3340 C.3   327  IVA327      0.0868
      2  CB        20.3130   50.3850    3.9750 C.3   327  IVA327      0.0091
      3  CG1       20.3820   50.6900    2.4760 C.3   327  IVA327      0.0005
      4  CG2       20.4700   51.6360    4.8280 C.3   327  IVA327      0.0005
      5  C         18.7870   49.7450    5.8530 C.2   327  IVA327      0.2418
      6  O         19.0830   48.7810    6.5710 O.2   327  IVA327     -0.2733
      7  N         17.8010   50.5920    6.2100 N.am  328  VAL328     -0.1978
      8  CA        17.1460   50.5270    7.5250 C.3   328  VAL328      0.1726
      9  C         15.8830   49.6590    7.3770 C.2   328  VAL328      0.2616
     10  O         15.2750   49.7370    6.3250 O.2   328  VAL328     -0.2715
     11  CB        16.7420   51.9790    7.9370 C.3   328  VAL328      0.0290
     12  CG1       15.7100   52.4820    7.0440 C.3   328  VAL328      0.0023
     13  CG2       16.2450   52.0670    9.3450 C.3   328  VAL328      0.0023
     14  N         15.4900   48.8550    8.4100 N.am  329  VAL329     -0.1963
     15  CA        14.2230   48.1390    8.3880 C.3   329  VAL329      0.1727
     16  C         13.5880   48.2270    9.7710 C.2   329  VAL329      0.2612
     17  O         14.0880   47.6300   10.7410 O.2   329  VAL329     -0.2715
     18  CB        14.3850   46.6160    7.9830 C.3   329  VAL329      0.0290
     19  CG1       13.0730   45.9500    8.0360 C.3   329  VAL329      0.0023
     20  CG2       15.0510   46.4950    6.5750 C.3   329  VAL329      0.0023
     21  N         12.5100   48.9800    9.8460 N.am  330  STA330     -0.2031
     22  CA        11.8950   49.3330   11.1470 C.3   330  STA330      0.1261
     23  CB        12.2200   50.8110   11.4690 C.3   330  STA330      0.0243
     24  CG        13.7090   51.2270   11.5470 C.3   330  STA330      0.0018
     25  CD1       13.6950   52.7830   11.8330 C.3   330  STA330      0.0001
     26  CD2       14.4310   50.3290   12.6160 C.3   330  STA330      0.0001
     27  CH        10.3840   49.1030   11.0530 C.3   330  STA330      0.1809
     28  OH         9.8420   49.7450    9.9020 O.3   330  STA330     -0.2208
     29  CM         9.9850   47.6450   10.7510 C.3   330  STA330      0.1214
     30  C         10.0530   46.7410   11.9750 C.2   330  STA330      0.2444
     31  O         11.2980   46.2610   12.2740 O.2   330  STA330     -0.2732
     32  N          9.2110   46.6620   12.9980 N.am  331  ALA331     -0.1977
     33  CA         9.2440   45.9170   14.2670 C.3   331  ALA331      0.1728
     34  C          8.8180   44.4340   14.0210 C.2   331  ALA331      0.2612
     35  O          7.6270   44.1110   13.9250 O.2   331  ALA331     -0.2715
     36  CB         8.3080   46.5780   15.3350 C.3   331  ALA331      0.0334
     37  N          9.8630   43.8480   13.4290 N.am  332  STA332     -0.2031
     38  CA         9.8920   42.4140   13.0900 C.3   332  STA332      0.1262
     39  CB        10.5490   42.1870   11.6810 C.3   332  STA332      0.0243
     40  CG         9.9930   43.0890   10.5750 C.3   332  STA332      0.0018
     41  CD1        8.5620   42.7040   10.3420 C.3   332  STA332      0.0001
     42  CD2       10.8100   42.8740    9.2970 C.3   332  STA332      0.0001
     43  CH        10.7100   41.6850   14.1810 C.3   332  STA332      0.1830
     44  OH        12.0360   42.2610   14.3160 O.3   332  STA332     -0.2207
     45  CM        10.0060   41.7060   15.5520 C.3   332  STA332      0.1486
     46  C         10.7450   40.8070   16.5770 C.2   332  STA332      0.3675
     47  O         11.1590   39.6970   16.2710 O.co2 332  STA332     -0.2456
     48  OXT       10.6670   41.1590   17.7840 O.co2 332  STA332     -0.2456
@<TRIPOS>BOND
     1     3     2    1
     2     2     1    1
     3     2     4    1
     4     1     5    1
     5     5     7   am
     6     5     6    2
     7     7     8    1
     8    10     9    2
     9    20    18    1
    10    12    11    1
    11     9     8    1
    12     9    14   am
    13     8    11    1
    14    11    13    1
    15    18    19    1
    16    18    15    1
    17    15    14    1
    18    15    16    1
    19    42    40    1
    20    16    21   am
    21    16    17    2
    22    21    22    1
    23    28    27    1
    24    41    40    1
    25    40    39    1
    26    29    27    1
    27    29    30    1
    28    27    22    1
    29    22    23    1
    30    23    24    1
    31    24    25    1
    32    24    26    1
    33    39    38    1
    34    30    31    2
    35    30    32   am
    36    32    33    1
    37    38    37    1
    38    38    43    1
    39    37    34   am
    40    35    34    2
    41    34    33    1
    42    43    44    1
    43    43    45    1
    44    33    36    1
    45    45    46    1
    46    47    46   ar
    47    46    48   ar
