@<TRIPOS>MOLECULE
3emz_HXH_A_1.pdb
 24 26 0 0 0
SMALL
GASTEIGER

@<TRIPOS>ATOM
      1  C1        13.4150    5.5130    3.5170 C.3   1000  HXH1000     0.1062
      2  N1        12.4760    4.3970    3.1350 N.3   1000  HXH1000    -0.2120
      3  C2        14.8950    5.1910    3.2660 C.3   1000  HXH1000     0.2005
      4  O2        15.3010    3.9590    3.8420 O.3   1000  HXH1000    -0.2188
      5  C3        15.7970    6.3350    3.6640 C.3   1000  HXH1000     0.2135
      6  O3        17.1010    6.0580    3.1920 O.3   1000  HXH1000    -0.2176
      7  C4        15.3140    7.6510    3.0680 C.3   1000  HXH1000     0.1848
      8  O4        16.1000    8.7310    3.5720 O.3   1000  HXH1000    -0.2203
      9  C5        14.0180    7.8340    3.3680 C.3   1000  HXH1000     0.0372
     10  C6        13.0790    6.9050    2.9520 C.3   1000  HXH1000     0.0228
     11  C10       10.9550    4.6930    3.3800 C.3   1000  HXH1000     0.1150
     12  C11       10.1510    4.5150    2.1590 C.ar  1000  HXH1000    -0.0046
     13  C12       10.3390    3.4100    1.3210 C.ar  1000  HXH1000     0.0003
     14  C13        9.5480    3.2340    0.1380 C.ar  1000  HXH1000     0.0372
     15  C14        8.5680    4.1860   -0.1740 C.ar  1000  HXH1000     0.1453
     16  C15        8.3650    5.2920    0.6430 C.ar  1000  HXH1000     0.0372
     17  C16        9.1590    5.4510    1.8140 C.ar  1000  HXH1000     0.0003
     18  O20        7.7440    4.0010   -1.3820 O.3   1000  HXH1000    -0.4535
     19  C21        7.8370    4.7230   -2.6560 C.ar  1000  HXH1000     0.1453
     20  C22        6.6560    5.0980   -3.3150 C.ar  1000  HXH1000     0.0375
     21  C23        6.6950    5.7880   -4.5380 C.ar  1000  HXH1000     0.0031
     22  C24        7.9530    6.0970   -5.1050 C.ar  1000  HXH1000     0.0002
     23  C25        9.1310    5.7410   -4.4810 C.ar  1000  HXH1000     0.0031
     24  C26        9.0650    5.0300   -3.2190 C.ar  1000  HXH1000     0.0375
@<TRIPOS>BOND
     1    22    21   ar
     2    22    23   ar
     3    21    20   ar
     4    23    24   ar
     5    20    19   ar
     6    24    19   ar
     7    19    18    1
     8    18    15    1
     9    15    14   ar
    10    15    16   ar
    11    14    13   ar
    12    16    17   ar
    13    13    12   ar
    14    17    12   ar
    15    12    11    1
    16    10     9    1
    17    10     1    1
    18     7     9    1
    19     7     8    1
    20     7     5    1
    21     2    11    1
    22     2     1    1
    23     6     5    1
    24     3     1    1
    25     3     5    1
    26     3     4    1
