@<TRIPOS>MOLECULE
3en3_KAI_A_1.pdb
 15 15 0 0 0
SMALL
GASTEIGER

@<TRIPOS>ATOM
      1  N         14.5410   21.9480    2.5410 N.3   999  KAI999     -0.2080
      2  CD        15.5600   22.3790    3.4680 C.3   999  KAI999      0.0933
      3  CD1       17.8910   23.6910    4.3970 C.2   999  KAI999     -0.0091
      4  CD2       19.3460   22.7150    2.7090 C.3   999  KAI999      0.0264
      5  CA        15.1660   21.8330    1.2400 C.3   999  KAI999      0.1766
      6  CB        16.5050   22.4670    1.3850 C.3   999  KAI999      0.0434
      7  CB1       16.4730   23.9430    1.1570 C.3   999  KAI999      0.1164
      8  CG        16.8400   22.0790    2.7750 C.3   999  KAI999      0.0382
      9  CG1       16.6860   24.3350   -0.2620 C.2   999  KAI999      0.3649
     10  CG2       18.0060   22.8760    3.3160 C.2   999  KAI999     -0.0428
     11  C         15.3090   20.3860    0.8220 C.2   999  KAI999      0.3803
     12  O         14.7530   19.5330    1.4710 O.co2 999  KAI999     -0.2441
     13  OD1       16.4110   25.4560   -0.6030 O.co2 999  KAI999     -0.2457
     14  OD2       17.1100   23.4910   -0.9910 O.co2 999  KAI999     -0.2457
     15  OXT       15.9420   20.1170   -0.1990 O.co2 999  KAI999     -0.2441
@<TRIPOS>BOND
     1    14     9   ar
     2    13     9   ar
     3     9     7    1
     4    15    11   ar
     5    11     5    1
     6    11    12   ar
     7     7     6    1
     8     5     6    1
     9     5     1    1
    10     6     8    1
    11     1     2    1
    12     4    10    1
    13     8    10    1
    14     8     2    1
    15    10     3    2
