@<TRIPOS>MOLECULE
3en4_KS1_A_1.pdb
 24 28 0 0 0
SMALL
GASTEIGER

@<TRIPOS>ATOM
      1  CAI        5.1830  -10.0920   -4.5360 C.3     1  KS11        0.0490
      2  CAG        4.9460  -10.5980   -3.0980 C.3     1  KS11        0.0043
      3  CAH        4.9030   -9.2870   -2.3070 C.3     1  KS11        0.0043
      4  CAJ        6.0860   -8.4890   -2.9040 C.3     1  KS11        0.0490
      5  CAW        6.2640   -9.0050   -4.3560 C.3     1  KS11        0.1873
      6  NAX        6.0590   -7.8570   -5.2510 N.pl3   1  KS11       -0.0839
      7  NAN        4.9610   -7.5130   -5.7050 N.2     1  KS11       -0.0913
      8  C4         7.0470   -7.0380   -5.6280 C.2     1  KS11        0.3405
      9  N3         8.3760   -7.0090   -5.3880 N.2     1  KS11       -0.0088
     10  C2         9.1420   -6.0490   -5.9160 C.3     1  KS11        0.5248
     11  N1         8.6200   -5.1050   -6.6930 N.2     1  KS11       -0.0027
     12  C6         7.2980   -5.0780   -6.9740 C.2     1  KS11        0.4081
     13  NAA        6.8340   -4.1040   -7.7520 N.pl3   1  KS11        0.2118
     14  C5         6.4620   -6.0720   -6.4340 C.3     1  KS11        0.2639
     15  CAR        5.1050   -6.4240   -6.4470 C.2     1  KS11        0.1242
     16  CAP        4.0830   -5.7870   -7.1310 C.2     1  KS11        0.0388
     17  CAF        4.0020   -5.9120   -8.5120 C.2     1  KS11        0.0129
     18  CAS        2.9610   -5.2720   -9.1810 C.2     1  KS11        0.0641
     19  CAD        2.6200   -5.1890  -10.4680 C.2     1  KS11        0.0314
     20  CAB        1.5190   -4.4380  -10.5630 C.2     1  KS11        0.1103
     21  NAO        1.1570   -4.0390   -9.3440 N.2     1  KS11       -0.1922
     22  CAT        2.0320   -4.5340   -8.4630 C.1     1  KS11        0.0353
     23  NAM        2.1300   -4.4370   -7.1290 N.2     1  KS11       -0.1922
     24  CAE        3.1110   -5.0410   -6.4670 C.2     1  KS11        0.1109
@<TRIPOS>BOND
     1    20    19    2
     2    20    21    1
     3    19    18    1
     4    21    22    2
     5    18    17    2
     6    18    22    1
     7    17    16    1
     8    22    23    2
     9    13    12    1
    10    16    24    2
    11    16    15    1
    12    23    24    1
    13    12    11    2
    14    12    14    1
    15    11    10    1
    16    15    14    1
    17    15     7    2
    18    14     8    1
    19    10     9    1
    20     7     6    1
    21     8     9    2
    22     8     6    1
    23     6     5    1
    24     1     5    1
    25     1     2    1
    26     5     4    1
    27     2     3    1
    28     4     3    1
