@<TRIPOS>MOLECULE
3en5_KS4_A_1.pdb
 24 27 0 0 0
SMALL
GASTEIGER

@<TRIPOS>ATOM
      1  CAI        5.3110    9.9510    5.1620 C.3     1  KS41        0.0492
      2  CAH        5.1010    9.9370    3.6450 C.3     1  KS41        0.0084
      3  CAJ        5.7750    8.5680    3.5580 C.3     1  KS41        0.0492
      4  CAW        6.3590    8.8330    4.9590 C.3     1  KS41        0.1873
      5  NAX        6.1360    7.6280    5.7950 N.pl3   1  KS41       -0.0839
      6  NAM        5.0420    7.2640    6.2470 N.2     1  KS41       -0.0914
      7  C4         7.1240    6.8010    6.0810 C.2     1  KS41        0.3405
      8  N3         8.4380    6.8120    5.7910 N.2     1  KS41       -0.0088
      9  C2         9.2310    5.8390    6.2240 C.3     1  KS41        0.5248
     10  N1         8.7360    4.8460    6.9460 N.2     1  KS41       -0.0027
     11  C6         7.4250    4.7820    7.2690 C.2     1  KS41        0.4081
     12  NAC        6.9970    3.7630    8.0080 N.pl3   1  KS41        0.2118
     13  C5         6.5600    5.7870    6.8280 C.3     1  KS41        0.2639
     14  CAT        5.1930    6.1230    6.8940 C.2     1  KS41        0.1227
     15  CAP        4.1650    5.5070    7.6000 C.ar    1  KS41        0.0214
     16  CAG        4.2640    5.5710    8.9940 C.ar    1  KS41        0.0414
     17  CAD        3.0280    4.9360    7.0370 C.ar    1  KS41        0.0046
     18  CAE        2.0520    4.3990    7.8930 C.ar    1  KS41        0.0401
     19  CAR        2.1620    4.4380    9.3010 C.ar    1  KS41        0.1724
     20  OAN        1.2150    3.9070   10.1810 O.3     1  KS41       -0.4684
     21  CAA       -0.0310    3.4020    9.6350 C.3     1  KS41        0.2526
     22  CAS        3.2930    5.0360    9.8550 C.ar    1  KS41        0.1724
     23  OAO        3.4120    5.0800   11.2390 O.3     1  KS41       -0.4684
     24  CAB        4.7290    5.2260   11.8130 C.3     1  KS41        0.2526
@<TRIPOS>BOND
     1     3     2    1
     2     3     4    1
     3     2     1    1
     4     4     1    1
     5     4     5    1
     6     8     7    2
     7     8     9    1
     8     5     7    1
     9     5     6    1
    10     7    13    1
    11     9    10    1
    12     6    14    2
    13    13    14    1
    14    13    11    1
    15    14    15    1
    16    10    11    2
    17    17    15   ar
    18    17    18   ar
    19    11    12    1
    20    15    16   ar
    21    18    19   ar
    22    16    22   ar
    23    19    22   ar
    24    19    20    1
    25    21    20    1
    26    22    23    1
    27    23    24    1
