@<TRIPOS>MOLECULE
3en6_KS5_B_1.pdb
 23 26 0 0 0
SMALL
GASTEIGER

@<TRIPOS>ATOM
      1  CAA        2.2710  -23.0410  -28.0900 C.3     2  KS52        0.0532
      2  CAV        1.8490  -22.5350  -29.4800 C.3     2  KS52        0.1876
      3  CAB        0.4910  -21.8350  -29.3790 C.3     2  KS52        0.0532
      4  NAW        1.8690  -23.7060  -30.4010 N.pl3   2  KS52       -0.0839
      5  NAN        2.9770  -24.0820  -30.7800 N.2     2  KS52       -0.0914
      6  C4         0.9070  -24.4960  -30.9130 C.2     2  KS52        0.3405
      7  N3        -0.4220  -24.5420  -30.8380 N.2     2  KS52       -0.0088
      8  C2        -1.1100  -25.4740  -31.4910 C.3     2  KS52        0.5248
      9  N1        -0.5290  -26.4080  -32.2310 N.2     2  KS52       -0.0027
     10  C6         0.7980  -26.4260  -32.3620 C.2     2  KS52        0.4081
     11  NAC        1.3650  -27.3760  -33.1120 N.pl3   2  KS52        0.2118
     12  C5         1.5510  -25.4520  -31.6990 C.3     2  KS52        0.2639
     13  CAQ        2.9000  -25.1230  -31.5810 C.2     2  KS52        0.1223
     14  CAP        4.0270  -25.7280  -32.1090 C.2     2  KS52        0.0140
     15  CAJ        4.2520  -25.9670  -33.4600 C.2     2  KS52       -0.0018
     16  CAR        5.4650  -26.5920  -33.8090 C.2     2  KS52       -0.0038
     17  CAH        5.7640  -26.8770  -35.1390 C.3     2  KS52        0.0551
     18  CAD        6.9910  -27.4910  -35.4260 C.2     2  KS52       -0.0008
     19  CAE        7.9030  -27.8290  -34.4170 C.2     2  KS52        0.0942
     20  NAL        7.6110  -27.5460  -33.1450 N.2     2  KS52       -0.2484
     21  CAS        6.4290  -26.9450  -32.8290 C.2     2  KS52        0.0597
     22  CAI        6.1800  -26.6760  -31.4910 C.3     2  KS52        0.0715
     23  CAG        4.9820  -26.0680  -31.1440 C.2     2  KS52       -0.0185
@<TRIPOS>BOND
     1    18    17    1
     2    18    19    2
     3    17    16    1
     4    19    20    1
     5    16    15    2
     6    16    21    1
     7    15    14    1
     8    20    21    2
     9    11    10    1
    10    21    22    1
    11    10     9    2
    12    10    12    1
    13     9     8    1
    14    14    13    1
    15    14    23    2
    16    12    13    1
    17    12     6    1
    18    13     5    2
    19    22    23    1
    20     8     7    1
    21     6     7    2
    22     6     4    1
    23     5     4    1
    24     4     2    1
    25     2     3    1
    26     2     1    1
