@<TRIPOS>MOLECULE
3en7_ABJ_A_1.pdb
 20 22 0 0 0
SMALL
GASTEIGER

@<TRIPOS>ATOM
      1  C19       -6.2290   10.2860   -5.0390 C.3     1  ABJ1        0.0532
      2  C14       -5.5960    9.0020   -4.4870 C.3     1  ABJ1        0.1876
      3  C20       -6.0140    8.6260   -3.0580 C.3     1  ABJ1        0.0532
      4  N11       -5.7160    7.8350   -5.4000 N.pl3   1  ABJ1       -0.0839
      5  N15       -4.6630    7.3650   -5.8390 N.2     1  ABJ1       -0.0914
      6  C7        -6.7670    7.1470   -5.8450 C.2     1  ABJ1        0.3405
      7  N3        -8.0930    7.2700   -5.6660 N.2     1  ABJ1       -0.0088
      8  C6        -8.9190    6.4020   -6.2650 C.3     1  ABJ1        0.5248
      9  N5        -8.4730    5.4200   -7.0390 N.2     1  ABJ1       -0.0027
     10  C2        -7.1540    5.2480   -7.2650 C.2     1  ABJ1        0.4081
     11  N1        -6.7400    4.2510   -8.0460 N.pl3   1  ABJ1        0.2118
     12  C4        -6.2400    6.1250   -6.6680 C.3     1  ABJ1        0.2639
     13  C13       -4.8390    6.3240   -6.6330 C.2     1  ABJ1        0.1227
     14  C18       -3.6870    5.7300   -7.1700 C.ar    1  ABJ1        0.0214
     15  C28       -3.3610    5.5590   -8.5220 C.ar    1  ABJ1        0.0433
     16  C27       -2.7240    5.4190   -6.1970 C.ar    1  ABJ1        0.0015
     17  C30       -1.4700    4.8700   -6.5040 C.ar    1  ABJ1        0.0033
     18  C26       -1.1500    4.6510   -7.8370 C.ar    1  ABJ1        0.0420
     19  C29       -2.0880    4.9940   -8.8190 C.ar    1  ABJ1        0.1958
     20  O33       -1.6620    4.7430  -10.0790 O.3     1  ABJ1       -0.2866
@<TRIPOS>BOND
     1    20    19    1
     2    19    15   ar
     3    19    18   ar
     4    15    14   ar
     5    11    10    1
     6    18    17   ar
     7    10     9    2
     8    10    12    1
     9    14    13    1
    10    14    16   ar
    11     9     8    1
    12    12    13    1
    13    12     6    1
    14    13     5    2
    15    17    16   ar
    16     8     7    1
    17     6     7    2
    18     6     4    1
    19     5     4    1
    20     4     2    1
    21     1     2    1
    22     2     3    1
