@<TRIPOS>MOLECULE
3en9_TBR_A_1.pdb
 10 10 0 0 0
SMALL
GASTEIGER

@<TRIPOS>ATOM
      1 TA1         1.5510   73.7430   68.6670 Ta    601  TBR601      0.0000
      2 TA3        -1.0470   74.4700   69.6150 Ta    601  TBR601      0.0000
      3 TA6         0.8360   76.5140   68.9650 Ta    601  TBR601      0.0000
      4 BR1         0.0000   71.6530   68.2100 Br    601  TBR601      0.0000
      5 BR2         0.4840   72.7080   70.8460 Br    601  TBR601      0.0000
      6 BR3         3.4530   73.9360   66.8420 Br    601  TBR601      0.0000
      7 BR4         3.0250   75.4660   70.0230 Br    601  TBR601      0.0000
      8 BR8         0.0000   78.9030   68.2100 Br    601  TBR601      0.0000
      9 BRB         2.2430   77.6060   67.0140 Br    601  TBR601      0.0000
     10 BRC        -0.3010   76.3220   71.3420 Br    601  TBR601      0.0000
@<TRIPOS>BOND
     1     6     1    1
     2     9     3    1
     3     4     1    1
     4     8     3    1
     5     1     3    1
     6     1     2    1
     7     1     7    1
     8     1     5    1
     9     3     2    1
    10     2    10    1
