@<TRIPOS>MOLECULE
3ena_DGI_A_1.pdb
 27 29 0 0 0
SMALL
GASTEIGER

@<TRIPOS>ATOM
      1  O1B       50.0420   12.4400   32.1260 O.3   201  DGI201     -0.1143
      2  PB        51.5770   12.0960   31.9910 P.3   201  DGI201      0.5373
      3  O2B       51.9290   11.4850   30.4040 O.2   201  DGI201     -0.2221
      4  O3B       52.5290   13.5050   32.3570 O.3   201  DGI201     -0.1143
      5  O3A       51.8000   10.9160   33.0830 O.3   201  DGI201     -0.2261
      6  PA        53.0710   10.4530   33.9840 P.3   201  DGI201      0.2231
      7  O1A       54.2410   11.4950   34.0420 O.2   201  DGI201     -0.5169
      8  O2A       52.4240   10.0750   35.5770 O.3   201  DGI201     -0.4370
      9  O5'       53.5090    9.0870   33.2870 O.3   201  DGI201     -0.3111
     10  C5'       54.3310    9.1180   32.1260 C.3   201  DGI201      0.1812
     11  C4'       53.8450    8.0400   31.1820 C.3   201  DGI201      0.1772
     12  O4'       53.9640    6.7340   31.7830 O.3   201  DGI201     -0.3347
     13  C3'       52.3630    8.1720   30.8650 C.3   201  DGI201      0.1857
     14  O3'       52.1220    9.0400   29.7500 O.3   201  DGI201     -0.2203
     15  C2'       51.9540    6.7570   30.5160 C.3   201  DGI201      0.0865
     16  C1'       52.8590    5.9140   31.3960 C.3   201  DGI201      0.1981
     17  N9        52.1120    5.5680   32.6270 N.pl3 201  DGI201     -0.2374
     18  C8        51.9690    6.3450   33.7070 C.3   201  DGI201      0.2245
     19  N7        51.2290    5.6840   34.6350 N.2   201  DGI201     -0.2322
     20  C5        50.9270    4.4790   34.1080 C.2   201  DGI201      0.2182
     21  C4        51.5000    4.4070   32.8440 C.2   201  DGI201      0.2299
     22  N3        51.3540    3.3200   32.0780 N.2   201  DGI201     -0.3074
     23  C2        50.6690    2.2690   32.5530 C.1   201  DGI201      0.2531
     24  N2        50.5300    1.1720   31.7780 N.pl3 201  DGI201     -0.0226
     25  N1        50.1130    2.3020   33.7780 N.2   201  DGI201     -0.2485
     26  C6        50.2290    3.3670   34.5760 C.1   201  DGI201      0.2372
     27  O6        49.6990    3.3670   35.7160 O.2   201  DGI201     -0.2069
@<TRIPOS>BOND
     1    14    13    1
     2     3     2    2
     3    15    13    1
     4    15    16    1
     5    13    11    1
     6    11    12    1
     7    11    10    1
     8    16    12    1
     9    16    17    1
    10    24    23    1
    11     2     1    1
    12     2     4    1
    13     2     5    1
    14    22    23    2
    15    22    21    2
    16    10     9    1
    17    23    25    2
    18    17    21    1
    19    17    18    1
    20    21    20    1
    21     5     6    1
    22     9     6    1
    23    18    19    1
    24    25    26    2
    25     6     7    2
    26     6     8    1
    27    20    26    1
    28    20    19    2
    29    26    27    2
