@<TRIPOS>MOLECULE
3ene_NPZ_A_1.pdb
 21 24 0 0 0
SMALL
GASTEIGER

@<TRIPOS>ATOM
      1  C6        47.1300   11.2400   30.4140 C.2     1  NPZ1        0.4081
      2  NAF       46.2440   10.2420   30.3560 N.pl3   1  NPZ1        0.2118
      3  C5        46.8260   12.4910   30.9730 C.3     1  NPZ1        0.2639
      4  N1        48.3650   11.0160   29.9180 N.2     1  NPZ1       -0.0027
      5  C2        49.3050   11.9760   29.9680 C.3     1  NPZ1        0.5248
      6  N3        49.0430   13.1920   30.4670 N.2     1  NPZ1       -0.0088
      7  C4        47.8200   13.4610   30.9980 C.2     1  NPZ1        0.3407
      8  NAT       47.2890   14.5400   31.5910 N.pl3   1  NPZ1       -0.0751
      9  CAU       47.8170   15.9080   31.8910 C.3     1  NPZ1        0.2847
     10  NAP       45.9410   14.3720   31.9340 N.2     1  NPZ1       -0.0911
     11  CAO       45.6140   13.0980   31.6190 C.2     1  NPZ1        0.1226
     12  CAG       44.3740   12.4690   31.7400 C.ar    1  NPZ1        0.0182
     13  CAH       43.4740   12.4950   32.8220 C.ar    1  NPZ1        0.0013
     14  CAA       44.0380   11.7740   30.5890 C.ar    1  NPZ1        0.0013
     15  CAB       42.8560   11.0730   30.4770 C.ar    1  NPZ1        0.0000
     16  CAC       41.9600   11.0740   31.5110 C.ar    1  NPZ1        0.0000
     17  CAI       42.2580   11.7730   32.6900 C.ar    1  NPZ1        0.0000
     18  CAD       40.7880   10.3530   31.3230 C.ar    1  NPZ1        0.0000
     19  CAE       39.8540   10.3320   32.3540 C.ar    1  NPZ1        0.0000
     20  CAK       40.1170   11.0120   33.5400 C.ar    1  NPZ1        0.0000
     21  CAJ       41.3070   11.7370   33.6990 C.ar    1  NPZ1        0.0000
@<TRIPOS>BOND
     1     4     5    1
     2     4     1    2
     3     5     6    1
     4     2     1    1
     5     1     3    1
     6     6     7    2
     7    15    14   ar
     8    15    16   ar
     9    14    12   ar
    10     3     7    1
    11     3    11    1
    12     7     8    1
    13    18    16   ar
    14    18    19   ar
    15    16    17   ar
    16     8     9    1
    17     8    10    1
    18    11    12    1
    19    11    10    2
    20    12    13   ar
    21    19    20   ar
    22    17    13   ar
    23    17    21   ar
    24    20    21   ar
