@<TRIPOS>MOLECULE
3eng_CBI_A_1.pdb
 23 24 0 0 0
SMALL
GASTEIGER

@<TRIPOS>ATOM
      1  C1       -23.8090   31.6710    3.9480 C.3   214  CBI214      0.2695
      2  C2       -24.4920   32.3040    5.1450 C.3   214  CBI214      0.2406
      3  C3       -25.9650   31.9250    5.1680 C.3   214  CBI214      0.2198
      4  C4       -26.5950   32.1970    3.7730 C.3   214  CBI214      0.2144
      5  C5       -25.8080   31.4950    2.7020 C.3   214  CBI214      0.1835
      6  C6       -26.3420   31.7160    1.3080 C.3   214  CBI214      0.2142
      7  O2       -23.8030   31.7880    6.2880 O.3   214  CBI214     -0.2149
      8  O3       -26.6850   32.6670    6.1250 O.3   214  CBI214     -0.2174
      9  O4       -27.9460   31.6910    3.7730 O.3   214  CBI214     -0.2176
     10  O5       -24.4600   32.0380    2.7210 O.3   214  CBI214     -0.3256
     11  O6       -26.5000   33.0720    1.0120 O.3   214  CBI214     -0.2176
     12  C1'      -18.9690   31.7280    1.9670 C.3   214  CBI214      0.3023
     13  C2'      -20.0660   32.2330    1.0300 C.3   214  CBI214      0.2433
     14  C3'      -21.1860   32.7700    1.9320 C.3   214  CBI214      0.2168
     15  C4'      -21.6160   31.6140    2.8580 C.3   214  CBI214      0.1804
     16  C5'      -20.5100   30.9680    3.6010 C.3   214  CBI214      0.1804
     17  C6'      -20.8520   29.7270    4.3600 C.3   214  CBI214      0.2141
     18  O1'      -17.9400   31.3650    1.1370 O.3   214  CBI214     -0.1869
     19  O2'      -19.5180   33.3400    0.3100 O.3   214  CBI214     -0.2148
     20  O3'      -22.2350   33.1300    1.0760 O.3   214  CBI214     -0.2175
     21  O4'      -22.5200   32.2060    3.8210 O.3   214  CBI214     -0.3257
     22  O5'      -19.4790   30.5650    2.6410 O.3   214  CBI214     -0.3237
     23  O6'      -21.4900   28.7970    3.5300 O.3   214  CBI214     -0.2176
@<TRIPOS>BOND
     1    19    13    1
     2    11     6    1
     3    13    14    1
     4    13    12    1
     5    20    14    1
     6    18    12    1
     7     6     5    1
     8    14    15    1
     9    12    22    1
    10    22    16    1
    11     5    10    1
    12     5     4    1
    13    10     1    1
    14    15    16    1
    15    15    21    1
    16    23    17    1
    17    16    17    1
    18     9     4    1
    19     4     3    1
    20    21     1    1
    21     1     2    1
    22     2     3    1
    23     2     7    1
    24     3     8    1
