@<TRIPOS>MOLECULE
3enh_TBR_A_1.pdb
 18 21 0 0 0
SMALL
GASTEIGER

@<TRIPOS>ATOM
      1 TA1       -17.5800   14.9190   38.9280 Ta    5769  TBR5769     0.0000
      2 TA2       -19.8260   15.1530   40.1900 Ta    5769  TBR5769     0.0000
      3 TA3       -19.7280   13.8670   37.9660 Ta    5769  TBR5769     0.0000
      4 TA4       -20.1040   12.5790   40.1880 Ta    5769  TBR5769     0.0000
      5 TA5       -17.9410   13.6360   41.1540 Ta    5769  TBR5769     0.0000
      6 TA6       -17.8470   12.3390   38.9060 Ta    5769  TBR5769     0.0000
      7 BR1       -18.4170   17.3070   39.5930 Br    5769  TBR5769     0.0000
      8 BR2       -18.4060   15.6410   36.5390 Br    5769  TBR5769     0.0000
      9 BR3       -15.8860   15.2700   40.9050 Br    5769  TBR5769     0.0000
     10 BR4       -15.6970   13.4380   37.8520 Br    5769  TBR5769     0.0000
     11 BR5       -21.6470   15.6110   38.3340 Br    5769  TBR5769     0.0000
     12 BR6       -18.9360   15.5860   42.6170 Br    5769  TBR5769     0.0000
     13 BR7       -19.2980   11.9080   42.6000 Br    5769  TBR5769     0.0000
     14 BR8       -19.2440   10.1960   39.4960 Br    5769  TBR5769     0.0000
     15 BR9       -21.7680   12.2260   38.1730 Br    5769  TBR5769     0.0000
     16 BRA       -21.9130   14.0770   41.3740 Br    5769  TBR5769     0.0000
     17 BRB       -16.2410   11.6510   40.8720 Br    5769  TBR5769     0.0000
     18 BRC       -18.7230   11.9750   36.4490 Br    5769  TBR5769     0.0000
@<TRIPOS>BOND
     1    18     3    1
     2    10     1    1
     3     3    11    1
     4     3     6    1
     5     3     1    1
     6     3     4    1
     7     3     2    1
     8     6     1    1
     9     6    14    1
    10     6     4    1
    11     6     5    1
    12     1     7    1
    13     1     2    1
    14     1     5    1
    15     4     2    1
    16     4     5    1
    17     4    13    1
    18     2     5    1
    19     2    16    1
    20     2    12    1
    21    17     5    1
