@<TRIPOS>MOLECULE
3eni_BCL_A_8.pdb
 46 52 0 0 0
SMALL
GASTEIGER

@<TRIPOS>ATOM
      1 MG         13.7480   -7.7180   21.7660 Mg    378  BCL378      0.0000
      2  CHA       15.9030   -5.4340   20.2910 C.2   378  BCL378      0.0000
      3  CHB       16.4440   -9.5960   22.6250 C.2   378  BCL378      0.0000
      4  CHC       11.7710   -9.4090   23.9520 C.2   378  BCL378      0.0000
      5  CHD       11.0670   -5.6060   21.0410 C.2   378  BCL378      0.0000
      6  NA        15.9030   -7.4800   21.5250 N.2   378  BCL378      0.0000
      7  C1A       16.5730   -6.5420   20.7400 C.2   378  BCL378      0.0000
      8  C2A       18.0280   -6.8940   20.5670 C.2   378  BCL378      0.0000
      9  C3A       18.2110   -8.1020   21.5000 C.2   378  BCL378      0.0000
     10  C4A       16.8000   -8.4890   21.8600 C.1   378  BCL378      0.0000
     11  CMA       18.9810   -9.2320   20.8030 C.3   378  BCL378      0.0000
     12  CAA       18.9740   -5.7280   20.9000 C.3   378  BCL378      0.0000
     13  CBA       19.0850   -5.4430   22.4060 C.3   378  BCL378      0.0000
     14  CGA       20.4880   -5.2390   22.8770 C.2   378  BCL378      0.0000
     15  O1A       20.8300   -4.4890   23.7710 O.co2 378  BCL378      0.0000
     16  O2A       21.3650   -5.9830   22.1970 O.co2 378  BCL378      0.0000
     17  NB        14.0600   -9.1940   23.1830 N.ar  378  BCL378      0.0000
     18  C1B       15.1850  -10.0160   23.1610 C.ar  378  BCL378      0.0000
     19  C2B       14.8860  -11.2830   23.7070 C.ar  378  BCL378      0.0000
     20  C3B       13.5280  -11.2920   24.0460 C.ar  378  BCL378      0.0000
     21  C4B       13.0650   -9.9300   23.7750 C.ar  378  BCL378      0.0000
     22  CMB       15.9320  -12.3760   23.9020 C.3   378  BCL378      0.0000
     23  CAB       12.7490  -12.4270   24.5670 C.2   378  BCL378      0.0000
     24  OBB       11.5410  -12.6610   24.2970 O.2   378  BCL378      0.0000
     25  CBB       13.4200  -13.4310   25.4760 C.3   378  BCL378      0.0000
     26  NC        11.7310   -7.4710   22.4720 N.2   378  BCL378      0.0000
     27  C1C       11.0910   -8.3740   23.2760 C.1   378  BCL378      0.0000
     28  C2C        9.6130   -8.2670   23.2160 C.2   378  BCL378      0.0000
     29  C3C        9.3890   -7.1780   22.1620 C.2   378  BCL378      0.0000
     30  C4C       10.7750   -6.6440   21.9250 C.2   378  BCL378      0.0000
     31  CMC        8.9170   -9.5980   22.9270 C.3   378  BCL378      0.0000
     32  CAC        8.4740   -6.1090   22.7600 C.3   378  BCL378      0.0000
     33  CBC        8.4870   -6.1630   24.2740 C.3   378  BCL378      0.0000
     34  ND        13.5000   -5.8700   20.9440 N.ar  378  BCL378      0.0000
     35  C1D       12.3510   -5.1550   20.5780 C.ar  378  BCL378      0.0000
     36  C2D       12.6710   -4.0610   19.7370 C.ar  378  BCL378      0.0000
     37  C3D       14.0570   -4.0720   19.6400 C.ar  378  BCL378      0.0000
     38  C4D       14.5110   -5.2000   20.3140 C.ar  378  BCL378      0.0000
     39  CMD       11.6910   -3.1310   19.1000 C.3   378  BCL378      0.0000
     40  CAD       15.2100   -3.3130   19.3330 C.2   378  BCL378      0.0000
     41  OBD       15.3100   -2.1310   18.9670 O.2   378  BCL378      0.0000
     42  CBD       16.4710   -4.2010   19.5950 C.3   378  BCL378      0.0000
     43  CGD       17.2920   -4.4740   18.3910 C.2   378  BCL378      0.0000
     44  O1D       18.3510   -3.9220   18.1360 O.2   378  BCL378      0.0000
     45  O2D       16.7920   -5.4080   17.5820 O.3   378  BCL378      0.0000
     46  CED       17.6000   -5.9140   16.4790 C.3   378  BCL378      0.0000
@<TRIPOS>BOND
     1    46    45    1
     2    45    43    1
     3    44    43    2
     4    43    42    1
     5    41    40    2
     6    39    36    1
     7    40    42    1
     8    40    37    1
     9    42     2    1
    10    37    36   ar
    11    37    38   ar
    12    36    35   ar
    13     2    38    2
    14     2     7    1
    15    38    34   ar
    16     8     7    1
    17     8    12    1
    18     8     9    2
    19    35    34   ar
    20    35     5    2
    21     7     6    2
    22    11     9    1
    23    12    13    1
    24    34     1    1
    25     5    30    1
    26     9    10    1
    27     6    10    2
    28     1    17    1
    29    10     3    2
    30    30    29    1
    31    30    26    2
    32    29    32    1
    33    29    28    2
    34    16    14   ar
    35    13    14    1
    36    26    27    2
    37     3    18    1
    38    32    33    1
    39    14    15   ar
    40    31    28    1
    41    18    17   ar
    42    18    19   ar
    43    17    21   ar
    44    28    27    1
    45    27     4    2
    46    19    22    1
    47    19    20   ar
    48    21     4    1
    49    21    20   ar
    50    20    23    1
    51    24    23    2
    52    23    25    1
