@<TRIPOS>MOLECULE
3enk_GUD_A_1.pdb
 36 38 0 0 0
SMALL
GASTEIGER

@<TRIPOS>ATOM
      1  N1        14.3470   -0.5950   14.0660 N.am  342  GUD342     -0.1766
      2  C2        14.2490   -1.4150   15.1980 C.1   342  GUD342      0.2845
      3  N3        13.1910   -2.1850   15.3560 N.2   342  GUD342     -0.2452
      4  C4        12.1840   -2.1540   14.4580 C.1   342  GUD342      0.2182
      5  C5        12.2570   -1.3430   13.3310 C.2   342  GUD342      0.1242
      6  C6        13.3660   -0.5530   13.1590 C.2   342  GUD342      0.0929
      7  O2        15.1740   -1.4280   16.0340 O.2   342  GUD342     -0.1918
      8  O4        11.1860   -2.8810   14.6170 O.2   342  GUD342     -0.2085
      9  C1D       15.5240    0.2590   13.9200 C.3   342  GUD342      0.2401
     10  C2D       16.3260    0.0290   12.6480 C.3   342  GUD342      0.2319
     11  O2D       17.3690   -0.9360   12.8560 O.3   342  GUD342     -0.2157
     12  C3D       16.8340    1.4310   12.3300 C.3   342  GUD342      0.2158
     13  C4D       15.7970    2.3870   12.9070 C.3   342  GUD342      0.1799
     14  O4D       15.0730    1.6260   13.8630 O.3   342  GUD342     -0.3320
     15  O3D       18.0880    1.7120   12.9730 O.3   342  GUD342     -0.2175
     16  C5D       14.8090    2.9030   11.8680 C.3   342  GUD342      0.1813
     17  O5D       14.4860    1.8440   10.9710 O.3   342  GUD342     -0.3112
     18  PA        13.1840    1.9440   10.0320 P.3   342  GUD342      0.2189
     19  O1A       12.8980    0.5430    9.5320 O.2   342  GUD342     -0.5170
     20  O2A       12.0540    2.7460   10.6480 O.3   342  GUD342     -0.4371
     21  O3A       13.7320    2.9170    8.8860 O.3   342  GUD342     -0.2703
     22  PB        15.1730    2.7420    8.1720 P.3   342  GUD342      0.2208
     23  O1B       16.1590    3.8210    8.5420 O.3   342  GUD342     -0.4371
     24  O2B       15.5920    1.2930    8.0900 O.2   342  GUD342     -0.5170
     25  O3B       14.7580    3.2170    6.7480 O.3   342  GUD342     -0.2857
     26  C1'       13.7550    2.4710    6.1410 C.3   342  GUD342      0.2742
     27  C2'       12.7710    3.5920    5.8720 C.3   342  GUD342      0.2409
     28  C3'       13.0890    4.3660    4.5840 C.3   342  GUD342      0.2198
     29  C4'       13.8160    3.5470    3.5130 C.3   342  GUD342      0.2144
     30  C5'       14.9670    2.7320    4.0820 C.3   342  GUD342      0.1835
     31  C6'       15.7270    1.9560    3.0050 C.3   342  GUD342      0.2142
     32  O2'       11.4930    2.9830    5.8950 O.3   342  GUD342     -0.2149
     33  O3'       11.8700    4.8360    4.0180 O.3   342  GUD342     -0.2174
     34  O4'       14.2840    4.4100    2.4740 O.3   342  GUD342     -0.2176
     35  O5'       14.3530    1.8410    4.9960 O.3   342  GUD342     -0.3254
     36  O6'       16.8600    1.2430    3.5370 O.3   342  GUD342     -0.2176
@<TRIPOS>BOND
     1    34    29    1
     2    31    36    1
     3    31    30    1
     4    29    30    1
     5    29    28    1
     6    33    28    1
     7    30    35    1
     8    28    27    1
     9    35    26    1
    10    27    32    1
    11    27    26    1
    12    26    25    1
    13    25    22    1
    14    24    22    2
    15    22    23    1
    16    22    21    1
    17    21    18    1
    18    19    18    2
    19    18    20    1
    20    18    17    1
    21    17    16    1
    22    16    13    1
    23    12    10    1
    24    12    13    1
    25    12    15    1
    26    10    11    1
    27    10     9    1
    28    13    14    1
    29     6     5    2
    30     6     1    1
    31     5     4    1
    32    14     9    1
    33     9     1    1
    34     1     2   am
    35     4     8    2
    36     4     3    2
    37     2     3    2
    38     2     7    2
