@<TRIPOS>MOLECULE
3enk_NAD_A_1.pdb
 44 48 0 0 0
SMALL
GASTEIGER

@<TRIPOS>ATOM
      1  PA         2.6020    4.5770    1.3280 P.3   341  NAD341      0.2189
      2  O1A        2.6360    3.1400    0.9390 O.2   341  NAD341     -0.5170
      3  O2A        1.6930    4.8630    2.4690 O.3   341  NAD341     -0.4371
      4  O5B        2.1060    5.4870    0.1070 O.3   341  NAD341     -0.3112
      5  C5B        2.2580    5.0110   -1.2090 C.3   341  NAD341      0.1813
      6  C4B        0.8950    4.9440   -1.9010 C.3   341  NAD341      0.1821
      7  O4B        1.1140    4.5690   -3.2590 O.3   341  NAD341     -0.3135
      8  C3B       -0.0090    3.8550   -1.3200 C.3   341  NAD341      0.2184
      9  O3B       -1.2380    4.4700   -0.9900 O.3   341  NAD341     -0.2174
     10  C2B       -0.1750    2.8410   -2.4680 C.3   341  NAD341      0.2570
     11  O2B       -1.4490    2.2120   -2.5630 O.3   341  NAD341     -0.2130
     12  C1B        0.0890    3.6920   -3.6840 C.3   341  NAD341      0.3186
     13  N9A        0.5450    3.0130   -4.9110 N.pl3 341  NAD341     -0.1439
     14  C8A        1.5940    2.1390   -5.0070 C.3   341  NAD341      0.3377
     15  N7A        1.6950    1.7730   -6.2950 N.2   341  NAD341     -0.2095
     16  C5A        0.7120    2.3980   -7.0150 C.2   341  NAD341      0.2526
     17  C6A        0.3580    2.3720   -8.3660 C.2   341  NAD341      0.4393
     18  N6A        0.9770    1.5920   -9.2950 N.pl3 341  NAD341      0.2180
     19  N1A       -0.6970    3.1580   -8.7640 N.2   341  NAD341      0.0021
     20  C2A       -1.4040    3.9530   -7.8750 C.3   341  NAD341      0.5254
     21  N3A       -1.0840    3.9470   -6.5390 N.2   341  NAD341     -0.0055
     22  C4A       -0.0130    3.1880   -6.1330 C.2   341  NAD341      0.3518
     23  O3         4.0810    5.0570    1.6260 O.3   341  NAD341     -0.2703
     24  PN         4.5220    6.5130    2.1170 P.3   341  NAD341      0.2189
     25  O1N        5.2140    6.2890    3.3860 O.3   341  NAD341     -0.4371
     26  O2N        3.4630    7.5700    1.9780 O.2   341  NAD341     -0.5170
     27  O5D        5.6130    6.8720    0.9840 O.3   341  NAD341     -0.3112
     28  C5D        5.2480    7.7020   -0.0980 C.3   341  NAD341      0.1813
     29  C4D        6.4320    7.8400   -1.0640 C.3   341  NAD341      0.1799
     30  O4D        7.5560    8.2870   -0.3330 O.3   341  NAD341     -0.3327
     31  C3D        6.8400    6.5460   -1.7420 C.3   341  NAD341      0.2158
     32  O3D        7.2760    6.8940   -3.0490 O.3   341  NAD341     -0.2175
     33  C2D        8.0230    6.0850   -0.9020 C.3   341  NAD341      0.2309
     34  O2D        8.9110    5.2590   -1.6220 O.3   341  NAD341     -0.2158
     35  C1D        8.6560    7.4230   -0.5230 C.3   341  NAD341      0.2263
     36  N1N        9.4550    7.4450    0.7090 N.pl3 341  NAD341     -0.2787
     37  C2N        8.9020    7.0390    1.9030 C.3   341  NAD341      0.1244
     38  C3N        9.6340    7.1040    3.0650 C.2   341  NAD341      0.0544
     39  C7N        9.0570    6.5830    4.3370 C.2   341  NAD341      0.2818
     40  O7N        9.9710    6.2060    5.3050 O.2   341  NAD341     -0.2670
     41  N7N        7.7360    6.5020    4.5210 N.am  341  NAD341     -0.0839
     42  C4N       10.9520    7.5820    3.0390 C.2   341  NAD341      0.0033
     43  C5N       11.5050    7.9780    1.8150 C.2   341  NAD341      0.0157
     44  C6N       10.7280    7.9540    0.6620 C.2   341  NAD341      0.0633
@<TRIPOS>BOND
     1    18    17    1
     2    19    17    2
     3    19    20    1
     4    17    16    1
     5    20    21    1
     6    16    15    2
     7    16    22    1
     8    21    22    2
     9    15    14    1
    10    22    13    1
    11    14    13    1
    12    13    12    1
    13    12     7    1
    14    12    10    1
    15     7     6    1
    16    32    31    1
    17    11    10    1
    18    10     8    1
    19     6     8    1
    20     6     5    1
    21    31    29    1
    22    31    33    1
    23    34    33    1
    24     8     9    1
    25     5     4    1
    26    29    30    1
    27    29    28    1
    28    33    35    1
    29    35    30    1
    30    35    36    1
    31    28    27    1
    32     4     1    1
    33    44    36    1
    34    44    43    2
    35    36    37    1
    36     2     1    2
    37    27    24    1
    38     1    23    1
    39     1     3    1
    40    23    24    1
    41    43    42    1
    42    37    38    1
    43    26    24    2
    44    24    25    1
    45    42    38    2
    46    38    39    1
    47    39    41   am
    48    39    40    2
