@<TRIPOS>MOLECULE
3ens_ENS_B_1.pdb
 36 39 0 0 0
SMALL
GASTEIGER

@<TRIPOS>ATOM
      1  C1         0.6170    8.1870   25.4980 C.3   301  ENS301      0.1329
      2  C2         5.8680    5.3800   28.1720 C.3   301  ENS301      0.0560
      3  C3         6.9920    5.2600   27.3440 C.2   301  ENS301     -0.0188
      4  C4         4.6010    5.6490   27.6210 C.2   301  ENS301      0.0267
      5  C5         7.6980    5.3510   24.9320 C.2   301  ENS301      0.0780
      6  C6         6.9700    5.5840   23.7740 C.2   301  ENS301      0.1103
      7  C7         6.8030    5.4170   25.9730 C.2   301  ENS301      0.0295
      8  C8         5.5770    5.6860   25.4230 C.2   301  ENS301      0.1243
      9  C9         4.4300    5.8120   26.2140 C.2   301  ENS301      0.2065
     10  C10        3.3450    9.6740   28.3840 C.2   301  ENS301      0.2732
     11  C11        1.0930    7.0690   25.7310 C.3   301  ENS301      0.2264
     12  C12        2.4350    7.0030   26.1770 C.2   301  ENS301      0.3492
     13  C13        0.4360    5.9530   25.3090 C.2   301  ENS301      0.3301
     14  C14        4.6520   12.7070   29.2470 C.2   301  ENS301      0.2459
     15  C15        0.3930    9.2050   29.6210 C.3   301  ENS301      0.0066
     16  C16        0.9080   10.5180   30.2160 C.3   301  ENS301      0.0217
     17  C17        7.2730   15.0700   30.0530 C.3   301  ENS301      0.0233
     18  C18        6.9930   14.3830   31.3860 C.3   301  ENS301      0.0233
     19  C19        1.5170    8.2800   29.1320 C.3   301  ENS301      0.0607
     20  C20        1.7170   11.3370   29.2050 C.3   301  ENS301      0.0940
     21  C21        6.1560   14.5910   29.1330 C.3   301  ENS301      0.0935
     22  C22        6.3060   13.0800   30.9960 C.3   301  ENS301      0.0935
     23  C23        2.3230    8.8490   27.9370 C.3   301  ENS301      0.2796
     24  C24       -1.3510    4.8650   24.4670 C.3   301  ENS301      0.2556
     25  C25        4.1220   11.4510   29.9040 C.3   301  ENS301      0.1794
     26  N26        0.1150    9.4280   25.2900 N.3   301  ENS301     -0.1301
     27  N27        5.6680    5.7920   24.0800 N.2   301  ENS301     -0.2392
     28  N28        3.0750   10.8170   29.1000 N.am  301  ENS301     -0.2679
     29  N29        5.6320   13.3960   29.7570 N.am  301  ENS301     -0.2781
     30  N30        3.2300    6.1280   25.6340 N.2   301  ENS301     -0.0390
     31  N31        2.9280    7.7200   27.2430 N.pl3 301  ENS301     -0.0295
     32  O32        4.6300    9.2240   28.2990 O.2   301  ENS301     -0.2704
     33  O33        1.0630    4.7390   25.3930 O.2   301  ENS301     -0.2494
     34  O34        4.1220   13.0750   28.0580 O.2   301  ENS301     -0.2730
     35  O35       -0.6890    6.0880   24.7320 O.3   301  ENS301     -0.4440
     36 CL36        9.4200    5.0590   25.0540 Cl    301  ENS301     -0.0806
@<TRIPOS>BOND
     1     6    27    1
     2     6     5    2
     3    27     8    2
     4    24    35    1
     5    35    13    1
     6     5    36    1
     7     5     7    1
     8    26     1    1
     9    13    33    2
    10    13    11    1
    11     8     7    1
    12     8     9    1
    13     1    11    1
    14    30    12    2
    15    30     9    1
    16    11    12    1
    17     7     3    2
    18    12    31    1
    19     9     4    2
    20    31    23    1
    21     3     2    1
    22     4     2    1
    23    23    10    1
    24    23    19    1
    25    34    14    2
    26    32    10    2
    27    10    28   am
    28    28    20    1
    29    28    25    1
    30    19    15    1
    31    21    29    1
    32    21    17    1
    33    20    16    1
    34    14    29   am
    35    14    25    1
    36    15    16    1
    37    29    22    1
    38    17    18    1
    39    22    18    1
