@<TRIPOS>MOLECULE
3env_ABF_A_1.pdb
 14 14 0 0 0
SMALL
GASTEIGER

@<TRIPOS>ATOM
      1  C1'      -18.8580  -41.5850   10.4780 C.2   1269  ABF1269     0.3843
      2  O1'      -18.8350  -42.5400    9.5120 O.3   1269  ABF1269    -0.4361
      3  C2'      -19.5770  -42.0440   11.5770 C.2   1269  ABF1269     0.3085
      4  O2'      -19.7930  -41.3480   12.7350 O.2   1269  ABF1269    -0.2764
      5  C3'      -20.0220  -43.3260   11.2550 C.2   1269  ABF1269     0.2605
      6  O3'      -20.7790  -44.1450   12.0650 O.2   1269  ABF1269    -0.2838
      7  C4'      -19.5510  -43.6150    9.9670 C.3   1269  ABF1269     0.2634
      8  C5'      -19.7020  -44.8680    9.0890 C.3   1269  ABF1269     0.2054
      9  O5'      -19.5590  -44.5200    7.6710 O.3   1269  ABF1269    -0.2659
     10  P'       -18.2020  -44.7310    6.7300 P.3   1269  ABF1269     0.5327
     11  O1X      -17.2360  -43.5920    6.7420 O.3   1269  ABF1269    -0.1145
     12  O2X      -17.4600  -46.0990    7.2270 O.3   1269  ABF1269    -0.1145
     13  O3X      -18.8220  -45.0760    5.2310 O.2   1269  ABF1269    -0.2224
     14  O1       -18.2490  -40.3670   10.3730 O.2   1269  ABF1269    -0.2411
@<TRIPOS>BOND
     1    13    10    2
     2    10    11    1
     3    10    12    1
     4    10     9    1
     5     9     8    1
     6     8     7    1
     7     2     7    1
     8     2     1    1
     9     7     5    1
    10    14     1    2
    11     1     3    1
    12     5     3    2
    13     5     6    1
    14     3     4    1
