@<TRIPOS>MOLECULE
3enw_5RP_A_1.pdb
 14 13 0 0 0
SMALL
GASTEIGER

@<TRIPOS>ATOM
      1  C2       -19.5730  -35.9160    9.0680 C.3   702  5RP702      0.2175
      2  C3       -19.1540  -37.3030    8.7350 C.3   702  5RP702      0.2175
      3  C5       -18.9140  -38.1780   10.0140 C.3   702  5RP702      0.2174
      4  O13      -17.8060  -39.0200    9.7030 O.3   702  5RP702     -0.2175
      5  C6       -20.1400  -38.9390   10.6070 C.3   702  5RP702      0.2147
      6  O14      -21.2890  -38.0680   10.5020 O.3   702  5RP702     -0.2176
      7  C7       -19.9870  -39.3150   12.1140 C.3   702  5RP702      0.1892
      8  O8       -19.1750  -40.5370   12.4660 O.3   702  5RP702     -0.2674
      9  P9       -19.7170  -42.0460   13.0010 P.3   702  5RP702      0.5327
     10  O12      -19.6850  -42.2490   14.4570 O.3   702  5RP702     -0.1145
     11  O11      -18.6300  -43.0900   12.4190 O.3   702  5RP702     -0.1145
     12  O10      -21.1800  -42.3620   12.3660 O.2   702  5RP702     -0.2224
     13  O4       -20.0810  -37.7910    7.7880 O.3   702  5RP702     -0.2175
     14  O1       -20.5660  -35.6010    8.0980 O.3   702  5RP702     -0.2175
@<TRIPOS>BOND
     1    13     2    1
     2    14     1    1
     3     2     1    1
     4     2     3    1
     5     4     3    1
     6     3     5    1
     7     6     5    1
     8     5     7    1
     9     7     8    1
    10    12     9    2
    11    11     9    1
    12     8     9    1
    13     9    10    1
