@<TRIPOS>MOLECULE
3enz_HPA_A_1.pdb
 10 11 0 0 0
SMALL
GASTEIGER

@<TRIPOS>ATOM
      1  N1        32.7640   18.8800   24.8260 N.2   301  HPA301     -0.1726
      2  C2        33.9890   19.2590   25.3620 C.3   301  HPA301      0.2725
      3  N3        34.1020   20.5140   25.9590 N.2   301  HPA301     -0.1902
      4  C4        32.9710   21.2910   26.0060 C.1   301  HPA301      0.0598
      5  C5        31.7420   20.8940   25.4580 C.2   301  HPA301      0.2226
      6  C6        31.6280   19.6860   24.8740 C.1   301  HPA301      0.1796
      7  O6        30.4970   19.3960   24.4160 O.2   301  HPA301     -0.2200
      8  N7        30.7980   21.8570   25.6210 N.2   301  HPA301     -0.2230
      9  C8        31.4460   22.8630   26.2600 C.3   301  HPA301      0.2622
     10  N9        32.7410   22.5170   26.4900 N.2   301  HPA301     -0.1910
@<TRIPOS>BOND
     1     7     6    2
     2     1     6    2
     3     1     2    1
     4     6     5    1
     5     2     3    1
     6     5     8    2
     7     5     4    1
     8     8     9    1
     9     3     4    2
    10     4    10    2
    11     9    10    1
