@<TRIPOS>MOLECULE
3eo7_FMN_A_1.pdb
 31 33 0 0 0
SMALL
GASTEIGER

@<TRIPOS>ATOM
      1  N1        50.2700   36.6470  -11.3290 N.2   700  FMN700     -0.2887
      2  C2        51.1470   36.9320  -12.3620 C.1   700  FMN700      0.3669
      3  O2        50.7930   37.6090  -13.3210 O.2   700  FMN700     -0.1744
      4  N3        52.4330   36.4630  -12.4030 N.2   700  FMN700     -0.2300
      5  C4        52.9320   35.6410  -11.4370 C.1   700  FMN700      0.2513
      6  O4        54.1540   35.4020  -11.4320 O.2   700  FMN700     -0.2057
      7  C4A       52.0860   35.3310  -10.3740 C.2   700  FMN700      0.2703
      8  N5        52.5120   34.4610   -9.3890 N.2   700  FMN700     -0.3882
      9  C5A       51.6890   34.2210   -8.2700 C.2   700  FMN700      0.1277
     10  C6        52.1240   33.4460   -7.2010 C.3   700  FMN700      0.0820
     11  C7        51.3030   33.1880   -6.1040 C.2   700  FMN700     -0.0408
     12  C7M       51.8560   32.4310   -4.8870 C.3   700  FMN700      0.0265
     13  C8        50.0190   33.7160   -6.0620 C.2   700  FMN700     -0.0280
     14  C8M       49.1540   33.6360   -4.8210 C.3   700  FMN700      0.0304
     15  C9        49.5540   34.5100   -7.1270 C.2   700  FMN700      0.0123
     16  C9A       50.3910   34.7620   -8.2280 C.2   700  FMN700      0.0793
     17  N10       49.9360   35.5370   -9.2880 N.pl3 700  FMN700     -0.2545
     18  C10       50.7680   35.8320  -10.3340 C.2   700  FMN700      0.2449
     19  C1'       48.4790   35.9340   -9.4120 C.3   700  FMN700      0.1336
     20  C2'       47.5820   34.8000   -9.8650 C.3   700  FMN700      0.2048
     21  O2'       47.6970   34.6320  -11.2950 O.3   700  FMN700     -0.2185
     22  C3'       46.1440   35.1020   -9.4490 C.3   700  FMN700      0.2165
     23  O3'       46.0300   35.0680   -8.0230 O.3   700  FMN700     -0.2175
     24  C4'       45.0960   34.1840  -10.1060 C.3   700  FMN700      0.2147
     25  O4'       45.1050   34.3400  -11.5530 O.3   700  FMN700     -0.2176
     26  C5'       43.7160   34.4870   -9.5550 C.3   700  FMN700      0.1892
     27  O5'       43.3430   35.8220   -9.7670 O.3   700  FMN700     -0.2674
     28  P         42.9690   36.7920   -8.5750 P.3   700  FMN700      0.5327
     29  O1P       44.2130   36.9670   -7.7100 O.3   700  FMN700     -0.1145
     30  O2P       42.5540   38.0920   -9.2540 O.2   700  FMN700     -0.2224
     31  O3P       41.8370   36.2100   -7.7800 O.3   700  FMN700     -0.1145
@<TRIPOS>BOND
     1     3     2    2
     2     4     2    2
     3     4     5    2
     4     2     1    2
     5    25    24    1
     6     5     6    2
     7     5     7    1
     8     1    18    2
     9    21    20    1
    10     7    18    1
    11     7     8    2
    12    18    17    1
    13    24    26    1
    14    24    22    1
    15    20    22    1
    16    20    19    1
    17    27    26    1
    18    27    28    1
    19    22    23    1
    20    19    17    1
    21     8     9    2
    22    17    16    1
    23    30    28    2
    24    28    31    1
    25    28    29    1
    26     9    16    1
    27     9    10    1
    28    16    15    2
    29    10    11    1
    30    15    13    1
    31    11    13    2
    32    11    12    1
    33    13    14    1
