@<TRIPOS>MOLECULE
3eo8_FMN_A_1.pdb
 31 33 0 0 0
SMALL
GASTEIGER

@<TRIPOS>ATOM
      1  N1        68.0360  136.3490  -12.7180 N.2   500  FMN500     -0.2887
      2  C2        68.2000  135.0620  -13.1710 C.1   500  FMN500      0.3669
      3  O2        67.8450  134.0780  -12.5070 O.2   500  FMN500     -0.1744
      4  N3        68.7580  134.8440  -14.4010 N.2   500  FMN500     -0.2300
      5  C4        69.2190  135.8570  -15.1890 C.1   500  FMN500      0.2513
      6  O4        69.7030  135.5940  -16.3130 O.2   500  FMN500     -0.2057
      7  C4A       69.0570  137.1620  -14.7400 C.2   500  FMN500      0.2706
      8  N5        69.4750  138.2170  -15.5280 N.2   500  FMN500     -0.3841
      9  C5A       69.2830  139.5160  -15.1080 C.2   500  FMN500      0.1452
     10  C6        69.6840  140.5430  -15.9430 C.2   500  FMN500      0.0252
     11  C7        69.4900  141.8550  -15.5470 C.2   500  FMN500     -0.0375
     12  C7M       69.5610  142.8950  -16.6160 C.3   500  FMN500      0.0268
     13  C8        68.8670  142.1260  -14.3230 C.3   500  FMN500      0.0417
     14  C8M       68.3000  143.4950  -14.0710 C.3   500  FMN500      0.0091
     15  C9        68.4630  141.0860  -13.5010 C.2   500  FMN500     -0.0049
     16  C9A       68.6580  139.7690  -13.8850 C.2   500  FMN500      0.0795
     17  N10       68.2940  138.6990  -13.0680 N.pl3 500  FMN500     -0.2545
     18  C10       68.4410  137.4030  -13.5190 C.2   500  FMN500      0.2449
     19  C1'       67.7060  138.9070  -11.6970 C.3   500  FMN500      0.1336
     20  C2'       68.7570  139.2270  -10.6350 C.3   500  FMN500      0.2048
     21  O2'       69.4670  138.0490  -10.2720 O.3   500  FMN500     -0.2185
     22  C3'       68.0520  139.7970   -9.4120 C.3   500  FMN500      0.2165
     23  O3'       67.4120  141.0120   -9.7850 O.3   500  FMN500     -0.2175
     24  C4'       68.9360  140.0280   -8.1900 C.3   500  FMN500      0.2147
     25  O4'       69.4980  138.8140   -7.7230 O.3   500  FMN500     -0.2176
     26  C5'       68.0870  140.6630   -7.0810 C.3   500  FMN500      0.1892
     27  O5'       67.0580  139.7610   -6.7180 O.3   500  FMN500     -0.2674
     28  P         65.5290  140.2970   -6.6760 P.3   500  FMN500      0.5327
     29  O1P       64.6290  139.1760   -6.2480 O.3   500  FMN500     -0.1145
     30  O2P       65.2230  140.7250   -8.1030 O.2   500  FMN500     -0.2224
     31  O3P       65.3750  141.5110   -5.7710 O.3   500  FMN500     -0.1145
@<TRIPOS>BOND
     1    12    11    1
     2     6     5    2
     3    10    11    2
     4    10     9    1
     5    11    13    1
     6     8     9    2
     7     8     7    2
     8     5     7    1
     9     5     4    2
    10     9    16    1
    11     7    18    1
    12     4     2    2
    13    13    14    1
    14    13    15    1
    15    16    15    2
    16    16    17    1
    17    18    17    1
    18    18     1    2
    19     2     1    2
    20     2     3    2
    21    17    19    1
    22    19    20    1
    23    20    21    1
    24    20    22    1
    25    23    22    1
    26    22    24    1
    27    24    25    1
    28    24    26    1
    29    30    28    2
    30    26    27    1
    31    27    28    1
    32    28    29    1
    33    28    31    1
