@<TRIPOS>MOLECULE
3eoc_T2A_A_1.pdb
 29 32 0 0 0
SMALL
GASTEIGER

@<TRIPOS>ATOM
      1  N1         0.0510   91.8050   30.5140 N.pl3 501  T2A501     -0.1495
      2  C5         0.6360   91.9280   32.8490 C.2   501  T2A501      0.1299
      3  C6         0.4750   91.2270   31.6810 C.2   501  T2A501      0.1224
      4  C7         0.6800   89.9050   31.3650 C.2   501  T2A501      0.1281
      5  C10       -0.4080   91.1640   28.0970 C.ar  501  T2A501      0.0459
      6  C13       -1.0430   91.5730   25.4700 C.ar  501  T2A501      0.0000
      7  C15       -1.6450   91.6780   27.7820 C.ar  501  T2A501      0.0039
      8  C20       -0.6700   96.9130   28.5480 C.ar  501  T2A501      0.1768
      9  C21       -1.5440   97.9240   28.8830 C.ar  501  T2A501      0.2061
     10  C22       -2.0090   98.0210   30.1790 C.ar  501  T2A501      0.1768
     11  N2        -0.2530   93.2240   30.5070 N.2   501  T2A501     -0.1010
     12  C3        -0.0710   93.8260   31.6920 C.1   501  T2A501      0.1317
     13  N4         0.3520   93.2350   32.8200 N.2   501  T2A501     -0.1761
     14  N8         0.3580   89.7700   30.0290 N.2   501  T2A501     -0.3879
     15  C9        -0.0260   90.9350   29.5040 C.2   501  T2A501      0.2062
     16  C11        0.5120   90.8520   27.1190 C.ar  501  T2A501      0.0039
     17  C12        0.1940   91.0590   25.7960 C.ar  501  T2A501      0.0001
     18  C14       -1.9580   91.8800   26.4550 C.ar  501  T2A501      0.0001
     19  C16        1.1310   88.7590   32.1470 C.3   501  T2A501      0.0679
     20  N17       -0.3290   95.2020   31.8210 N.pl3 501  T2A501     -0.1447
     21  C18       -0.7180   96.0940   30.8040 C.ar  501  T2A501      0.0879
     22  C19       -0.2560   96.0090   29.5070 C.ar  501  T2A501      0.0576
     23  C23       -1.5920   97.1090   31.1270 C.ar  501  T2A501      0.0576
     24  O24       -2.8960   99.0400   30.5040 O.3   501  T2A501     -0.4682
     25  C25       -2.7070   99.3690   31.8750 C.3   501  T2A501      0.2526
     26  O26       -1.9560   98.8260   27.9150 O.3   501  T2A501     -0.4654
     27  C27       -1.0530   99.9230   27.9700 C.3   501  T2A501      0.2528
     28  O28       -0.2110   96.8350   27.2440 O.3   501  T2A501     -0.4682
     29  C29        0.2610   95.5090   27.0460 C.3   501  T2A501      0.2526
@<TRIPOS>BOND
     1     6    17   ar
     2     6    18   ar
     3    17    16   ar
     4    18     7   ar
     5    29    28    1
     6    16     5   ar
     7    28     8    1
     8     7     5   ar
     9    26    27    1
    10    26     9    1
    11     5    15    1
    12     8     9   ar
    13     8    22   ar
    14     9    10   ar
    15    15    14    2
    16    15     1    1
    17    22    21   ar
    18    14     4    2
    19    10    24    1
    20    10    23   ar
    21    24    25    1
    22    11     1    1
    23    11    12    2
    24     1     3    1
    25    21    23   ar
    26    21    20    1
    27     4     3    1
    28     4    19    1
    29     3     2    2
    30    12    20    1
    31    12    13    2
    32    13     2    1
