@<TRIPOS>MOLECULE
3eof_FMN_A_1.pdb
 31 33 0 0 0
SMALL
GASTEIGER

@<TRIPOS>ATOM
      1  N1        31.8300    2.0040    1.9640 N.2   300  FMN300     -0.2890
      2  C2        32.9970    2.5710    1.4390 C.1   300  FMN300      0.3669
      3  O2        33.2290    2.5400    0.2200 O.2   300  FMN300     -0.1744
      4  N3        33.9480    3.1570    2.2770 N.2   300  FMN300     -0.2300
      5  C4        33.7890    3.2130    3.6760 C.1   300  FMN300      0.2513
      6  O4        34.4410    4.1000    4.3470 O.2   300  FMN300     -0.2057
      7  C4A       32.5990    2.6100    4.1910 C.2   300  FMN300      0.2700
      8  N5        32.3710    2.6170    5.5600 N.2   300  FMN300     -0.3878
      9  C5A       31.2110    2.0910    6.1090 C.2   300  FMN300      0.1320
     10  C6        31.0630    2.1640    7.5010 C.2   300  FMN300      0.0250
     11  C7        29.9400    1.6480    8.1220 C.2   300  FMN300     -0.0238
     12  C7M       29.8610    1.7390    9.6190 C.3   300  FMN300      0.0308
     13  C8        28.9520    1.0390    7.3520 C.2   300  FMN300     -0.0280
     14  C8M       27.6520    0.7080    8.0060 C.3   300  FMN300      0.0304
     15  C9        29.0930    0.9610    5.9480 C.2   300  FMN300     -0.0041
     16  C9A       30.2330    1.4860    5.2880 C.3   300  FMN300      0.1497
     17  N10       30.4540    1.4440    3.8880 N.pl3 300  FMN300     -0.2691
     18  C10       31.6250    2.0050    3.3470 C.2   300  FMN300      0.2416
     19  C1'       29.4980    0.7360    2.9310 C.3   300  FMN300      0.1294
     20  C2'       29.6830   -0.7680    3.0730 C.3   300  FMN300      0.2044
     21  O2'       30.9480   -1.1220    2.4980 O.3   300  FMN300     -0.2185
     22  C3'       28.5060   -1.5330    2.5010 C.3   300  FMN300      0.2164
     23  O3'       27.2890   -1.3150    3.2390 O.3   300  FMN300     -0.2175
     24  C4'       28.7650   -3.0450    2.4370 C.3   300  FMN300      0.2147
     25  O4'       29.7510   -3.3450    1.4690 O.3   300  FMN300     -0.2176
     26  C5'       27.5230   -3.7520    1.9730 C.3   300  FMN300      0.1892
     27  O5'       27.1750   -3.0900    0.7550 O.3   300  FMN300     -0.2674
     28  P         25.6580   -2.5630    0.4710 P.3   300  FMN300      0.5327
     29  O1P       25.2780   -1.4380    1.4570 O.3   300  FMN300     -0.1145
     30  O2P       24.7200   -3.7260    0.6680 O.3   300  FMN300     -0.1145
     31  O3P       25.6630   -2.1870   -1.0180 O.2   300  FMN300     -0.2224
@<TRIPOS>BOND
     1    31    28    2
     2     3     2    2
     3    28    30    1
     4    28    27    1
     5    28    29    1
     6    27    26    1
     7     2     1    2
     8     2     4    2
     9    25    24    1
    10     1    18    2
    11    26    24    1
    12     4     5    2
    13    24    22    1
    14    21    20    1
    15    22    20    1
    16    22    23    1
    17    19    20    1
    18    19    17    1
    19    18    17    1
    20    18     7    1
    21     5     7    1
    22     5     6    2
    23    17    16    1
    24     7     8    2
    25    16    15    1
    26    16     9    1
    27     8     9    2
    28    15    13    2
    29     9    10    1
    30    13    14    1
    31    13    11    1
    32    10    11    2
    33    11    12    1
