@<TRIPOS>MOLECULE
3eoj_BCL_A_8.pdb
 47 53 0 0 0
SMALL
GASTEIGER

@<TRIPOS>ATOM
      1 MG         34.8890   27.6590   14.9250 Mg    378  BCL378      0.0000
      2  CHA       36.7040   30.1760   13.3780 C.2   378  BCL378      0.0000
      3  CHB       32.0270   29.0860   13.8660 C.2   378  BCL378      0.0000
      4  CHC       33.2330   24.9400   16.0250 C.2   378  BCL378      0.0000
      5  CHD       37.8750   26.1830   15.9240 C.2   378  BCL378      0.0000
      6  NA        34.4490   29.4340   13.8100 N.2   378  BCL378      0.0000
      7  C1A       35.3420   30.3830   13.3570 C.2   378  BCL378      0.0000
      8  C2A       34.6210   31.5000   12.6310 C.2   378  BCL378      0.0000
      9  C3A       33.1470   31.2040   12.9320 C.2   378  BCL378      0.0000
     10  C4A       33.1380   29.8510   13.5430 C.1   378  BCL378      0.0000
     11  CMA       32.6440   32.3300   13.8580 C.3   378  BCL378      0.0000
     12  CAA       34.9390   31.6160   11.1690 C.3   378  BCL378      0.0000
     13  CBA       34.5520   30.5900   10.0890 C.3   378  BCL378      0.0000
     14  CGA       34.9190   31.1840    8.7450 C.2   378  BCL378      0.0000
     15  O1A       35.8050   31.9830    8.5930 O.2   378  BCL378      0.0000
     16  O2A       34.2890   30.8580    7.6760 O.3   378  BCL378      0.0000
     17  NB        32.9340   27.0830   14.9550 N.ar  378  BCL378      0.0000
     18  C1B       31.8470   27.8540   14.5590 C.ar  378  BCL378      0.0000
     19  C2B       30.6540   27.1630   14.8560 C.ar  378  BCL378      0.0000
     20  C3B       30.9720   25.9490   15.4380 C.ar  378  BCL378      0.0000
     21  C4B       32.4200   25.9450   15.5000 C.ar  378  BCL378      0.0000
     22  CMB       29.2970   27.8900   14.9100 C.3   378  BCL378      0.0000
     23  CAB       30.1690   24.9840   16.1490 C.2   378  BCL378      0.0000
     24  OBB       30.6340   24.2400   17.0510 O.2   378  BCL378      0.0000
     25  CBB       28.6960   24.8020   15.8520 C.3   378  BCL378      0.0000
     26  NC        35.4870   25.7920   15.7400 N.2   378  BCL378      0.0000
     27  C1C       34.6220   24.8330   16.1740 C.1   378  BCL378      0.0000
     28  C2C       35.2810   23.5860   16.6370 C.2   378  BCL378      0.0000
     29  C3C       36.7800   23.9320   16.4920 C.2   378  BCL378      0.0000
     30  C4C       36.7640   25.3690   16.0580 C.2   378  BCL378      0.0000
     31  CMC       34.8610   23.2010   18.0620 C.3   378  BCL378      0.0000
     32  CAC       37.5240   23.0080   15.4910 C.3   378  BCL378      0.0000
     33  CBC       37.9100   21.6790   16.0550 C.3   378  BCL378      0.0000
     34  ND        36.8720   28.0840   14.7730 N.ar  378  BCL378      0.0000
     35  C1D       38.0130   27.3330   15.0880 C.ar  378  BCL378      0.0000
     36  C2D       39.1990   27.9770   14.6150 C.ar  378  BCL378      0.0000
     37  C3D       38.7430   29.0870   13.8850 C.ar  378  BCL378      0.0000
     38  C4D       37.3460   29.0340   13.8990 C.ar  378  BCL378      0.0000
     39  CMD       40.5940   27.4740   14.8070 C.3   378  BCL378      0.0000
     40  CAD       39.0640   30.0340   12.8670 C.2   378  BCL378      0.0000
     41  OBD       40.1320   30.2630   12.2710 O.2   378  BCL378      0.0000
     42  CBD       37.8160   30.9090   12.6270 C.3   378  BCL378      0.0000
     43  CGD       38.0590   32.2950   13.0770 C.2   378  BCL378      0.0000
     44  O1D       38.4020   33.2350   12.3660 O.2   378  BCL378      0.0000
     45  O2D       37.8650   32.4420   14.3770 O.3   378  BCL378      0.0000
     46  CED       37.9650   33.7730   14.9450 C.3   378  BCL378      0.0000
     47  C1        34.4220   31.7420    6.5240 C.3   378  BCL378      0.0000
@<TRIPOS>BOND
     1    47    16    1
     2    16    14    1
     3    15    14    2
     4    14    13    1
     5    13    12    1
     6    12     8    1
     7    41    40    2
     8    44    43    2
     9    42    40    1
    10    42    43    1
    11    42     2    1
    12     8     9    2
    13     8     7    1
    14    40    37    1
    15     9    10    1
    16     9    11    1
    17    43    45    1
    18     7     2    1
    19     7     6    2
    20     2    38    2
    21    10     6    2
    22    10     3    2
    23     3    18    1
    24    37    38   ar
    25    37    36   ar
    26    38    34   ar
    27    45    46    1
    28    18    19   ar
    29    18    17   ar
    30    36    39    1
    31    36    35   ar
    32    34     1    1
    33    34    35   ar
    34    19    22    1
    35    19    20   ar
    36     1    17    1
    37    17    21   ar
    38    35     5    2
    39    20    21   ar
    40    20    23    1
    41    32    33    1
    42    32    29    1
    43    21     4    1
    44    26    30    2
    45    26    27    2
    46    25    23    1
    47     5    30    1
    48     4    27    2
    49    30    29    1
    50    23    24    2
    51    27    28    1
    52    29    28    2
    53    28    31    1
