@<TRIPOS>MOLECULE
3eok_HEM_A_1.pdb
 43 50 0 0 0
SMALL
GASTEIGER

@<TRIPOS>ATOM
      1  CHA        8.1270    4.9490  -20.6170 C.2   142  HEM142      0.0000
      2  CHB        6.3230    7.4720  -16.9030 C.2   142  HEM142      0.0000
      3  CHC       10.1400    6.0720  -14.2780 C.2   142  HEM142      0.0000
      4  CHD       12.2590    3.9960  -18.1350 C.2   142  HEM142      0.0000
      5  C1A        7.3280    5.7920  -19.8660 C.2   142  HEM142      0.0000
      6  C2A        6.1620    6.5210  -20.3260 C.2   142  HEM142      0.0000
      7  C3A        5.6640    7.2380  -19.3090 C.2   142  HEM142      0.0000
      8  C4A        6.4930    6.9500  -18.1570 C.2   142  HEM142      0.0000
      9  CMA        4.4310    8.1790  -19.3090 C.3   142  HEM142      0.0000
     10  CAA        5.6590    6.5120  -21.7810 C.3   142  HEM142      0.0000
     11  CBA        4.5760    5.4770  -21.9800 C.3   142  HEM142      0.0000
     12  CGA        3.9890    5.7580  -23.3460 C.2   142  HEM142      0.0000
     13  O1A        2.8410    5.2980  -23.5990 O.co2 142  HEM142      0.0000
     14  O2A        4.6770    6.4370  -24.1630 O.co2 142  HEM142      0.0000
     15  C1B        7.1850    7.2740  -15.8470 C.ar  142  HEM142      0.0000
     16  C2B        6.9600    7.7070  -14.4920 C.ar  142  HEM142      0.0000
     17  C3B        8.0140    7.3140  -13.7560 C.ar  142  HEM142      0.0000
     18  C4B        8.9310    6.6220  -14.6350 C.ar  142  HEM142      0.0000
     19  CMB        5.6920    8.4750  -14.0510 C.3   142  HEM142      0.0000
     20  CAB        8.2730    7.5240  -12.2420 C.2   142  HEM142      0.0000
     21  CBB        7.7140    8.5160  -11.5500 C.2   142  HEM142      0.0000
     22  C1C       11.0770    5.4800  -15.0980 C.2   142  HEM142      0.0000
     23  C2C       12.4340    5.1260  -14.7380 C.2   142  HEM142      0.0000
     24  C3C       13.0400    4.5670  -15.8090 C.2   142  HEM142      0.0000
     25  C4C       12.0580    4.5070  -16.8770 C.2   142  HEM142      0.0000
     26  CMC       13.0710    5.4000  -13.3560 C.3   142  HEM142      0.0000
     27  CAC       14.4800    4.0130  -15.9300 C.2   142  HEM142      0.0000
     28  CBC       15.5670    4.5780  -15.3800 C.2   142  HEM142      0.0000
     29  C1D       11.3510    4.0740  -19.1760 C.ar  142  HEM142      0.0000
     30  C2D       11.5990    3.6280  -20.5370 C.ar  142  HEM142      0.0000
     31  C3D       10.3090    3.9290  -21.2990 C.ar  142  HEM142      0.0000
     32  C4D        9.4090    4.5280  -20.3390 C.ar  142  HEM142      0.0000
     33  CMD       12.8930    2.9730  -21.0890 C.3   142  HEM142      0.0000
     34  CAD       10.0200    3.6500  -22.7870 C.3   142  HEM142      0.0000
     35  CBD       10.6480    4.7740  -23.6080 C.3   142  HEM142      0.0000
     36  CGD       10.3380    4.5700  -25.0750 C.2   142  HEM142      0.0000
     37  O1D        9.3580    5.1740  -25.5820 O.co2 142  HEM142      0.0000
     38  O2D       11.0620    3.7960  -25.7440 O.co2 142  HEM142      0.0000
     39  NA         7.4970    6.0820  -18.5440 N.2   142  HEM142      0.0000
     40  NB         8.3860    6.6160  -15.9050 N.ar  142  HEM142      0.0000
     41  NC        10.8780    5.0810  -16.4090 N.2   142  HEM142      0.0000
     42  ND        10.0540    4.5940  -19.1080 N.ar  142  HEM142      0.0000
     43 FE          9.1370    5.6060  -17.5230 Fe    142  HEM142      0.0000
@<TRIPOS>BOND
     1    38    36   ar
     2    37    36   ar
     3    36    35    1
     4    14    12   ar
     5    35    34    1
     6    13    12   ar
     7    12    11    1
     8    34    31    1
     9    11    10    1
    10    10     6    1
    11    31    30   ar
    12    31    32   ar
    13    33    30    1
    14     1    32    2
    15     1     5    1
    16    30    29   ar
    17    32    42   ar
    18     6     5    1
    19     6     7    2
    20     5    39    2
    21     9     7    1
    22     7     8    1
    23    29    42   ar
    24    29     4    2
    25    42    43    1
    26    39     8    1
    27    39    43    1
    28     8     2    2
    29     4    25    1
    30    43    41    1
    31    43    40    1
    32     2    15    1
    33    25    41    2
    34    25    24    1
    35    41    22    1
    36    27    24    1
    37    27    28    2
    38    40    15   ar
    39    40    18   ar
    40    15    16   ar
    41    24    23    2
    42    22    23    1
    43    22     3    2
    44    23    26    1
    45    18     3    1
    46    18    17   ar
    47    16    19    1
    48    16    17   ar
    49    17    20    1
    50    20    21    2
