@<TRIPOS>MOLECULE
3eon_341_C_1.pdb
 10 10 0 0 0
SMALL
GASTEIGER

@<TRIPOS>ATOM
      1  C3       -15.1240   72.9490    4.0800 C.ar  501  341501      0.1421
      2  C4       -15.1870   72.3700    2.8090 C.ar  501  341501      0.0280
      3  C5       -15.1260   70.9750    2.6750 C.ar  501  341501      0.0150
      4  C6       -15.0070   70.1690    3.8070 C.ar  501  341501      0.0280
      5  C1       -14.9420   70.7560    5.0690 C.ar  501  341501      0.1421
      6  C2       -15.0000   72.1420    5.2070 C.ar  501  341501      0.0592
      7  F8       -14.8300   69.9810    6.1590 F     501  341501     -0.2041
      8  C9       -15.2090   70.3080    1.3200 C.3   501  341501      0.2087
      9  O10      -16.5040   69.6970    1.2230 O.3   501  341501     -0.2152
     10  F7       -15.1790   74.2840    4.2430 F     501  341501     -0.2041
@<TRIPOS>BOND
     1     9     8    1
     2     8     3    1
     3     3     2   ar
     4     3     4   ar
     5     2     1   ar
     6     4     5   ar
     7     1    10    1
     8     1     6   ar
     9     5     6   ar
    10     5     7    1
