@<TRIPOS>MOLECULE
3eor_CFV_A_1.pdb
 18 18 0 0 0
SMALL
GASTEIGER

@<TRIPOS>ATOM
      1  OAN      139.4770  101.0830   43.5270 O.3   901  CFV901     -0.3555
      2  PAM      140.0950   99.8960   44.1150 P.3   901  CFV901      0.1470
      3  OAO      140.9030   99.0870   43.2120 O.2   901  CFV901     -0.4576
      4  OAP      139.2450   99.1180   45.0070 O.3   901  CFV901     -0.3555
      5  CAL      141.3260  100.6400   45.1830 C.3   901  CFV901      0.2002
      6  OAK      140.8440  101.0260   46.4580 O.3   901  CFV901     -0.3440
      7  CAJ      141.1170   99.9410   47.2670 C.3   901  CFV901      0.1695
      8  CAQ      142.5430   99.8620   47.0690 C.3   901  CFV901      0.2132
      9  OAR      142.9990   99.0090   48.0760 O.3   901  CFV901     -0.2176
     10  CAA      141.1050  100.1320   48.7410 C.3   901  CFV901      0.1411
     11  NAB      139.9510  100.9120   49.0900 N.am  901  CFV901     -0.2020
     12  CAC      138.7110  100.5390   48.7120 C.2   901  CFV901      0.0812
     13  CAD      137.6590  101.3330   49.0640 C.2   901  CFV901      0.0686
     14  CAE      137.9080  102.4530   49.7810 C.2   901  CFV901      0.2346
     15  NAF      136.9260  103.2160   50.1250 N.pl3 901  CFV901     -0.0921
     16  NAG      139.1270  102.7790   50.1280 N.2   901  CFV901     -0.3024
     17  CAH      140.1330  102.0170   49.7900 C.1   901  CFV901      0.2738
     18  OAI      141.3710  102.3180   50.1280 O.2   901  CFV901     -0.1926
@<TRIPOS>BOND
     1     3     2    2
     2     1     2    1
     3     2     4    1
     4     2     5    1
     5     5     6    1
     6     6     7    1
     7     8     7    1
     8     8     9    1
     9     7    10    1
    10    12    13    2
    11    12    11    1
    12    10    11    1
    13    13    14    1
    14    11    17   am
    15    14    15    1
    16    14    16    2
    17    17    16    2
    18    17    18    2
