@<TRIPOS>MOLECULE
3eor_GPP_A_1.pdb
 19 18 0 0 0
SMALL
GASTEIGER

@<TRIPOS>ATOM
      1  C1       122.3420   95.9710   48.9180 C.3   902  GPP902      0.1747
      2  O1       121.7370   97.4080   48.8960 O.3   902  GPP902     -0.3089
      3  C2       123.1260   95.4250   50.2200 C.2   902  GPP902     -0.0024
      4  C3       124.2260   95.7980   50.5300 C.2   902  GPP902     -0.0454
      5  C4       125.2160   96.8090   49.8810 C.3   902  GPP902      0.0261
      6  C5       124.3850   95.0140   51.7280 C.3   902  GPP902      0.0264
      7  C6       125.7990   95.2790   52.0580 C.3   902  GPP902      0.0297
      8  C7       126.3620   94.0970   52.5340 C.2   902  GPP902     -0.0342
      9  C8       125.7520   93.0420   53.2520 C.2   902  GPP902     -0.0478
     10  C9       126.6010   91.8620   53.6480 C.3   902  GPP902      0.0260
     11  C10      124.2450   93.0660   53.6520 C.3   902  GPP902      0.0260
     12  PA       120.4620   98.0280   48.0010 P.3   902  GPP902      0.2233
     13  O1A      119.4980   96.9720   47.7170 O.2   902  GPP902     -0.5169
     14  O2A      120.0420   99.3390   48.5220 O.3   902  GPP902     -0.4370
     15  O3A      120.9000   98.2640   46.7540 O.3   902  GPP902     -0.2261
     16  PB       119.6900   98.8150   46.2390 P.3   902  GPP902      0.5373
     17  O1B      118.3320   98.7840   47.1610 O.3   902  GPP902     -0.1143
     18  O2B      120.2000  100.3030   46.3700 O.3   902  GPP902     -0.1143
     19  O3B      119.4660   98.2890   44.9000 O.2   902  GPP902     -0.2221
@<TRIPOS>BOND
     1    19    16    2
     2    16    18    1
     3    16    15    1
     4    16    17    1
     5    15    12    1
     6    13    12    2
     7    12    14    1
     8    12     2    1
     9     2     1    1
    10     1     3    1
    11     5     4    1
    12     3     4    2
    13     4     6    1
    14     6     7    1
    15     7     8    1
    16     8     9    2
    17     9    10    1
    18     9    11    1
