@<TRIPOS>MOLECULE
3eos_PK2_A_1.pdb
 27 30 0 0 0
SMALL
GASTEIGER

@<TRIPOS>ATOM
      1  C2        18.1690   17.3800   22.8140 C.1   400  PK2400      0.2180
      2  O14       19.2470   17.7530   23.2210 O.2   400  PK2400     -0.2085
      3  N3        17.1440   17.0090   23.5930 N.2   400  PK2400     -0.2501
      4  C4        15.9580   16.6240   23.0610 C.1   400  PK2400      0.2515
      5  N15       14.9770   16.3890   23.9720 N.pl3 400  PK2400     -0.0226
      6  N5        15.8200   16.4880   21.7920 N.2   400  PK2400     -0.3286
      7  C6        16.7510   16.8250   20.8690 C.2   400  PK2400      0.1410
      8  C10       16.4890   16.6880   19.4910 C.3   400  PK2400      0.1114
      9  C18       15.1720   16.2230   18.8750 C.3   400  PK2400      0.0331
     10  C19       15.3450   14.8200   18.2040 C.3   400  PK2400      0.0896
     11  N20       14.2740   14.6820   17.1460 N.3   400  PK2400     -0.2180
     12  C21       12.9590   14.4180   17.8070 C.3   400  PK2400      0.0887
     13  C22       11.7670   14.5320   16.8130 C.3   400  PK2400      0.0174
     14  C27       11.8790   15.8710   16.0240 C.3   400  PK2400      0.0014
     15  C26       10.7470   15.9060   14.9540 C.3   400  PK2400      0.0000
     16  C25        9.3620   15.8220   15.6440 C.3   400  PK2400      0.0000
     17  C24        9.2400   14.5530   16.5260 C.3   400  PK2400      0.0000
     18  C23       10.3950   14.5280   17.5720 C.3   400  PK2400      0.0014
     19  C9        17.5240   17.1240   18.6530 C.2   400  PK2400      0.1592
     20  N11       17.5590   17.2670   17.3110 N.2   400  PK2400     -0.3284
     21  C12       18.6800   17.7430   16.9420 C.1   400  PK2400      0.2200
     22  N16       19.0220   18.0980   15.6900 N.pl3 400  PK2400     -0.1499
     23  C17       18.1860   17.9390   14.5130 C.3   400  PK2400      0.1504
     24  N13       19.5060   17.9810   17.9980 N.2   400  PK2400     -0.3247
     25  C8        18.7170   17.6220   19.1040 C.2   400  PK2400      0.1724
     26  C7        19.0560   17.6670   20.4660 C.2   400  PK2400      0.0504
     27  C1        18.0140   17.2480   21.3130 C.2   400  PK2400      0.1247
@<TRIPOS>BOND
     1    23    22    1
     2    15    16    1
     3    15    14    1
     4    16    17    1
     5    22    21    1
     6    14    13    1
     7    17    18    1
     8    13    18    1
     9    13    12    1
    10    21    20    2
    11    21    24    2
    12    11    12    1
    13    11    10    1
    14    20    19    2
    15    24    25    2
    16    10     9    1
    17    19    25    1
    18    19     8    1
    19     9     8    1
    20    25    26    1
    21     8     7    1
    22    26    27    2
    23     7    27    1
    24     7     6    2
    25    27     1    1
    26     6     4    2
    27     1     2    2
    28     1     3    2
    29     4     3    2
    30     4     5    1
