@<TRIPOS>MOLECULE
3eou_PK3_A_1.pdb
 20 22 0 0 0
SMALL
GASTEIGER

@<TRIPOS>ATOM
      1  N6        17.4350   17.2730   17.1900 N.2   500  PK3500     -0.3284
      2  C11       18.7470   17.7350   16.9230 C.1   500  PK3500      0.2200
      3  N5        19.1750   17.9330   15.6550 N.pl3 500  PK3500     -0.1499
      4  C12       18.1810   17.9520   14.5810 C.3   500  PK3500      0.1504
      5  N4        19.4640   17.9620   18.0350 N.2   500  PK3500     -0.3247
      6  C6        18.7130   17.6390   19.0890 C.2   500  PK3500      0.1724
      7  C7        17.4830   17.2240   18.6070 C.2   500  PK3500      0.1593
      8  C8        16.4410   16.8670   19.4740 C.3   500  PK3500      0.1125
      9  C9        15.1400   16.2910   18.8360 C.3   500  PK3500      0.0498
     10  C3        16.7040   16.8480   20.8560 C.2   500  PK3500      0.1411
     11  N2        15.7570   16.5270   21.7740 N.2   500  PK3500     -0.3286
     12  C4        15.9310   16.5810   23.1540 C.1   500  PK3500      0.2515
     13  N3        14.9620   16.2230   23.9160 N.pl3 500  PK3500     -0.0226
     14  N1        17.1400   16.9710   23.6300 N.2   500  PK3500     -0.2501
     15  C1        18.1460   17.3540   22.8230 C.1   500  PK3500      0.2180
     16  O1        19.2250   17.7310   23.2310 O.2   500  PK3500     -0.2085
     17  C2        17.9530   17.2900   21.3240 C.2   500  PK3500      0.1247
     18  C5        18.9710   17.7100   20.4570 C.2   500  PK3500      0.0504
     19  C10       15.3820   14.8130   18.3600 C.3   500  PK3500      0.1830
     20  O2        14.4500   14.4410   17.3430 O.3   500  PK3500     -0.2204
@<TRIPOS>BOND
     1     4     3    1
     2     3     2    1
     3     2     1    2
     4     2     5    2
     5     1     7    2
     6    20    19    1
     7     5     6    2
     8    19     9    1
     9     7     6    1
    10     7     8    1
    11     9     8    1
    12     6    18    1
    13     8    10    1
    14    18    17    2
    15    10    17    1
    16    10    11    2
    17    17    15    1
    18    11    12    2
    19    15    16    2
    20    15    14    2
    21    12    14    2
    22    12    13    1
