@<TRIPOS>MOLECULE
3epd_III_0_1.pdb
 30 29 0 0 0
SMALL
GASTEIGER

@<TRIPOS>ATOM
      1  N        -87.8420   49.0690    6.3060 N.3     7  ILE7       -0.1231
      2  CA       -89.1210   48.3350    6.3270 C.3     7  ILE7        0.1692
      3  C        -88.9010   46.9960    7.0650 C.2     7  ILE7        0.2593
      4  O        -87.7350   46.5910    7.2560 O.2     7  ILE7       -0.2718
      5  CB       -89.6620   48.0970    4.8190 C.3     7  ILE7        0.0266
      6  CG1      -89.0370   46.8820    4.0720 C.3     7  ILE7        0.0019
      7  CG2      -89.3460   49.3910    4.0530 C.3     7  ILE7        0.0020
      8  CD1      -89.8240   45.5570    4.1690 C.3     7  ILE7        0.0001
      9  N        -89.9840   46.3070    7.4580 N.am    8  SER8       -0.1938
     10  CA       -89.8620   44.9900    8.0760 C.3     8  SER8        0.2055
     11  C        -91.0520   44.1040    7.6840 C.2     8  SER8        0.2643
     12  O        -92.1850   44.3010    8.1500 O.2     8  SER8       -0.2714
     13  CB       -89.7450   45.1570    9.6380 C.3     8  SER8        0.2130
     14  OG       -90.8500   45.7840   10.2870 O.3     8  SER8       -0.2179
     15  N        -90.8160   43.2090    6.7120 N.am    9  GLU9       -0.1963
     16  CA       -91.8030   42.1890    6.3220 C.3     9  GLU9        0.1733
     17  C        -91.9270   41.1930    7.4910 C.2     9  GLU9        0.2616
     18  O        -90.9270   40.9810    8.2120 O.2     9  GLU9       -0.2715
     19  CB       -91.3400   41.4970    4.9880 C.3     9  GLU9        0.0429
     20  CG       -91.8590   40.0790    4.4770 C.3     9  GLU9        0.1163
     21  CD       -93.3310   39.6740    4.2130 C.2     9  GLU9        0.3649
     22  OE1      -93.9860   39.2150    5.1380 O.co2   9  GLU9       -0.2457
     23  OE2      -93.8100   39.7510    3.0780 O.co2   9  GLU9       -0.2457
     24  N        -93.1650   40.6910    7.6950 N.am   10  VAL10      -0.1977
     25  CA       -93.4750   39.7280    8.7520 C.3    10  VAL10       0.1596
     26  C        -94.2890   38.5550    8.1530 C.2    10  VAL10       0.2287
     27  O        -95.4040   38.7350    7.6130 O.2    10  VAL10      -0.2864
     28  CB       -94.2480   40.4580    9.9740 C.3    10  VAL10       0.0276
     29  CG1      -93.3810   41.6430   10.4020 C.3    10  VAL10       0.0022
     30  CG2      -95.6460   41.0010    9.6310 C.3    10  VAL10       0.0022
@<TRIPOS>BOND
     1    23    21   ar
     2     7     5    1
     3     6     8    1
     4     6     5    1
     5    21    20    1
     6    21    22   ar
     7    20    19    1
     8     5     2    1
     9    19    16    1
    10     1     2    1
    11    16    15    1
    12    16    17    1
    13     2     3    1
    14    15    11   am
    15     3     4    2
    16     3     9   am
    17     9    10    1
    18    17    24   am
    19    17    18    2
    20    27    26    2
    21    11    10    1
    22    11    12    2
    23    24    25    1
    24    10    13    1
    25    26    25    1
    26    25    28    1
    27    30    28    1
    28    13    14    1
    29    28    29    1
