@<TRIPOS>MOLECULE
3epe_GLU_A_1.pdb
 10 9 0 0 0
SMALL
GASTEIGER

@<TRIPOS>ATOM
      1  N         51.0000   47.4840  -32.2080 N.3   258  GLU258     -0.1208
      2  CA        51.2570   46.7300  -33.4740 C.3   258  GLU258      0.1949
      3  C         52.7470   46.5400  -33.6800 C.2   258  GLU258      0.3819
      4  O         53.1780   45.9680  -34.6800 O.co2 258  GLU258     -0.2441
      5  CB        50.6510   47.4600  -34.6750 C.3   258  GLU258      0.0424
      6  CG        49.1350   47.3430  -34.7650 C.3   258  GLU258      0.1161
      7  CD        48.6790   46.0010  -35.2790 C.2   258  GLU258      0.3649
      8  OE1       49.5290   45.2370  -35.8030 O.co2 258  GLU258     -0.2457
      9  OE2       47.4570   45.7190  -35.1810 O.co2 258  GLU258     -0.2457
     10  OXT       53.5510   46.9500  -32.8350 O.co2 258  GLU258     -0.2441
@<TRIPOS>BOND
     1     8     7   ar
     2     7     9   ar
     3     7     6    1
     4     6     5    1
     5     4     3   ar
     6     5     2    1
     7     3     2    1
     8     3    10   ar
     9     2     1    1
