@<TRIPOS>MOLECULE
3epf_SC4_1_1.pdb
 27 29 0 0 0
SMALL
GASTEIGER

@<TRIPOS>ATOM
      1  C1      -114.2530   52.8350   29.6580 C.ar  999  SC4999      0.0401
      2  C2      -114.0260   54.1940   29.5880 C.ar  999  SC4999      0.0409
      3  C3      -114.7900   55.0150   28.7130 C.ar  999  SC4999      0.1497
      4  C4      -115.8080   54.4370   27.8940 C.ar  999  SC4999      0.0945
      5 CL1      -116.7970   55.4270   26.8090 Cl    999  SC4999     -0.0790
      6 CL2      -109.3860   63.4590   25.4560 Cl    999  SC4999     -0.0791
      7 CL3      -114.4420   61.8600   23.6610 Cl    999  SC4999     -0.0791
      8  C5      -116.0260   53.0490   27.9720 C.ar  999  SC4999      0.0513
      9  C6      -115.2390   52.2340   28.8670 C.ar  999  SC4999      0.1398
     10  O1      -114.5150   56.3680   28.6890 O.3   999  SC4999     -0.4698
     11  C7      -113.2350   56.7970   29.1920 C.3   999  SC4999      0.2320
     12  C10     -111.7240   60.2210   28.6090 C.ar  999  SC4999     -0.0009
     13  C11     -112.3140   60.5640   27.3930 C.ar  999  SC4999      0.0211
     14  C12     -113.1910   59.6860   26.7720 C.ar  999  SC4999     -0.0009
     15  C13     -113.4840   58.4710   27.3550 C.ar  999  SC4999     -0.0009
     16  C8      -112.8980   58.1210   28.5750 C.ar  999  SC4999      0.0211
     17  C9      -112.0180   58.9950   29.2000 C.ar  999  SC4999     -0.0009
     18  O3      -115.5230   50.8730   28.8640 O.3   999  SC4999     -0.4714
     19  C21     -115.1070   49.9690   29.9090 C.3   999  SC4999      0.2525
     20  C14     -112.0100   61.8720   26.7530 C.3   999  SC4999      0.2321
     21  O2      -111.8890   61.6690   25.3440 O.3   999  SC4999     -0.4689
     22  C16     -110.8360   63.7170   24.4990 C.ar  999  SC4999      0.0924
     23  C17     -110.9090   64.8500   23.6680 C.ar  999  SC4999      0.0145
     24  C18     -112.0580   65.0720   22.8550 C.ar  999  SC4999      0.0019
     25  C19     -113.1490   64.1490   22.8710 C.ar  999  SC4999      0.0145
     26  C20     -113.1010   63.0020   23.6960 C.ar  999  SC4999      0.0924
     27  C15     -111.9430   62.7770   24.5270 C.ar  999  SC4999      0.1599
@<TRIPOS>BOND
     1    24    25   ar
     2    24    23   ar
     3    25    26   ar
     4     7    26    1
     5    23    22   ar
     6    26    27   ar
     7    22    27   ar
     8    22     6    1
     9    27    21    1
    10    21    20    1
    11    20    13    1
    12    14    15   ar
    13    14    13   ar
    14     5     4    1
    15    15    16   ar
    16    13    12   ar
    17     4     8   ar
    18     4     3   ar
    19     8     9   ar
    20    16    11    1
    21    16    17   ar
    22    12    17   ar
    23    10     3    1
    24    10    11    1
    25     3     2   ar
    26    18     9    1
    27    18    19    1
    28     9     1   ar
    29     2     1   ar
