@<TRIPOS>MOLECULE
3epg_DCP_A_1.pdb
 28 29 0 0 0
SMALL
GASTEIGER

@<TRIPOS>ATOM
      1  N1        -1.8920  -25.1680   19.4320 N.am  875  DCP875     -0.1802
      2  C2        -1.1930  -26.0210   20.2220 C.1   875  DCP875      0.2756
      3  N3        -0.4550  -27.0530   19.7410 N.2   875  DCP875     -0.3024
      4  C4        -0.4100  -27.2480   18.4070 C.2   875  DCP875      0.2346
      5  C5        -1.1020  -26.4070   17.5720 C.2   875  DCP875      0.0687
      6  C6        -1.8380  -25.3580   18.0810 C.2   875  DCP875      0.0835
      7  O2        -1.2220  -25.8800   21.4090 O.2   875  DCP875     -0.1925
      8  N4         0.3020  -28.2290   17.9340 N.pl3 875  DCP875     -0.0921
      9  C1'       -2.6470  -24.0710   20.0460 C.3   875  DCP875      0.2090
     10  C2'       -1.8570  -22.7850   20.1340 C.3   875  DCP875      0.0874
     11  C3'       -2.6550  -21.7380   19.3970 C.3   875  DCP875      0.1857
     12  C4'       -3.9790  -22.4280   19.0750 C.3   875  DCP875      0.1773
     13  O4'       -3.9380  -23.7330   19.6470 O.3   875  DCP875     -0.3339
     14  O3'       -2.8400  -20.6260   20.2350 O.3   875  DCP875     -0.2203
     15  C5'       -4.8790  -22.3750   17.7610 C.3   875  DCP875      0.1812
     16  O5'       -4.2610  -22.7870   16.5070 O.3   875  DCP875     -0.3112
     17  PA        -3.5450  -22.0470   15.3410 P.3   875  DCP875      0.2189
     18  O1A       -4.4790  -21.2410   14.5850 O.2   875  DCP875     -0.5170
     19  O2A       -2.8230  -23.0510   14.6350 O.3   875  DCP875     -0.4371
     20  O3A       -2.4430  -21.2850   16.0270 O.3   875  DCP875     -0.2700
     21  PB        -2.5830  -19.8160   16.4900 P.3   875  DCP875      0.2277
     22  O1B       -1.7910  -19.7820   17.6800 O.3   875  DCP875     -0.4368
     23  O2B       -3.9840  -19.4440   16.5930 O.2   875  DCP875     -0.5168
     24  O3B       -1.8190  -18.8700   15.4440 O.3   875  DCP875     -0.2258
     25  PG        -2.0470  -18.1040   14.0850 P.3   875  DCP875      0.5373
     26  O1G       -3.3070  -17.6900   13.6620 O.3   875  DCP875     -0.1143
     27  O2G       -1.3520  -18.7640   13.0440 O.2   875  DCP875     -0.2221
     28  O3G       -1.2950  -16.9520   14.3340 O.3   875  DCP875     -0.1143
@<TRIPOS>BOND
     1    27    25    2
     2    26    25    1
     3    25    28    1
     4    25    24    1
     5    18    17    2
     6    19    17    1
     7    17    20    1
     8    17    16    1
     9    24    21    1
    10    20    21    1
    11    21    23    2
    12    21    22    1
    13    16    15    1
    14     5     6    2
    15     5     4    1
    16    15    12    1
    17     8     4    1
    18     6     1    1
    19     4     3    2
    20    12    11    1
    21    12    13    1
    22    11    10    1
    23    11    14    1
    24     1     9    1
    25     1     2   am
    26    13     9    1
    27     3     2    2
    28     9    10    1
    29     2     7    2
