@<TRIPOS>MOLECULE
3epk_DST_A_1.pdb
 14 13 0 0 0
SMALL
GASTEIGER

@<TRIPOS>ATOM
      1  O4        73.0950   19.9080   46.4190 O.3   422  DST422     -0.1143
      2  P1        72.0880   20.9280   47.1370 P.3   422  DST422      0.5394
      3  O6        71.9250   22.2310   46.2210 O.2   422  DST422     -0.2220
      4  O5        72.5560   21.2600   48.4990 O.3   422  DST422     -0.1143
      5  O2        70.7000   20.2030   47.1470 O.3   422  DST422     -0.1955
      6  P3        69.3760   20.6970   47.7720 P.3   422  DST422      0.4273
      7  O8        69.4620   20.1910   49.2860 O.3   422  DST422     -0.1309
      8  O7        69.1240   22.1540   47.7710 O.2   422  DST422     -0.2431
      9  S9        67.9490   19.7880   46.8610 S.3   422  DST422     -0.0237
     10  C10       66.3340   19.7800   47.9360 C.3   422  DST422      0.0942
     11  C11       65.0340   20.1890   47.1930 C.2   422  DST422     -0.0224
     12  C12       64.0860   19.4210   46.4690 C.2   422  DST422     -0.0470
     13  C13       62.8680   20.1530   45.8350 C.3   422  DST422      0.0261
     14  C14       64.1810   17.8980   46.2720 C.3   422  DST422      0.0261
@<TRIPOS>BOND
     1    13    12    1
     2     3     2    2
     3    14    12    1
     4     1     2    1
     5    12    11    2
     6     9     6    1
     7     9    10    1
     8     2     5    1
     9     2     4    1
    10     5     6    1
    11    11    10    1
    12     8     6    2
    13     6     7    1
