@<TRIPOS>MOLECULE
3epm_HMH_A_1.pdb
 10 10 0 0 0
SMALL
GASTEIGER

@<TRIPOS>ATOM
      1  CM2       46.7200   49.6830   -0.0830 C.3   1001  HMH1001     0.1291
      2  N1A       44.3710   48.8960   -0.4050 N.2   1001  HMH1001    -0.1861
      3  C2A       45.6760   48.5800   -0.3610 C.1   1001  HMH1001     0.0663
      4  N3A       46.0590   47.3050   -0.5590 N.2   1001  HMH1001    -0.3368
      5  C4A       45.1480   46.3440   -0.7990 C.2   1001  HMH1001     0.2301
      6  N4A       45.5240   45.0840   -0.9950 N.pl3 1001  HMH1001    -0.0924
      7  C5A       43.7970   46.6560   -0.8460 C.2   1001  HMH1001     0.0783
      8  C6A       43.4430   47.9840   -0.6360 C.2   1001  HMH1001     0.1124
      9  C7A       42.6840   45.6280   -1.1150 C.3   1001  HMH1001     0.2141
     10  O1        41.6090   46.2190   -1.8560 O.3   1001  HMH1001    -0.2150
@<TRIPOS>BOND
     1    10     9    1
     2     9     7    1
     3     6     5    1
     4     7     5    1
     5     7     8    2
     6     5     4    2
     7     8     2    1
     8     4     3    2
     9     2     3    2
    10     3     1    1
