@<TRIPOS>MOLECULE
3epn_IRN_A_1.pdb
 18 19 0 0 0
SMALL
GASTEIGER

@<TRIPOS>ATOM
      1  C5        42.1140   41.1980    4.1620 C.ar  1001  IRN1001     0.0999
      2  C4        41.2850   41.6430    5.1010 C.ar  1001  IRN1001     0.1193
      3  N3        40.9580   42.9030    4.8070 N.ar  1001  IRN1001    -0.2222
      4  C2        41.5970   43.2460    3.6890 C.ar  1001  IRN1001     0.1804
      5  N1        42.3120   42.1940    3.2950 N.ar  1001  IRN1001    -0.2831
      6  C1'       43.1540   42.1190    2.0990 C.3   1001  IRN1001     0.2399
      7  O4'       43.5910   43.4060    1.5450 O.3   1001  IRN1001    -0.3306
      8  C2'       42.3620   41.4290    0.9880 C.3   1001  IRN1001     0.2337
      9  O2'       42.4380   40.0130    1.1650 O.3   1001  IRN1001    -0.2155
     10  C3'       43.2120   41.8200   -0.1870 C.3   1001  IRN1001     0.2161
     11  O3'       44.4610   41.1360   -0.0330 O.3   1001  IRN1001    -0.2175
     12  C4'       43.4230   43.3070    0.0940 C.3   1001  IRN1001     0.1803
     13  C5'       42.2470   44.1750   -0.3850 C.3   1001  IRN1001     0.1859
     14  O5'       42.5060   45.5330   -0.0160 O.3   1001  IRN1001    -0.2675
     15  P         41.4920   46.7930   -0.2690 P.3   1001  IRN1001     0.5327
     16  O6        41.0840   46.7890   -1.8110 O.2   1001  IRN1001    -0.2224
     17  O7        42.4380   48.0680    0.0020 O.3   1001  IRN1001    -0.1145
     18  O8        40.3020   46.7500    0.6100 O.3   1001  IRN1001    -0.1145
@<TRIPOS>BOND
     1    16    15    2
     2    13    14    1
     3    13    12    1
     4    15    14    1
     5    15    17    1
     6    15    18    1
     7    10    11    1
     8    10    12    1
     9    10     8    1
    10    12     7    1
    11     8     9    1
    12     8     6    1
    13     7     6    1
    14     6     5    1
    15     5     4   ar
    16     5     1   ar
    17     4     3   ar
    18     1     2   ar
    19     3     2   ar
