@<TRIPOS>MOLECULE
3epo_MP5_A_1.pdb
 14 14 0 0 0
SMALL
GASTEIGER

@<TRIPOS>ATOM
      1  C1        43.7450   43.9630    0.2710 C.2   1001  MP51001     0.0756
      2  C2        44.5810   43.6710    1.3400 C.2   1001  MP51001     0.2300
      3  C3        44.0530   45.0150   -0.7960 C.3   1001  MP51001     0.1858
      4  N1        45.7320   44.3220    1.4830 N.pl3 1001  MP51001    -0.0924
      5  N2        44.2270   42.7310    2.2260 N.2   1001  MP51001    -0.3368
      6  C4        43.0690   42.0700    2.0890 C.1   1001  MP51001     0.0663
      7  C5        42.6820   41.0000    3.1130 C.3   1001  MP51001     0.1291
      8  N3        42.2460   42.3360    1.0640 N.2   1001  MP51001    -0.1861
      9  C6        42.5550   43.2550    0.1670 C.2   1001  MP51001     0.1123
     10  O1        42.8560   45.4490   -1.4490 O.3   1001  MP51001    -0.2652
     11  P1        42.0830   46.7590   -0.9230 P.3   1001  MP51001     0.5329
     12  O2        41.1950   46.5050    0.2400 O.3   1001  MP51001    -0.1145
     13  O3        41.2660   47.3590   -2.1860 O.2   1001  MP51001    -0.2224
     14  O4        43.2140   47.8680   -0.5890 O.3   1001  MP51001    -0.1145
@<TRIPOS>BOND
     1    13    11    2
     2    10    11    1
     3    10     3    1
     4    11    14    1
     5    11    12    1
     6     3     1    1
     7     9     1    2
     8     9     8    1
     9     1     2    1
    10     8     6    2
    11     2     4    1
    12     2     5    2
    13     6     5    2
    14     6     7    1
