@<TRIPOS>MOLECULE
3epp_SFG_A_1.pdb
 27 29 0 0 0
SMALL
GASTEIGER

@<TRIPOS>ATOM
      1  N          2.3320   -3.2960   34.2420 N.3   401  SFG401     -0.1208
      2  CA         3.6010   -3.9190   34.7580 C.3   401  SFG401      0.1944
      3  C          4.5800   -2.8700   35.1810 C.2   401  SFG401      0.3819
      4  O          4.7170   -1.8380   34.5060 O.co2 401  SFG401     -0.2441
      5  OXT        5.2920   -3.0320   36.1770 O.co2 401  SFG401     -0.2441
      6  CB         4.3620   -4.6100   33.6360 C.3   401  SFG401      0.0321
      7  CG         4.3500   -6.1130   33.4950 C.3   401  SFG401      0.0212
      8  CD         4.5860   -6.3480   31.9910 C.3   401  SFG401      0.0944
      9  NE         5.9820   -6.5520   31.6470 N.3   401  SFG401     -0.1328
     10  C5'        3.7560   -7.4690   31.3600 C.3   401  SFG401      0.0514
     11  C4'        2.5650   -7.8610   32.1950 C.3   401  SFG401      0.1537
     12  O4'        1.4190   -8.0800   31.3770 O.3   401  SFG401     -0.3161
     13  C3'        2.8460   -9.1260   32.9730 C.3   401  SFG401      0.2159
     14  O3'        2.2490   -8.9440   34.2650 O.3   401  SFG401     -0.2175
     15  C2'        2.0800  -10.2010   32.2360 C.3   401  SFG401      0.2569
     16  O2'        1.6010  -11.1330   33.1970 O.3   401  SFG401     -0.2130
     17  C1'        0.9110   -9.3870   31.7260 C.3   401  SFG401      0.3185
     18  N9         0.2170   -9.9830   30.5770 N.pl3 401  SFG401     -0.1439
     19  C8         0.7540  -10.6030   29.5010 C.3   401  SFG401      0.3377
     20  N7        -0.2490  -10.9740   28.6480 N.2   401  SFG401     -0.2095
     21  C5        -1.4250  -10.5590   29.1730 C.2   401  SFG401      0.2526
     22  C6        -2.8540  -10.6400   28.8080 C.2   401  SFG401      0.4393
     23  N6        -3.2500  -11.2520   27.6480 N.pl3 401  SFG401      0.2180
     24  N1        -3.7380  -10.0740   29.6610 N.2   401  SFG401      0.0021
     25  C2        -3.3510   -9.4740   30.7970 C.3   401  SFG401      0.5254
     26  N3        -2.0870   -9.3860   31.2060 N.2   401  SFG401     -0.0055
     27  C4        -1.1060   -9.9050   30.4490 C.2   401  SFG401      0.3518
@<TRIPOS>BOND
     1    23    22    1
     2    20    21    2
     3    20    19    1
     4    22    21    1
     5    22    24    2
     6    21    27    1
     7    19    18    1
     8    24    25    1
     9    27    18    1
    10    27    26    2
    11    18    17    1
    12    25    26    1
    13    10     8    1
    14    10    11    1
    15    12    17    1
    16    12    11    1
    17     9     8    1
    18    17    15    1
    19     8     7    1
    20    11    13    1
    21    15    13    1
    22    15    16    1
    23    13    14    1
    24     7     6    1
    25     6     2    1
    26     1     2    1
    27     4     3   ar
    28     2     3    1
    29     3     5   ar
