@<TRIPOS>MOLECULE
3eps_ATP_A_1.pdb
 31 33 0 0 0
SMALL
GASTEIGER

@<TRIPOS>ATOM
      1  PG        36.4980  -14.7640   28.8060 P.3   1605  ATP1605     0.5373
      2  O1G       37.5560  -14.2730   27.9180 O.2   1605  ATP1605    -0.2221
      3  O2G       36.1980  -13.6270   29.8830 O.3   1605  ATP1605    -0.1143
      4  O3G       36.9740  -16.0780   29.5700 O.3   1605  ATP1605    -0.1143
      5  PB        35.4310  -16.2170   26.9900 P.3   1605  ATP1605     0.2277
      6  O1B       36.7690  -16.0120   26.3260 O.2   1605  ATP1605    -0.5168
      7  O2B       35.4950  -17.4540   28.0370 O.3   1605  ATP1605    -0.4368
      8  O3B       35.0470  -15.0210   27.9220 O.3   1605  ATP1605    -0.2258
      9  PA        35.5340  -18.0430   25.2800 P.3   1605  ATP1605     0.2189
     10  O1A       36.4140  -18.7650   26.2490 O.3   1605  ATP1605    -0.4371
     11  O2A       36.5380  -17.3510   24.2330 O.2   1605  ATP1605    -0.5170
     12  O3A       34.4790  -16.8350   25.9580 O.3   1605  ATP1605    -0.2700
     13  O5'       34.5370  -18.9880   24.4670 O.3   1605  ATP1605    -0.3112
     14  C5'       35.2670  -20.1360   24.1880 C.3   1605  ATP1605     0.1813
     15  C4'       34.2800  -21.0510   23.5910 C.3   1605  ATP1605     0.1821
     16  O4'       33.8670  -20.5470   22.3040 O.3   1605  ATP1605    -0.3135
     17  C3'       34.8750  -22.4240   23.4030 C.3   1605  ATP1605     0.2184
     18  O3'       34.0500  -23.3590   24.0700 O.3   1605  ATP1605    -0.2174
     19  C2'       34.9460  -22.6710   21.9310 C.3   1605  ATP1605     0.2570
     20  O2'       34.1380  -23.8010   21.5810 O.3   1605  ATP1605    -0.2130
     21  C1'       34.4580  -21.3850   21.2740 C.3   1605  ATP1605     0.3186
     22  N9        35.6320  -20.7760   20.6290 N.pl3 1605  ATP1605    -0.1439
     23  C8        36.1880  -19.5740   20.9610 C.3   1605  ATP1605     0.3377
     24  N7        37.2080  -19.3420   20.1880 N.2   1605  ATP1605    -0.2095
     25  C5        37.3600  -20.3790   19.3180 C.2   1605  ATP1605     0.2526
     26  C6        38.2600  -20.6980   18.2560 C.2   1605  ATP1605     0.4393
     27  N6        39.2870  -19.8250   17.9050 N.pl3 1605  ATP1605     0.2180
     28  N1        38.0900  -21.8700   17.5940 N.2   1605  ATP1605     0.0021
     29  C2        37.1010  -22.7210   17.9180 C.3   1605  ATP1605     0.5254
     30  N3        36.2440  -22.4560   18.8980 N.2   1605  ATP1605    -0.0055
     31  C4        36.3410  -21.3130   19.6070 C.2   1605  ATP1605     0.3518
@<TRIPOS>BOND
     1    28    29    1
     2    28    26    2
     3    27    26    1
     4    29    30    1
     5    26    25    1
     6    30    31    2
     7    25    31    1
     8    25    24    2
     9    31    22    1
    10    24    23    1
    11    22    23    1
    12    22    21    1
    13    21    19    1
    14    21    16    1
    15    20    19    1
    16    19    17    1
    17    16    15    1
    18    17    15    1
    19    17    18    1
    20    15    14    1
    21    14    13    1
    22    11     9    2
    23    13     9    1
    24     9    12    1
    25     9    10    1
    26    12     5    1
    27     6     5    2
    28     5     8    1
    29     5     7    1
    30     2     1    2
    31     8     1    1
    32     1     4    1
    33     1     3    1
