@<TRIPOS>MOLECULE
3eps_AMP_A_1.pdb
 23 25 0 0 0
SMALL
GASTEIGER

@<TRIPOS>ATOM
      1  P         39.0590   -0.9440    8.3900 P.3   1604  AMP1604     0.5327
      2  O1P       39.8790    0.1420    7.8290 O.2   1604  AMP1604    -0.2224
      3  O2P       37.5330   -0.4910    8.4750 O.3   1604  AMP1604    -0.1145
      4  O3P       39.6130   -1.3120    9.8370 O.3   1604  AMP1604    -0.1145
      5  O5'       39.1980   -2.2360    7.4850 O.3   1604  AMP1604    -0.2675
      6  C5'       38.6660   -1.8660    6.2540 C.3   1604  AMP1604     0.1860
      7  C4'       38.6860   -3.0220    5.2870 C.3   1604  AMP1604     0.1823
      8  O4'       37.9100   -4.0830    5.8690 O.3   1604  AMP1604    -0.3135
      9  C3'       38.0040   -2.4900    4.0440 C.3   1604  AMP1604     0.2184
     10  O3'       38.7440   -2.7990    2.8560 O.3   1604  AMP1604    -0.2174
     11  C2'       36.5880   -3.1060    4.0380 C.3   1604  AMP1604     0.2570
     12  O2'       36.3010   -3.8010    2.8130 O.3   1604  AMP1604    -0.2130
     13  C1'       36.5930   -4.0810    5.2450 C.3   1604  AMP1604     0.3186
     14  N9        35.5330   -3.8130    6.2140 N.pl3 1604  AMP1604    -0.1439
     15  C8        35.5560   -2.9890    7.3160 C.3   1604  AMP1604     0.3377
     16  N7        34.4060   -3.0310    7.9410 N.2   1604  AMP1604    -0.2095
     17  C5        33.5840   -3.8820    7.2790 C.2   1604  AMP1604     0.2526
     18  C6        32.2500   -4.3270    7.4800 C.2   1604  AMP1604     0.4393
     19  N6        31.5330   -3.8650    8.5530 N.pl3 1604  AMP1604     0.2180
     20  N1        31.6910   -5.2080    6.6190 N.2   1604  AMP1604     0.0021
     21  C2        32.3580   -5.6860    5.5620 C.3   1604  AMP1604     0.5254
     22  N3        33.7290   -5.2690    5.3070 N.2   1604  AMP1604    -0.0055
     23  C4        34.3130   -4.3840    6.1580 C.2   1604  AMP1604     0.3518
@<TRIPOS>BOND
     1    12    11    1
     2    10     9    1
     3    11     9    1
     4    11    13    1
     5     9     7    1
     6    13     8    1
     7    13    14    1
     8     7     8    1
     9     7     6    1
    10    22    21    1
    11    22    23    2
    12    21    20    1
    13    23    14    1
    14    23    17    1
    15    14    15    1
    16     6     5    1
    17    20    18    2
    18    17    18    1
    19    17    16    2
    20    15    16    1
    21    18    19    1
    22     5     1    1
    23     2     1    2
    24     1     3    1
    25     1     4    1
