@<TRIPOS>MOLECULE
3epw_JMQ_A_1.pdb
 20 22 0 0 0
SMALL
GASTEIGER

@<TRIPOS>ATOM
      1  C1        18.9060    9.7480   39.4340 C.3   1002  JMQ1002     0.1024
      2  C2        18.0770    8.7930   43.7890 C.3   1002  JMQ1002     0.2626
      3  C8        16.3890    9.2770   39.7100 C.2   1002  JMQ1002     0.0983
      4  C9        17.6330    9.3750   40.2120 C.2   1002  JMQ1002     0.0325
      5  O6        14.6120    8.2480   43.4210 O.2   1002  JMQ1002    -0.2206
      6  C6        15.7870    8.5230   43.1230 C.1   1002  JMQ1002     0.1716
      7  N1        16.7540    8.4930   44.1000 N.2   1002  JMQ1002    -0.1739
      8  N3        18.4350    9.0860   42.5610 N.2   1002  JMQ1002    -0.2415
      9  C4        17.5210    9.1100   41.5710 C.2   1002  JMQ1002     0.1058
     10  C5        16.1850    8.8400   41.8340 C.2   1002  JMQ1002     0.1804
     11  N7        15.5300    8.9510   40.6770 N.2   1002  JMQ1002    -0.2310
     12  N4'       19.8280    8.6030   39.1410 N.3   1002  JMQ1002    -0.2634
     13  C1'       19.7350    7.4350   40.0590 C.3   1002  JMQ1002     0.1084
     14  C2'       20.6540    6.4120   39.4210 C.3   1002  JMQ1002     0.1994
     15  O2'       21.9740    6.5390   39.9880 O.3   1002  JMQ1002    -0.2189
     16  C3'       20.6300    6.7170   37.9100 C.3   1002  JMQ1002     0.2005
     17  O3'       21.9470    6.9220   37.3790 O.3   1002  JMQ1002    -0.2188
     18  C4'       19.8040    8.0130   37.7610 C.3   1002  JMQ1002     0.1243
     19  C5'       18.3910    7.6900   37.2260 C.3   1002  JMQ1002     0.2006
     20  O5'       17.6920    8.8520   36.7650 O.3   1002  JMQ1002    -0.2188
@<TRIPOS>BOND
     1    20    19    1
     2    19    18    1
     3    17    16    1
     4    18    16    1
     5    18    12    1
     6    16    14    1
     7    12     1    1
     8    12    13    1
     9    14    15    1
    10    14    13    1
    11     1     4    1
    12     3     4    2
    13     3    11    1
    14     4     9    1
    15    11    10    2
    16     9    10    1
    17     9     8    2
    18    10     6    1
    19     8     2    1
    20     6     5    2
    21     6     7    2
    22     2     7    1
