@<TRIPOS>MOLECULE
3epx_IMQ_A_1.pdb
 20 22 0 0 0
SMALL
GASTEIGER

@<TRIPOS>ATOM
      1  C9        43.4310   22.6900   39.9730 C.ar  1002  IMQ1002     0.0786
      2  N1        42.1200   22.8210   40.2800 N.ar  1002  IMQ1002    -0.2441
      3  C10       41.1570   22.5940   39.3940 C.ar  1002  IMQ1002     0.0988
      4  C2        41.4550   22.1960   38.0940 C.ar  1002  IMQ1002     0.0207
      5  C3        42.7990   22.0460   37.7230 C.ar  1002  IMQ1002     0.0031
      6  C4        43.7870   22.2930   38.6750 C.ar  1002  IMQ1002     0.0174
      7  C5        45.1300   22.1420   38.3180 C.ar  1002  IMQ1002     0.0015
      8  C6        46.1070   22.3860   39.2730 C.ar  1002  IMQ1002    -0.0002
      9  C7        45.7600   22.7780   40.5690 C.ar  1002  IMQ1002    -0.0014
     10  C8        44.4220   22.9190   40.9560 C.ar  1002  IMQ1002     0.0115
     11  C1        44.1870   23.3760   42.4280 C.3   1002  IMQ1002     0.1008
     12  N4'       43.8320   22.3050   43.4270 N.3   1002  IMQ1002    -0.2634
     13  C1'       43.0620   21.1910   42.8780 C.3   1002  IMQ1002     0.1084
     14  C2'       42.9760   20.2330   44.0630 C.3   1002  IMQ1002     0.1994
     15  O2'       41.7310   20.4230   44.7710 O.3   1002  IMQ1002    -0.2189
     16  C3'       44.1770   20.5630   44.9790 C.3   1002  IMQ1002     0.2005
     17  O3'       43.7120   20.8280   46.3290 O.3   1002  IMQ1002    -0.2188
     18  C4'       44.8620   21.8020   44.3740 C.3   1002  IMQ1002     0.1243
     19  C5'       46.1690   21.3580   43.6890 C.3   1002  IMQ1002     0.2006
     20  O5'       47.0510   22.4600   43.4970 O.3   1002  IMQ1002    -0.2188
@<TRIPOS>BOND
     1     5     4   ar
     2     5     6   ar
     3     4     3   ar
     4     7     6   ar
     5     7     8   ar
     6     6     1   ar
     7     8     9   ar
     8     3     2   ar
     9     1     2   ar
    10     1    10   ar
    11     9    10   ar
    12    10    11    1
    13    11    12    1
    14    13    12    1
    15    13    14    1
    16    12    18    1
    17    20    19    1
    18    19    18    1
    19    14    15    1
    20    14    16    1
    21    18    16    1
    22    16    17    1
