@<TRIPOS>MOLECULE
3epy_COA_A_1.pdb
 31 33 0 0 0
SMALL
GASTEIGER

@<TRIPOS>ATOM
      1  N1A       70.8370   16.1910  -17.6500 N.2   100  COA100      0.0021
      2  C2A       70.3340   17.0750  -16.7250 C.3   100  COA100      0.5254
      3  N3A       69.0560   16.9200  -16.2260 N.2   100  COA100     -0.0055
      4  C4A       68.2780   15.8960  -16.6470 C.2   100  COA100      0.3518
      5  C5A       68.7630   14.9880  -17.5720 C.2   100  COA100      0.2526
      6  C6A       70.0500   15.1300  -18.0660 C.2   100  COA100      0.4393
      7  N6A       70.5070   14.2510  -18.9510 N.pl3 100  COA100      0.2180
      8  N7A       67.7990   14.0750  -17.8080 N.2   100  COA100     -0.2095
      9  C8A       66.7170   14.3820  -17.0580 C.3   100  COA100      0.3377
     10  N9A       66.9980   15.5090  -16.3330 N.pl3 100  COA100     -0.1439
     11  C1B       66.0870   16.1960  -15.3910 C.3   100  COA100      0.3185
     12  C2B       64.6500   15.7220  -15.5540 C.3   100  COA100      0.2543
     13  O2B       63.9660   16.5380  -16.4760 O.3   100  COA100     -0.2131
     14  C3B       64.0800   15.8800  -14.1640 C.3   100  COA100      0.1928
     15  O3B       63.6610   17.2260  -14.0500 O.3   100  COA100     -0.2673
     16  P3B       62.1760   17.6700  -13.6060 P.3   100  COA100      0.5327
     17  O7A       61.1320   16.9790  -14.4520 O.2   100  COA100     -0.2224
     18  O8A       61.9950   17.3070  -12.1520 O.3   100  COA100     -0.1145
     19  O9A       62.0330   19.1640  -13.7480 O.3   100  COA100     -0.1145
     20  C4B       65.2900   15.6430  -13.2730 C.3   100  COA100      0.1795
     21  O4B       66.4400   15.9350  -14.0430 O.3   100  COA100     -0.3136
     22  C5B       65.4200   14.1880  -12.8540 C.3   100  COA100      0.1812
     23  O5B       64.1990   13.6440  -12.4080 O.3   100  COA100     -0.3111
     24  P1A       64.0740   13.1620  -10.8790 P.3   100  COA100      0.2231
     25  O1A       63.1930   14.1130  -10.1100 O.3   100  COA100     -0.4370
     26  O2A       63.5370   11.7530  -10.8100 O.2   100  COA100     -0.5169
     27  O3A       65.6010   13.2480  -10.3640 O.3   100  COA100     -0.2261
     28  P2A       66.4940   11.9520  -10.0120 P.3   100  COA100      0.5373
     29  O4A       67.2420   12.3730   -8.6520 O.3   100  COA100     -0.1143
     30  O5A       65.6050   10.7670   -9.7250 O.3   100  COA100     -0.1143
     31  O6A       67.4870   11.6320  -11.1030 O.2   100  COA100     -0.2221
@<TRIPOS>BOND
     1     7     6    1
     2     6     1    2
     3     6     5    1
     4     8     5    2
     5     8     9    1
     6     1     2    1
     7     5     4    1
     8     9    10    1
     9     2     3    1
    10     4    10    1
    11     4     3    2
    12    13    12    1
    13    10    11    1
    14    12    11    1
    15    12    14    1
    16    11    21    1
    17    17    16    2
    18    14    15    1
    19    14    20    1
    20    15    16    1
    21    21    20    1
    22    19    16    1
    23    16    18    1
    24    20    22    1
    25    22    23    1
    26    23    24    1
    27    31    28    2
    28    24    26    2
    29    24    27    1
    30    24    25    1
    31    27    28    1
    32    28    30    1
    33    28    29    1
