@<TRIPOS>MOLECULE
3epz_BGC_A_1.pdb
 12 12 0 0 0
SMALL
GASTEIGER

@<TRIPOS>ATOM
      1  C2        36.3100   -0.8830   82.5920 C.3   702  BGC702      0.2434
      2  C3        37.3710   -0.2990   81.6680 C.3   702  BGC702      0.2199
      3  C4        38.7460   -0.9320   81.8750 C.3   702  BGC702      0.2144
      4  C5        38.6640   -2.4570   81.9530 C.3   702  BGC702      0.1836
      5  C6        40.0170   -3.0490   82.3480 C.3   702  BGC702      0.2142
      6  C1        36.3630   -2.4070   82.5670 C.3   702  BGC702      0.3024
      7  O1        35.4380   -2.9200   83.5020 O.3   702  BGC702     -0.1869
      8  O2        35.0380   -0.4340   82.1830 O.3   702  BGC702     -0.2148
      9  O3        37.4590    1.0790   81.9290 O.3   702  BGC702     -0.2174
     10  O4        39.5900   -0.5550   80.8110 O.3   702  BGC702     -0.2176
     11  O5        37.6730   -2.8380   82.8930 O.3   702  BGC702     -0.3236
     12  O6        39.9500   -4.4530   82.4730 O.3   702  BGC702     -0.2176
@<TRIPOS>BOND
     1    10     3    1
     2     2     3    1
     3     2     9    1
     4     2     1    1
     5     3     4    1
     6     4     5    1
     7     4    11    1
     8     8     1    1
     9     5    12    1
    10     6     1    1
    11     6    11    1
    12     6     7    1
