@<TRIPOS>MOLECULE
3eq0_2TS_H_1.pdb
 39 41 0 0 0
SMALL
GASTEIGER

@<TRIPOS>ATOM
      1  C1        16.2230  -18.0610   22.3270 C.3   901  2TS901      0.1969
      2  S19       15.7350  -16.4810   22.1690 S.O2  901  2TS901      0.0620
      3  C55       15.6680  -18.6340   23.6110 C.ar  901  2TS901      0.0030
      4  C50       14.3250  -18.9800   23.6940 C.ar  901  2TS901     -0.0025
      5  C51       13.8150  -19.5070   24.8750 C.ar  901  2TS901     -0.0003
      6  C52       14.6490  -19.6880   25.9730 C.ar  901  2TS901     -0.0000
      7  C53       15.9920  -19.3420   25.8890 C.ar  901  2TS901     -0.0003
      8  C54       16.5020  -18.8150   24.7080 C.ar  901  2TS901     -0.0025
      9  O27       16.1850  -16.1530   20.8450 O.2   901  2TS901     -0.1558
     10  O28       14.3030  -16.5990   22.1720 O.2   901  2TS901     -0.1558
     11  N29       16.3600  -15.6070   23.3550 N.3   901  2TS901     -0.0739
     12  C28       17.5020  -14.7510   23.1000 C.3   901  2TS901      0.1737
     13  C42       18.2410  -14.4670   24.4020 C.3   901  2TS901      0.0324
     14  C43       18.6300  -15.7630   25.1030 C.3   901  2TS901      0.0489
     15  C44       19.0270  -17.2350   25.1060 C.3   901  2TS901      0.2205
     16  N45       19.4120  -17.5190   26.4800 N.pl3 901  2TS901     -0.0865
     17  C34       19.0380  -18.5610   27.2170 C.cat 901  2TS901      0.5346
     18  N39       19.4460  -18.6640   28.4780 N.pl3 901  2TS901      0.1354
     19  N38       18.2760  -19.4370   26.7280 N.pl3 901  2TS901      0.1354
     20  C27       17.0900  -13.4550   22.4660 C.2   901  2TS901      0.2474
     21  O38       16.0510  -12.9080   22.7940 O.2   901  2TS901     -0.2730
     22  N25       17.9120  -12.9570   21.5470 N.am  901  2TS901     -0.2492
     23  C26       17.5930  -11.7000   20.8760 C.3   901  2TS901      0.1619
     24  C21       16.1910  -11.6980   20.3440 C.2   901  2TS901      0.2604
     25  O39       15.7890  -12.6190   19.6530 O.2   901  2TS901     -0.2715
     26  C22       18.5760  -11.6100   19.7170 C.3   901  2TS901      0.0570
     27  C23       19.5550  -12.7610   19.8540 C.2   901  2TS901     -0.0077
     28  C24       19.1700  -13.5480   21.0990 C.2   901  2TS901      0.0634
     29  N19       15.4350  -10.6520   20.6680 N.am  901  2TS901     -0.1992
     30  C10       14.0530  -10.4170   20.2790 C.3   901  2TS901      0.1413
     31  C6        13.1910  -10.3230   21.5170 C.ar  901  2TS901     -0.0023
     32  C5        12.3860  -11.3880   21.8810 C.ar  901  2TS901     -0.0054
     33  C32       12.3690  -12.6440   21.0420 C.3   901  2TS901      0.1354
     34  N33       11.1120  -13.2770   21.3910 N.3   901  2TS901     -0.1262
     35  C4        11.5920  -11.3040   23.0190 C.ar  901  2TS901     -0.0022
     36  C3        11.6060  -10.1480   23.7920 C.ar  901  2TS901      0.0111
     37  C2        12.4140   -9.0790   23.4260 C.ar  901  2TS901      0.0574
     38 CL1        12.4350   -7.5860   24.4220 Cl    901  2TS901     -0.0823
     39  C7        13.2070   -9.1670   22.2880 C.ar  901  2TS901      0.0086
@<TRIPOS>BOND
     1    25    24    2
     2    26    27    1
     3    26    23    1
     4    27    28    2
     5    30    29    1
     6    30    31    1
     7    24    29   am
     8    24    23    1
     9     9     2    2
    10    23    22    1
    11    33    34    1
    12    33    32    1
    13    28    22    1
    14    31    32   ar
    15    31    39   ar
    16    22    20   am
    17    32    35   ar
    18     2    10    2
    19     2     1    1
    20     2    11    1
    21    39    37   ar
    22     1     3    1
    23    20    21    2
    24    20    12    1
    25    35    36   ar
    26    12    11    1
    27    12    13    1
    28    37    36   ar
    29    37    38    1
    30     3     4   ar
    31     3     8   ar
    32     4     5   ar
    33    13    14    1
    34     8     7   ar
    35     5     6   ar
    36    14    15    1
    37    15    16    1
    38     7     6   ar
    39    16    17    2
    40    19    17    1
    41    17    18    1
