@<TRIPOS>MOLECULE
3eq1_DPM_A_1.pdb
 30 31 0 0 0
SMALL
GASTEIGER

@<TRIPOS>ATOM
      1  C1A       32.2710   12.1280   14.2680 C.2   400  DPM400      0.1053
      2  C2A       33.0660   12.2360   15.3980 C.2   400  DPM400      0.0127
      3  C3A       32.2670   11.8240   16.4520 C.2   400  DPM400      0.0028
      4  C4A       31.0190   11.5000   15.9180 C.2   400  DPM400      0.1100
      5  C5A       34.5310   12.6890   15.4660 C.3   400  DPM400      0.1423
      6  C6A       34.6400   14.1910   15.6970 C.2   400  DPM400      0.3693
      7  C7A       32.6800   11.7810   17.9250 C.3   400  DPM400      0.0402
      8  C8A       32.9410   10.3850   18.4790 C.3   400  DPM400      0.1188
      9  C9A       33.3230   10.5310   19.9530 C.2   400  DPM400      0.3652
     10  CHA       32.7260   12.4720   12.8470 C.3   400  DPM400      0.0660
     11  NA        31.0580   11.6910   14.5970 N.2   400  DPM400     -0.4108
     12  O1A       33.5820   14.8080   15.9500 O.co2 400  DPM400     -0.2453
     13  O2A       35.7830   14.6840   15.6110 O.co2 400  DPM400     -0.2453
     14  O3A       32.4320   10.9250   20.7310 O.co2 400  DPM400     -0.2456
     15  O4A       34.5020   10.2820   20.2700 O.co2 400  DPM400     -0.2456
     16  C1B       28.6700   12.0150   16.5450 C.2   400  DPM400      0.0478
     17  C2B       28.1150   12.7770   17.5610 C.3   400  DPM400      0.0675
     18  C3B       27.1330   13.5580   16.9590 C.2   400  DPM400     -0.0191
     19  C4B       27.1280   13.2670   15.6600 C.2   400  DPM400      0.0899
     20  C5B       28.5050   12.7310   19.0460 C.3   400  DPM400      0.1237
     21  C6B       29.3870   13.9160   19.4410 C.2   400  DPM400      0.3656
     22  C7B       26.2260   14.5750   17.6550 C.3   400  DPM400      0.0358
     23  C8B       26.4410   15.9980   17.1170 C.3   400  DPM400      0.1184
     24  C9B       26.1230   16.1270   15.6210 C.2   400  DPM400      0.3652
     25  CHB       29.7960   10.9970   16.6980 C.3   400  DPM400      0.1001
     26  NB        28.0520   12.3380   15.4100 N.2   400  DPM400     -0.2523
     27  O1B       29.4710   14.1720   20.6630 O.co2 400  DPM400     -0.2456
     28  O2B       29.9620   14.5300   18.5220 O.co2 400  DPM400     -0.2456
     29  O3B       26.8080   16.9330   14.9580 O.co2 400  DPM400     -0.2456
     30  O4B       25.1820   15.4400   15.1760 O.co2 400  DPM400     -0.2456
@<TRIPOS>BOND
     1    10     1    1
     2     1    11    2
     3     1     2    1
     4    11     4    2
     5    29    24   ar
     6    30    24   ar
     7     2     5    1
     8     2     3    2
     9    26    19    1
    10    26    16    2
    11     5     6    1
    12    13     6   ar
    13    24    23    1
    14    19    18    2
    15     6    12   ar
    16     4     3    1
    17     4    25    1
    18     3     7    1
    19    16    25    1
    20    16    17    1
    21    18    17    1
    22    18    22    1
    23    23    22    1
    24    17    20    1
    25     7     8    1
    26     8     9    1
    27    28    21   ar
    28    20    21    1
    29    21    27   ar
    30     9    15   ar
    31     9    14   ar
