@<TRIPOS>MOLECULE
3eq6_AMP_A_1.pdb
 23 25 0 0 0
SMALL
GASTEIGER

@<TRIPOS>ATOM
      1  P         -9.7370   14.4740  -12.0610 P.3   901  AMP901      0.5327
      2  O1P      -10.8530   13.4510  -11.8540 O.3   901  AMP901     -0.1145
      3  O2P      -10.1440   15.7080  -12.8770 O.2   901  AMP901     -0.2224
      4  O3P       -9.0280   14.8310  -10.7490 O.3   901  AMP901     -0.1145
      5  O5'       -8.6160   13.6700  -12.9810 O.3   901  AMP901     -0.2675
      6  C5'       -7.9030   12.5970  -12.3380 C.3   901  AMP901      0.1860
      7  C4'       -6.9550   11.8740  -13.2410 C.3   901  AMP901      0.1823
      8  O4'       -5.8130   12.7030  -13.4110 O.3   901  AMP901     -0.3135
      9  C3'       -6.4160   10.5380  -12.7430 C.3   901  AMP901      0.2184
     10  O3'       -7.2470    9.4070  -13.0640 O.3   901  AMP901     -0.2174
     11  C2'       -5.0960   10.4900  -13.4880 C.3   901  AMP901      0.2570
     12  O2'       -5.2910   10.0370  -14.8320 O.3   901  AMP901     -0.2130
     13  C1'       -4.6280   11.9390  -13.5330 C.3   901  AMP901      0.3186
     14  N9        -3.7010   12.2740  -12.4200 N.pl3 901  AMP901     -0.1439
     15  C8        -3.9780   12.8930  -11.2520 C.3   901  AMP901      0.3377
     16  N7        -2.8950   12.9970  -10.4700 N.2   901  AMP901     -0.2095
     17  C5        -1.8760   12.4380  -11.1530 C.2   901  AMP901      0.2526
     18  C6        -0.4300   12.2500  -10.9320 C.2   901  AMP901      0.4393
     19  N6         0.1530   12.6500   -9.7620 N.pl3 901  AMP901      0.2180
     20  N1         0.2490   11.5830  -11.9200 N.2   901  AMP901      0.0021
     21  C2        -0.3430   11.1770  -13.0740 C.3   901  AMP901      0.5254
     22  N3        -1.6660   11.3400  -13.3460 N.2   901  AMP901     -0.0055
     23  C4        -2.4280   11.9610  -12.4380 C.2   901  AMP901      0.3518
@<TRIPOS>BOND
     1    12    11    1
     2    13    11    1
     3    13     8    1
     4    13    14    1
     5    11     9    1
     6     8     7    1
     7    22    21    1
     8    22    23    2
     9     7     9    1
    10     7     6    1
    11    21    20    1
    12    10     9    1
    13     5     6    1
    14     5     1    1
    15     3     1    2
    16    23    14    1
    17    23    17    1
    18    14    15    1
    19     1     2    1
    20     1     4    1
    21    20    18    2
    22    15    16    1
    23    17    18    1
    24    17    16    2
    25    18    19    1
