@<TRIPOS>MOLECULE
3eq7_X99_A_1.pdb
 29 32 0 0 0
SMALL
GASTEIGER

@<TRIPOS>ATOM
      1  C          6.7730   38.0210   30.6820 C.2   711  X99711      0.2279
      2  O          7.4220   37.9140   29.6340 O.2   711  X99711     -0.2748
      3  C1         7.3120   38.4360   31.8370 C.3   711  X99711      0.1072
      4  C2         8.8310   38.6570   31.6840 C.3   711  X99711      0.1111
      5  N3         9.4300   38.6310   33.0060 N.am  711  X99711     -0.2224
      6  C4        10.0750   37.5800   33.5340 C.2   711  X99711      0.2551
      7  C5         9.4400   39.6710   33.8730 C.2   711  X99711      0.2551
      8  O6        10.2100   36.4820   33.0240 O.2   711  X99711     -0.2695
      9  O7         8.9250   40.7770   33.7040 O.2   711  X99711     -0.2695
     10  C8        10.5840   37.9410   34.9050 C.ar  711  X99711      0.0584
     11  C9        11.3030   37.2120   35.8680 C.ar  711  X99711      0.0047
     12  C10       11.5910   37.8800   37.0730 C.ar  711  X99711      0.0001
     13  C11       11.1870   39.2140   37.2910 C.ar  711  X99711      0.0001
     14  C12       10.4700   39.9320   36.3180 C.ar  711  X99711      0.0047
     15  C13       10.1840   39.2610   35.1220 C.ar  711  X99711      0.0584
     16  N          5.4300   38.0090   30.6830 N.am  711  X99711     -0.2674
     17  CD         4.4830   38.4250   31.7310 C.3   711  X99711      0.1604
     18  CA         4.7290   37.5720   29.4720 C.3   711  X99711      0.1576
     19  CB         3.4990   36.8950   30.0170 C.3   711  X99711      0.0975
     20  CG         3.2180   37.6310   31.3360 C.3   711  X99711      0.2839
     21  C3         4.3800   38.7250   28.5430 C.2   711  X99711      0.2439
     22  O1         4.7020   39.8830   28.8190 O.2   711  X99711     -0.2731
     23  F1         2.9290   36.7290   32.3050 F     711  X99711     -0.2024
     24  F2         2.1780   38.4810   31.1550 F     711  X99711     -0.2024
     25  N1         3.6970   38.4260   27.4260 N.am  711  X99711     -0.2782
     26  CD1        3.2220   37.0690   27.0980 C.3   711  X99711      0.0935
     27  CA1        3.2880   39.4040   26.4210 C.3   711  X99711      0.0935
     28  CB1        2.8400   38.5220   25.2540 C.3   711  X99711      0.0233
     29  CG1        2.3440   37.2880   25.9000 C.3   711  X99711      0.0233
@<TRIPOS>BOND
     1    28    29    1
     2    28    27    1
     3    29    26    1
     4    27    25    1
     5    26    25    1
     6    25    21   am
     7    21    22    2
     8    21    18    1
     9    18    19    1
    10    18    16    1
    11     2     1    2
    12    19    20    1
    13     1    16   am
    14     1     3    1
    15    16    17    1
    16    24    20    1
    17    20    17    1
    18    20    23    1
    19     4     3    1
    20     4     5    1
    21     5     6   am
    22     5     7   am
    23     8     6    2
    24     6    10    1
    25     9     7    2
    26     7    15    1
    27    10    15   ar
    28    10    11   ar
    29    15    14   ar
    30    11    12   ar
    31    14    13   ar
    32    12    13   ar
