@<TRIPOS>MOLECULE
3eq8_X98_A_1.pdb
 33 37 0 0 0
SMALL
GASTEIGER

@<TRIPOS>ATOM
      1  C          6.6990   38.8090   30.8800 C.2   711  X98711      0.2277
      2  O          7.4710   38.1050   30.2310 O.2   711  X98711     -0.2748
      3  C1         7.1290   39.4130   32.2010 C.3   711  X98711      0.1068
      4  C2         8.6530   39.4760   32.2360 C.3   711  X98711      0.1040
      5  N3         9.2530   39.0130   33.4750 N.am  711  X98711     -0.2651
      6  C4         9.3640   39.9400   34.5400 C.2   711  X98711      0.2792
      7  C5        10.0010   39.4290   35.8200 C.2   711  X98711      0.1842
      8  N6        10.4290   38.1910   35.9570 N.2   711  X98711     -0.3996
      9  C7        10.3010   37.2990   34.8840 C.2   711  X98711      0.1314
     10  C8        10.7660   35.9640   35.0420 C.2   711  X98711      0.0296
     11  C9        10.6560   35.0500   33.9990 C.2   711  X98711      0.0021
     12  C10       10.0830   35.4270   32.7760 C.2   711  X98711     -0.0024
     13  C11        9.6160   36.7230   32.5810 C.2   711  X98711      0.0005
     14  C12        9.7090   37.6900   33.6240 C.3   711  X98711      0.1504
     15  O13        8.9470   41.1090   34.3730 O.2   711  X98711     -0.2671
     16  C14       10.1180   40.4160   36.9330 C.ar  711  X98711      0.0341
     17  C15       10.1620   39.9720   38.2720 C.ar  711  X98711      0.0027
     18  C16       10.2780   40.9000   39.3160 C.ar  711  X98711      0.0001
     19  C17       10.3470   42.2790   39.0370 C.ar  711  X98711      0.0000
     20  C18       10.3020   42.7260   37.7110 C.ar  711  X98711      0.0001
     21  C19       10.1870   41.8040   36.6610 C.ar  711  X98711      0.0027
     22  N          5.3730   38.5970   30.8730 N.am  711  X98711     -0.2729
     23  CA         4.7010   38.0220   29.7080 C.3   711  X98711      0.1520
     24  C3         4.3080   39.0890   28.7020 C.2   711  X98711      0.2437
     25  O1         4.3540   40.2840   28.9970 O.2   711  X98711     -0.2731
     26  CB         3.4800   37.3120   30.3030 C.3   711  X98711      0.0310
     27  CG         3.3470   37.8380   31.7350 C.3   711  X98711      0.0237
     28  CD         4.4210   38.8690   31.9630 C.3   711  X98711      0.0939
     29  N1         3.8950   38.6630   27.5010 N.am  711  X98711     -0.2782
     30  CD1        3.4370   39.5180   26.3940 C.3   711  X98711      0.0935
     31  CA1        3.8180   37.2440   27.1590 C.3   711  X98711      0.0935
     32  CB1        2.7960   37.2330   26.0280 C.3   711  X98711      0.0233
     33  CG1        3.0340   38.5280   25.3310 C.3   711  X98711      0.0233
@<TRIPOS>BOND
     1    33    32    1
     2    33    30    1
     3    32    31    1
     4    30    29    1
     5    31    29    1
     6    29    24   am
     7    24    25    2
     8    24    23    1
     9    23    26    1
    10    23    22    1
    11     2     1    2
    12    26    27    1
    13    22     1   am
    14    22    28    1
    15     1     3    1
    16    27    28    1
    17     3     4    1
    18     4     5    1
    19    13    12    2
    20    13    14    1
    21    12    11    1
    22     5    14    1
    23     5     6   am
    24    14     9    1
    25    11    10    2
    26    15     6    2
    27     6     7    1
    28     9    10    1
    29     9     8    2
    30     7     8    2
    31     7    16    1
    32    21    16   ar
    33    21    20   ar
    34    16    17   ar
    35    20    19   ar
    36    17    18   ar
    37    19    18   ar
