@<TRIPOS>MOLECULE
3eq9_X97_A_1.pdb
 36 40 0 0 0
SMALL
GASTEIGER

@<TRIPOS>ATOM
      1  C          6.7440   38.1680   30.7220 C.2   711  X97711      0.2260
      2  O          7.1820   38.0560   29.5730 O.2   711  X97711     -0.2749
      3  C1         7.6940   38.2630   31.8950 C.3   711  X97711      0.0871
      4  C2         9.0810   38.5680   31.3660 C.3   711  X97711      0.0323
      5  C3        10.1520   38.6190   32.4500 C.3   711  X97711      0.1113
      6  N4        10.1560   37.5050   33.3370 N.am  711  X97711     -0.1839
      7  C5        10.6020   36.1990   32.9980 C.1   711  X97711      0.2179
      8  N6        10.4010   35.3480   34.0980 N.2   711  X97711     -0.1763
      9  C7         9.7930   36.0700   35.2320 C.3   711  X97711      0.2028
     10  C8         9.6680   37.5380   34.6350 C.2   711  X97711      0.2672
     11  O9        11.0640   35.8510   31.9010 O.2   711  X97711     -0.2059
     12  O10        9.2620   38.5580   35.1950 O.2   711  X97711     -0.2711
     13  C11        8.4160   35.4860   35.5500 C.ar  711  X97711      0.0108
     14  C12        8.2880   34.1110   35.8350 C.ar  711  X97711     -0.0017
     15  C13        7.0280   33.5530   36.0790 C.ar  711  X97711     -0.0002
     16  C14        5.8820   34.3580   36.0430 C.ar  711  X97711     -0.0000
     17  C15        5.9990   35.7250   35.7640 C.ar  711  X97711     -0.0002
     18  C16        7.2580   36.2900   35.5190 C.ar  711  X97711     -0.0017
     19  C17       10.6540   36.0640   36.4920 C.ar  711  X97711      0.0108
     20  C18       11.9640   35.5490   36.4560 C.ar  711  X97711     -0.0017
     21  C19       12.7500   35.5340   37.6160 C.ar  711  X97711     -0.0002
     22  C20       12.2400   36.0300   38.8210 C.ar  711  X97711     -0.0000
     23  C21       10.9370   36.5450   38.8630 C.ar  711  X97711     -0.0002
     24  C22       10.1450   36.5630   37.7070 C.ar  711  X97711     -0.0017
     25  N          5.4360   38.0270   31.0040 N.am  711  X97711     -0.2730
     26  CA         4.4110   37.7760   29.9780 C.3   711  X97711      0.1520
     27  C4         4.2940   38.9110   28.9610 C.2   711  X97711      0.2437
     28  O1         4.5910   40.0650   29.2680 O.2   711  X97711     -0.2731
     29  CB         3.1210   37.5880   30.7850 C.3   711  X97711      0.0310
     30  CG         3.3940   38.2390   32.1010 C.3   711  X97711      0.0237
     31  CD         4.8590   38.0860   32.3590 C.3   711  X97711      0.0939
     32  N1         3.8410   38.6000   27.7360 N.am  711  X97711     -0.2782
     33  CD1        3.7540   39.6040   26.6560 C.3   711  X97711      0.0935
     34  CA1        3.4400   37.2680   27.2730 C.3   711  X97711      0.0935
     35  CB1        2.8640   37.5470   25.8790 C.3   711  X97711      0.0233
     36  CG1        3.5880   38.7670   25.4150 C.3   711  X97711      0.0233
@<TRIPOS>BOND
     1    36    35    1
     2    36    33    1
     3    35    34    1
     4    33    32    1
     5    34    32    1
     6    32    27   am
     7    27    28    2
     8    27    26    1
     9     2     1    2
    10    26    29    1
    11    26    25    1
    12     1    25   am
    13     1     3    1
    14    29    30    1
    15    25    31    1
    16     4     3    1
    17     4     5    1
    18    11     7    2
    19    30    31    1
    20     5     6    1
    21     7     6   am
    22     7     8    2
    23     6    10   am
    24     8     9    1
    25    10    12    2
    26    10     9    1
    27     9    13    1
    28     9    19    1
    29    18    13   ar
    30    18    17   ar
    31    13    14   ar
    32    17    16   ar
    33    14    15   ar
    34    16    15   ar
    35    20    19   ar
    36    20    21   ar
    37    19    24   ar
    38    21    22   ar
    39    24    23   ar
    40    22    23   ar
