@<TRIPOS>MOLECULE
3eqa_MAN_A_10.pdb
 11 11 0 0 0
SMALL
GASTEIGER

@<TRIPOS>ATOM
      1  C1       -21.7990   -7.0320   40.1810 C.3   606  MAN606      0.1777
      2  C2       -21.6600   -5.5130   40.0060 C.3   606  MAN606      0.2141
      3  C3       -21.3940   -4.7720   41.3140 C.3   606  MAN606      0.2173
      4  C4       -22.3040   -5.2630   42.4470 C.3   606  MAN606      0.2142
      5  C5       -22.2390   -6.7880   42.5350 C.3   606  MAN606      0.1810
      6  C6       -23.1260   -7.3610   43.6340 C.3   606  MAN606      0.2141
      7  O2       -22.8340   -4.9800   39.4350 O.3   606  MAN606     -0.2176
      8  O3       -21.5970   -3.3970   41.0940 O.3   606  MAN606     -0.2175
      9  O4       -21.8730   -4.6850   43.6550 O.3   606  MAN606     -0.2176
     10  O5       -22.6360   -7.3430   41.2930 O.3   606  MAN606     -0.3481
     11  O6       -22.4380   -8.4420   44.2330 O.3   606  MAN606     -0.2176
@<TRIPOS>BOND
     1     7     2    1
     2     2     1    1
     3     2     3    1
     4     1    10    1
     5     8     3    1
     6    10     5    1
     7     3     4    1
     8     4     5    1
     9     4     9    1
    10     5     6    1
    11     6    11    1
