@<TRIPOS>MOLECULE
3eqa_NAG_A_1.pdb
 14 14 0 0 0
SMALL
GASTEIGER

@<TRIPOS>ATOM
      1  C1       -17.6660   12.4470   12.5990 C.3   501  NAG501      0.1665
      2  C2       -16.2140   12.8060   12.2600 C.3   501  NAG501      0.1576
      3  C3       -16.1570   13.7350   11.0480 C.3   501  NAG501      0.2069
      4  C4       -16.9170   13.1560    9.8570 C.3   501  NAG501      0.2134
      5  C5       -18.3210   12.7630   10.3160 C.3   501  NAG501      0.1809
      6  C6       -19.1020   12.0600    9.2090 C.3   501  NAG501      0.2141
      7  C7       -14.8490   12.6960   14.3040 C.2   501  NAG501      0.2420
      8  C8       -14.0880   13.4820   15.3240 C.3   501  NAG501      0.0964
      9  N2       -15.5050   13.4080   13.3790 N.am  501  NAG501     -0.2019
     10  O3       -14.8150   13.9870   10.7100 O.3   501  NAG501     -0.2184
     11  O4       -17.0320   14.1120    8.8270 O.3   501  NAG501     -0.2176
     12  O5       -18.2360   11.8850   11.4250 O.3   501  NAG501     -0.3489
     13  O6       -18.3990   10.9060    8.7820 O.3   501  NAG501     -0.2176
     14  O7       -14.8470   11.4620   14.3590 O.2   501  NAG501     -0.2733
@<TRIPOS>BOND
     1    13     6    1
     2    11     4    1
     3     6     5    1
     4     4     5    1
     5     4     3    1
     6     5    12    1
     7    10     3    1
     8     3     2    1
     9    12     1    1
    10     2     1    1
    11     2     9    1
    12     9     7   am
    13     7    14    2
    14     7     8    1
