@<TRIPOS>MOLECULE
3eqb_ATP_A_1.pdb
 31 33 0 0 0
SMALL
GASTEIGER

@<TRIPOS>ATOM
      1  PG        45.8470   -6.7930    2.0060 P.3   9001  ATP9001     0.5373
      2  O1G       44.9660   -6.7000    3.2260 O.3   9001  ATP9001    -0.1143
      3  O2G       45.4880   -7.9900    1.1670 O.2   9001  ATP9001    -0.2221
      4  O3G       46.0770   -5.5130    1.2510 O.3   9001  ATP9001    -0.1143
      5  PB        47.6070   -8.1460    3.7450 P.3   9001  ATP9001     0.2277
      6  O1B       49.0690   -7.9990    3.9910 O.3   9001  ATP9001    -0.4368
      7  O2B       46.9900   -9.4480    3.2600 O.2   9001  ATP9001    -0.5168
      8  O3B       47.3150   -7.0310    2.6280 O.3   9001  ATP9001    -0.2258
      9  PA        46.1880   -8.6150    6.2190 P.3   9001  ATP9001     0.2189
     10  O1A       45.5770   -9.8420    5.5860 O.2   9001  ATP9001    -0.5170
     11  O2A       45.3010   -7.7510    7.0720 O.3   9001  ATP9001    -0.4371
     12  O3A       46.8000   -7.6600    5.0590 O.3   9001  ATP9001    -0.2700
     13  O5'       47.4710   -9.0130    7.1000 O.3   9001  ATP9001    -0.3112
     14  C5'       48.4060   -8.0300    7.5260 C.3   9001  ATP9001     0.1813
     15  C4'       49.7380   -8.6920    7.8830 C.3   9001  ATP9001     0.1821
     16  O4'       49.6450   -9.4620    9.0830 O.3   9001  ATP9001    -0.3135
     17  C3'       50.2160   -9.6820    6.8390 C.3   9001  ATP9001     0.2184
     18  O3'       51.0290   -9.0240    5.8650 O.3   9001  ATP9001    -0.2174
     19  C2'       51.0610  -10.6540    7.6250 C.3   9001  ATP9001     0.2570
     20  O2'       52.3870  -10.1550    7.6640 O.3   9001  ATP9001    -0.2130
     21  C1'       50.5590  -10.5580    9.0360 C.3   9001  ATP9001     0.3186
     22  N9        49.8300  -11.7940    9.3640 N.pl3 9001  ATP9001    -0.1439
     23  C8        48.5670  -12.0590    9.0240 C.3   9001  ATP9001     0.3377
     24  N7        48.2030  -13.2760    9.4780 N.2   9001  ATP9001    -0.2095
     25  C5        49.2520  -13.8120   10.1260 C.2   9001  ATP9001     0.2526
     26  C6        49.5460  -15.0770   10.8510 C.2   9001  ATP9001     0.4393
     27  N6        48.6070  -16.0500   10.9850 N.pl3 9001  ATP9001     0.2180
     28  N1        50.7900  -15.2190   11.3770 N.2   9001  ATP9001     0.0021
     29  C2        51.7440  -14.2750   11.2620 C.3   9001  ATP9001     0.5254
     30  N3        51.5400  -13.1140   10.6220 N.2   9001  ATP9001    -0.0055
     31  C4        50.3340  -12.8260   10.0480 C.2   9001  ATP9001     0.3518
@<TRIPOS>BOND
     1     3     1    2
     2     4     1    1
     3     1     8    1
     4     1     2    1
     5     8     5    1
     6     7     5    2
     7     5     6    1
     8     5    12    1
     9    12     9    1
    10    10     9    2
    11    18    17    1
    12     9    11    1
    13     9    13    1
    14    17    19    1
    15    17    15    1
    16    13    14    1
    17    14    15    1
    18    19    20    1
    19    19    21    1
    20    15    16    1
    21    23    22    1
    22    23    24    1
    23    21    16    1
    24    21    22    1
    25    22    31    1
    26    24    25    2
    27    31    25    1
    28    31    30    2
    29    25    26    1
    30    30    29    1
    31    26    27    1
    32    26    28    2
    33    29    28    1
