@<TRIPOS>MOLECULE
3eqb_LUG_A_1.pdb
 26 28 0 0 0
SMALL
GASTEIGER

@<TRIPOS>ATOM
      1  F2        35.9040  -15.7180    3.6950 F       1  LUG1       -0.2018
      2  C11       37.0020  -14.9950    4.0150 C.ar    1  LUG1        0.1687
      3  C12       37.8700  -15.2550    5.1160 C.ar    1  LUG1        0.1826
      4  F1        37.7010  -16.2700    5.9800 F       1  LUG1       -0.2004
      5  C10       37.2280  -13.9380    3.1530 C.ar    1  LUG1        0.0322
      6  C9        38.3200  -13.1370    3.4060 C.ar    1  LUG1        0.0085
      7  C8        39.1640  -13.4240    4.4680 C.ar    1  LUG1        0.0727
      8  C13       40.2750  -12.5090    4.7050 C.ar    1  LUG1        0.2526
      9  N2        40.9080  -12.3960    5.8920 N.ar    1  LUG1       -0.1057
     10  N3        41.8620  -11.3920    5.7590 N.ar    1  LUG1       -0.0909
     11  C14       41.7080  -10.9520    4.4940 C.ar    1  LUG1        0.3285
     12  N4        42.5090   -9.8560    3.9330 N.pl3   1  LUG1       -0.1850
     13  C15       42.3050   -8.6260    4.7260 C.3     1  LUG1        0.1374
     14  C16       41.7730   -7.5550    3.7970 C.3     1  LUG1        0.1327
     15  N5        42.3730   -6.2500    4.2050 N.3     1  LUG1       -0.1294
     16  O1        40.7360  -11.5990    3.8010 O.2     1  LUG1       -0.4037
     17  C7        38.9820  -14.4640    5.3440 C.ar    1  LUG1        0.1047
     18  N1        39.9180  -14.5990    6.4290 N.pl3   1  LUG1       -0.2077
     19  C3        40.6290  -15.8040    6.7030 C.ar    1  LUG1        0.0979
     20  C4        40.3640  -16.9960    6.0420 C.ar    1  LUG1        0.0192
     21  C5        41.0840  -18.1490    6.3640 C.ar    1  LUG1        0.0073
     22  C6        42.0760  -18.1540    7.3560 C.ar    1  LUG1        0.0324
     23  I1        43.1540  -19.9140    7.8320 I       1  LUG1       -0.0424
     24  C1        42.3430  -16.9680    8.0190 C.ar    1  LUG1        0.0368
     25  C2        41.6230  -15.8120    7.6990 C.ar    1  LUG1        0.1556
     26  F3        41.9210  -14.6850    8.3860 F       1  LUG1       -0.2028
@<TRIPOS>BOND
     1     5     6   ar
     2     5     2   ar
     3     6     7   ar
     4     1     2    1
     5    14    15    1
     6    14    13    1
     7    16    11   ar
     8    16     8   ar
     9    12    11    1
    10    12    13    1
    11     2     3   ar
    12     7     8    1
    13     7    17   ar
    14    11    10   ar
    15     8     9   ar
    16     3    17   ar
    17     3     4    1
    18    17    18    1
    19    10     9   ar
    20    20    21   ar
    21    20    19   ar
    22    21    22   ar
    23    18    19    1
    24    19    25   ar
    25    22    23    1
    26    22    24   ar
    27    25    24   ar
    28    25    26    1
