@<TRIPOS>MOLECULE
3eqc_AGS_A_1.pdb
 31 33 0 0 0
SMALL
GASTEIGER

@<TRIPOS>ATOM
      1  PG       -10.9530   60.7210   32.8940 P.3     2  AGS2        0.4340
      2  S1G      -12.4050   59.9620   32.5100 S.3     2  AGS2        0.0416
      3  O2G       -9.8440   60.2640   31.9610 O.2     2  AGS2       -0.2423
      4  O3G      -10.5670   60.4110   34.4270 O.3     2  AGS2       -0.1305
      5  PB       -10.2180   63.5300   32.8570 P.3     2  AGS2        0.2262
      6  O1B       -8.9920   63.3820   31.9670 O.2     2  AGS2       -0.5168
      7  O2B      -10.9070   64.8480   32.6700 O.3     2  AGS2       -0.4369
      8  O3B      -11.2240   62.3040   32.7190 O.3     2  AGS2       -0.2405
      9  PA        -8.3900   63.8550   35.0360 P.3     2  AGS2        0.2189
     10  O1A       -8.4550   63.3900   36.4890 O.3     2  AGS2       -0.4371
     11  O2A       -7.2370   63.1860   34.4090 O.2     2  AGS2       -0.5170
     12  O3A       -9.7820   63.5590   34.3810 O.3     2  AGS2       -0.2701
     13  O5'       -8.1920   65.3910   34.9720 O.3     2  AGS2       -0.3112
     14  C5'       -9.1910   66.2550   35.5240 C.3     2  AGS2        0.1813
     15  C4'       -9.0210   67.6070   34.8310 C.3     2  AGS2        0.1821
     16  O4'       -7.8780   68.3500   35.3660 O.3     2  AGS2       -0.3135
     17  C3'       -8.6990   67.5230   33.3510 C.3     2  AGS2        0.2184
     18  O3'       -9.9220   67.2890   32.6440 O.3     2  AGS2       -0.2174
     19  C2'       -7.9940   68.8730   33.1070 C.3     2  AGS2        0.2570
     20  O2'       -8.9740   69.8580   32.8210 O.3     2  AGS2       -0.2130
     21  C1'       -7.3830   69.2800   34.4590 C.3     2  AGS2        0.3186
     22  N9        -5.9230   69.1730   34.4670 N.pl3   2  AGS2       -0.1439
     23  C8        -5.1940   68.0140   34.5470 C.3     2  AGS2        0.3377
     24  N7        -3.8570   68.2210   34.4640 N.2     2  AGS2       -0.2095
     25  C5        -3.7010   69.5890   34.4010 C.2     2  AGS2        0.2526
     26  C6        -2.5210   70.3500   34.3590 C.2     2  AGS2        0.4393
     27  N6        -1.3210   69.9460   34.2730 N.pl3   2  AGS2        0.2180
     28  N1        -2.8080   71.6720   34.2920 N.2     2  AGS2        0.0021
     29  C2        -4.0620   72.2360   34.2230 C.3     2  AGS2        0.5254
     30  N3        -5.1760   71.5340   34.2780 N.2     2  AGS2       -0.0055
     31  C4        -4.9610   70.2050   34.3700 C.2     2  AGS2        0.3518
@<TRIPOS>BOND
     1     3     1    2
     2     6     5    2
     3     2     1    1
     4    18    17    1
     5     7     5    1
     6     8     5    1
     7     8     1    1
     8    20    19    1
     9     5    12    1
    10     1     4    1
    11    19    17    1
    12    19    21    1
    13    17    15    1
    14    29    30    1
    15    29    28    1
    16    27    26    1
    17    30    31    2
    18    28    26    2
    19    26    25    1
    20    31    25    1
    21    31    22    1
    22    12     9    1
    23    25    24    2
    24    11     9    2
    25    21    22    1
    26    21    16    1
    27    24    23    1
    28    22    23    1
    29    15    16    1
    30    15    14    1
    31    13     9    1
    32    13    14    1
    33     9    10    1
