@<TRIPOS>MOLECULE
3eqc_3BM_A_1.pdb
 26 27 0 0 0
SMALL
GASTEIGER

@<TRIPOS>ATOM
      1  C01        0.2250   60.8890   33.9240 C.ar    1  3BM1        0.0811
      2  C02        1.1120   60.6460   32.8450 C.ar    1  3BM1        0.0178
      3  C03        1.9570   61.6560   32.3450 C.ar    1  3BM1        0.0072
      4  C04        1.9330   62.9200   32.9810 C.ar    1  3BM1        0.0310
      5  C05        1.0440   63.1890   34.0300 C.ar    1  3BM1        0.0185
      6  C06        0.2230   62.1730   34.5000 C.ar    1  3BM1        0.0733
      7  N07       -0.6670   59.9140   34.4450 N.pl3   1  3BM1       -0.2091
      8  C08       -0.9180   58.5950   34.0780 C.ar    1  3BM1        0.1046
      9  C09       -2.2530   58.1480   33.8580 C.ar    1  3BM1        0.0747
     10  C10       -2.5050   56.8350   33.4210 C.ar    1  3BM1        0.0084
     11  C11       -1.4480   55.9470   33.2070 C.ar    1  3BM1        0.0322
     12  C12       -0.1460   56.3780   33.4240 C.ar    1  3BM1        0.1687
     13  C13        0.1220   57.6820   33.8560 C.ar    1  3BM1        0.1826
     14  C14       -3.4120   59.0200   34.2130 C.2     1  3BM1        0.2914
     15  N15       -4.6020   58.7480   33.5820 N.am    1  3BM1       -0.0577
     16  O16       -3.2890   59.8720   35.0970 O.2     1  3BM1       -0.2661
     17  O17       -5.7220   59.5710   33.9380 O.3     1  3BM1       -0.2409
     18  C18       -6.0320   59.4440   35.3450 C.3     1  3BM1        0.2088
     19  C19       -7.5430   59.6220   35.5450 C.3     1  3BM1        0.2167
     20  C20       -8.2060   58.3110   35.9610 C.3     1  3BM1        0.2175
     21  O21       -7.8030   60.5910   36.5880 O.3     1  3BM1       -0.2175
     22  O22       -9.6120   58.5400   36.0610 O.3     1  3BM1       -0.2175
     23  I23        3.1450   64.4240   32.2780 I       1  3BM1       -0.0425
     24 CL24       -0.8730   62.5420   35.7670 Cl      1  3BM1       -0.0809
     25  F25        1.4130   58.0480   34.0030 F       1  3BM1       -0.2004
     26  F26        0.8610   55.5450   33.1750 F       1  3BM1       -0.2018
@<TRIPOS>BOND
     1    23     4    1
     2     3     2   ar
     3     3     4   ar
     4     2     1   ar
     5     4     5   ar
     6    26    12    1
     7    11    10   ar
     8    11    12   ar
     9    10     9   ar
    10    12    13   ar
    11    15    17    1
    12    15    14   am
    13    13    25    1
    14    13     8   ar
    15     9     8   ar
    16     9    14    1
    17     1     7    1
    18     1     6   ar
    19    17    18    1
    20     5     6   ar
    21     8     7    1
    22    14    16    2
    23     6    24    1
    24    18    19    1
    25    19    20    1
    26    19    21    1
    27    20    22    1
