@<TRIPOS>MOLECULE
3eqd_AGS_A_1.pdb
 31 33 0 0 0
SMALL
GASTEIGER

@<TRIPOS>ATOM
      1  PG       -10.5730   60.7260   33.1070 P.3     2  AGS2        0.4340
      2  S1G      -11.9940   59.8700   32.8450 S.3     2  AGS2        0.0416
      3  O2G       -9.5020   60.2810   32.1200 O.2     2  AGS2       -0.2423
      4  O3G      -10.0560   60.5600   34.6170 O.3     2  AGS2       -0.1305
      5  PB        -9.9380   63.5240   32.9770 P.3     2  AGS2        0.2262
      6  O1B       -8.7440   63.3840   32.0530 O.2     2  AGS2       -0.5168
      7  O2B      -10.6510   64.8080   32.6430 O.3     2  AGS2       -0.4369
      8  O3B      -10.9220   62.2720   32.8760 O.3     2  AGS2       -0.2405
      9  PA        -8.1240   64.0070   35.2040 P.3     2  AGS2        0.2189
     10  O1A       -8.0970   63.7520   36.6930 O.3     2  AGS2       -0.4371
     11  O2A       -6.9030   63.3830   34.6190 O.2     2  AGS2       -0.5170
     12  O3A       -9.4890   63.5740   34.5250 O.3     2  AGS2       -0.2701
     13  O5'       -8.0370   65.5700   34.9560 O.3     2  AGS2       -0.3112
     14  C5'       -9.2020   66.3930   35.2310 C.3     2  AGS2        0.1813
     15  C4'       -8.9520   67.7580   34.5740 C.3     2  AGS2        0.1821
     16  O4'       -7.8510   68.4510   35.2240 O.3     2  AGS2       -0.3135
     17  C3'       -8.5050   67.7420   33.1210 C.3     2  AGS2        0.2184
     18  O3'       -9.6190   67.4630   32.2770 O.3     2  AGS2       -0.2174
     19  C2'       -7.8720   69.1390   33.0110 C.3     2  AGS2        0.2570
     20  O2'       -8.8830   70.1280   32.8540 O.3     2  AGS2       -0.2130
     21  C1'       -7.2350   69.3730   34.3870 C.3     2  AGS2        0.3186
     22  N9        -5.7750   69.1680   34.4200 N.pl3   2  AGS2       -0.1439
     23  C8        -5.0860   67.9860   34.5120 C.3     2  AGS2        0.3377
     24  N7        -3.7270   68.1420   34.4940 N.2     2  AGS2       -0.2095
     25  C5        -3.5250   69.5170   34.3800 C.2     2  AGS2        0.2526
     26  C6        -2.3310   70.2810   34.3190 C.2     2  AGS2        0.4393
     27  N6        -1.1180   69.9020   34.3280 N.pl3   2  AGS2        0.2180
     28  N1        -2.6240   71.6240   34.2230 N.2     2  AGS2        0.0021
     29  C2        -3.8810   72.2010   34.1620 C.3     2  AGS2        0.5254
     30  N3        -4.9990   71.5040   34.2110 N.2     2  AGS2       -0.0055
     31  C4        -4.7880   70.1630   34.3280 C.2     2  AGS2        0.3518
@<TRIPOS>BOND
     1     6     5    2
     2     3     1    2
     3    18    17    1
     4     7     5    1
     5     2     1    1
     6    20    19    1
     7     8     5    1
     8     8     1    1
     9     5    12    1
    10    19    17    1
    11    19    21    1
    12     1     4    1
    13    17    15    1
    14    29    30    1
    15    29    28    1
    16    30    31    2
    17    28    26    2
    18    26    27    1
    19    26    25    1
    20    31    25    1
    21    31    22    1
    22    25    24    2
    23    21    22    1
    24    21    16    1
    25    22    23    1
    26    24    23    1
    27    12     9    1
    28    15    16    1
    29    15    14    1
    30    11     9    2
    31    13     9    1
    32    13    14    1
    33     9    10    1
