@<TRIPOS>MOLECULE
3eqf_KSA_A_1.pdb
 35 42 0 0 0
SMALL
GASTEIGER

@<TRIPOS>ATOM
      1  O3       -10.6090   65.6180   32.7540 O.2     1  KSA1       -0.2472
      2  C22      -10.4200   66.8370   32.9820 C.2     1  KSA1        0.3492
      3  O5       -11.3980   67.7380   33.1970 O.3     1  KSA1       -0.4426
      4  C26      -12.7390   67.3180   33.1740 C.3     1  KSA1        0.2557
      5  C1        -8.9990   67.4800   33.0470 C.3     1  KSA1        0.2594
      6  O4        -8.1410   66.9150   32.0560 O.3     1  KSA1       -0.2096
      7  C2        -8.3660   67.4090   34.4380 C.3     1  KSA1        0.2010
      8  O1        -8.8440   68.5080   35.1490 O.3     1  KSA1       -0.3180
      9  C25       -8.7260   66.1640   35.2920 C.3     1  KSA1        0.0572
     10  N1        -6.8550   67.5240   34.3950 N.ar    1  KSA1       -0.3050
     11  C3        -6.1020   68.7440   34.4510 C.ar    1  KSA1        0.0774
     12  C4        -6.5530   70.0700   34.4290 C.ar    1  KSA1        0.0783
     13  N2        -7.8960   70.5070   34.3980 N.ar    1  KSA1       -0.3039
     14  C24       -9.0580   69.5720   34.3000 C.3     1  KSA1        0.2096
     15  C27       -9.1010   69.0000   32.8630 C.3     1  KSA1        0.0997
     16  C17       -7.9200   71.9090   34.3850 C.ar    1  KSA1        0.0618
     17  C18       -8.9390   72.8660   34.3580 C.ar    1  KSA1        0.0172
     18  C19       -8.6000   74.2340   34.3590 C.ar    1  KSA1        0.0015
     19  C20       -7.2530   74.6370   34.4030 C.ar    1  KSA1        0.0001
     20  C21       -6.2210   73.6860   34.4420 C.ar    1  KSA1        0.0015
     21  C16       -6.5390   72.3040   34.4330 C.ar    1  KSA1        0.0180
     22  C5        -5.7070   71.1690   34.4530 C.ar    1  KSA1        0.0293
     23  C6        -4.3040   70.8620   34.4950 C.ar    1  KSA1        0.0822
     24  C15       -3.1050   71.7610   34.5450 C.1     1  KSA1        0.1501
     25  O2        -3.0860   72.9860   34.5520 O.2     1  KSA1       -0.2222
     26  C7        -3.8550   69.5340   34.5120 C.ar    1  KSA1        0.0154
     27  C23       -2.3450   69.5260   34.5620 C.3     1  KSA1        0.1650
     28  N3        -2.0250   70.9640   34.5790 N.2     1  KSA1       -0.1976
     29  C8        -4.7550   68.4390   34.4880 C.ar    1  KSA1        0.0173
     30  C9        -4.6520   67.0570   34.4860 C.ar    1  KSA1        0.0171
     31  C10       -5.9450   66.4540   34.4530 C.ar    1  KSA1        0.0617
     32  C11       -6.0700   65.0550   34.4480 C.ar    1  KSA1        0.0172
     33  C14       -3.5060   66.2510   34.5200 C.ar    1  KSA1        0.0015
     34  C13       -3.6430   64.8420   34.5100 C.ar    1  KSA1        0.0001
     35  C12       -4.9160   64.2500   34.4670 C.ar    1  KSA1        0.0015
@<TRIPOS>BOND
     1     6     5    1
     2     1     2    2
     3    15     5    1
     4    15    14    1
     5     2     5    1
     6     2     3    1
     7     5     7    1
     8     4     3    1
     9    14    13    1
    10    14     8    1
    11    17    18   ar
    12    17    16   ar
    13    18    19   ar
    14    16    13   ar
    15    16    21   ar
    16    10     7    1
    17    10    11   ar
    18    10    31   ar
    19    13    12   ar
    20    19    20   ar
    21    12    11   ar
    22    12    22   ar
    23    21    20   ar
    24    21    22   ar
    25     7     8    1
    26     7     9    1
    27    32    31   ar
    28    32    35   ar
    29    11    29   ar
    30    22    23   ar
    31    31    30   ar
    32    35    34   ar
    33    30    29   ar
    34    30    33   ar
    35    29    26   ar
    36    23    26   ar
    37    23    24    1
    38    34    33   ar
    39    26    27    1
    40    24    25    2
    41    24    28    2
    42    27    28    1
