@<TRIPOS>MOLECULE
3eqg_ADP_A_1.pdb
 27 29 0 0 0
SMALL
GASTEIGER

@<TRIPOS>ATOM
      1  PB        -9.9940   61.8150   32.5550 P.3     2  ADP2        0.5373
      2  O1B       -8.5320   61.8320   32.3010 O.2     2  ADP2       -0.2221
      3  O2B      -10.8110   63.1920   32.7740 O.3     2  ADP2       -0.1143
      4  O3B      -10.7800   60.4240   32.4490 O.3     2  ADP2       -0.1143
      5  PA        -8.5340   62.1280   35.0110 P.3     2  ADP2        0.2231
      6  O1A       -8.5720   61.5270   36.3660 O.3     2  ADP2       -0.4370
      7  O2A       -7.1650   61.6340   34.2640 O.2     2  ADP2       -0.5169
      8  O3A       -9.9120   61.6360   34.2060 O.3     2  ADP2       -0.2261
      9  O5'       -8.4130   63.7280   35.1980 O.3     2  ADP2       -0.3111
     10  C5'       -9.6780   64.3600   35.1080 C.3     2  ADP2        0.1813
     11  C4'       -9.3610   65.8190   34.8090 C.3     2  ADP2        0.1821
     12  O4'       -8.1080   66.1540   35.4650 O.3     2  ADP2       -0.3135
     13  C3'       -8.9700   65.9380   33.3440 C.3     2  ADP2        0.2184
     14  O3'      -10.1260   66.0040   32.5090 O.3     2  ADP2       -0.2174
     15  C2'       -8.1060   67.2340   33.3600 C.3     2  ADP2        0.2570
     16  O2'       -8.8780   68.3940   33.1820 O.3     2  ADP2       -0.2130
     17  C1'       -7.5180   67.2730   34.7700 C.3     2  ADP2        0.3186
     18  N9        -6.0480   67.1590   34.7230 N.pl3   2  ADP2       -0.1439
     19  C8        -5.3090   66.0030   34.7400 C.3     2  ADP2        0.3377
     20  N7        -4.0350   66.2760   34.6180 N.2     2  ADP2       -0.2095
     21  C5        -3.8730   67.6350   34.5670 C.2     2  ADP2        0.2526
     22  C6        -2.7700   68.5050   34.4650 C.2     2  ADP2        0.4393
     23  N6        -1.4900   68.0110   34.3920 N.pl3   2  ADP2        0.2180
     24  N1        -2.9830   69.8210   34.4430 N.2     2  ADP2        0.0021
     25  C2        -4.2140   70.3160   34.4430 C.3     2  ADP2        0.5254
     26  N3        -5.2850   69.5400   34.5250 N.2     2  ADP2       -0.0055
     27  C4        -5.1610   68.2090   34.6140 C.2     2  ADP2        0.3518
@<TRIPOS>BOND
     1     2     1    2
     2     4     1    1
     3    14    13    1
     4     1     3    1
     5     1     8    1
     6    16    15    1
     7    13    15    1
     8    13    11    1
     9    15    17    1
    10     8     5    1
    11     7     5    2
    12    23    22    1
    13    25    24    1
    14    25    26    1
    15    24    22    2
    16    22    21    1
    17    26    27    2
    18    21    27    1
    19    21    20    2
    20    27    18    1
    21    20    19    1
    22    18    19    1
    23    18    17    1
    24    17    12    1
    25    11    10    1
    26    11    12    1
    27     5     9    1
    28     5     6    1
    29    10     9    1
