@<TRIPOS>MOLECULE
3eqg_4BM_A_1.pdb
 26 27 0 0 0
SMALL
GASTEIGER

@<TRIPOS>ATOM
      1  C01       -0.0860   58.9080   33.9440 C.ar    1  4BM1        0.0979
      2  C02        0.7130   58.7210   32.7570 C.ar    1  4BM1        0.0192
      3  C03        1.6210   59.6460   32.1920 C.ar    1  4BM1        0.0073
      4  C04        1.7610   60.8390   32.8250 C.ar    1  4BM1        0.0324
      5  C05        0.9910   61.0350   33.9590 C.ar    1  4BM1        0.0368
      6  C06        0.0890   60.1410   34.4880 C.ar    1  4BM1        0.1556
      7  N07       -1.0160   57.9780   34.4970 N.pl3   1  4BM1       -0.2077
      8  C08       -1.2560   56.6550   33.9760 C.ar    1  4BM1        0.1046
      9  C09       -2.5410   56.2120   33.6260 C.ar    1  4BM1        0.0747
     10  C10       -2.7720   54.9290   33.0550 C.ar    1  4BM1        0.0084
     11  C11       -1.7380   54.0340   32.7210 C.ar    1  4BM1        0.0322
     12  C12       -0.4550   54.4760   33.0540 C.ar    1  4BM1        0.1687
     13  C13       -0.2610   55.7450   33.6910 C.ar    1  4BM1        0.1826
     14  C14       -3.6640   57.0570   34.0400 C.2     1  4BM1        0.2914
     15  N15       -4.8480   56.8670   33.3810 N.am    1  4BM1       -0.0577
     16  O16       -3.4490   57.8120   34.9980 O.2     1  4BM1       -0.2661
     17  O17       -6.0280   57.6640   33.7890 O.3     1  4BM1       -0.2409
     18  C18       -6.2330   57.4970   35.2360 C.3     1  4BM1        0.2088
     19  C19       -7.6360   57.7380   35.7720 C.3     1  4BM1        0.2167
     20  C20       -7.6270   58.5230   37.0880 C.3     1  4BM1        0.2175
     21  O21       -8.5080   58.3390   34.8030 O.3     1  4BM1       -0.2175
     22  O22       -8.8820   59.1920   37.1030 O.3     1  4BM1       -0.2175
     23  I23        3.0610   62.4470   32.2850 I       1  4BM1       -0.0424
     24  F24       -0.5830   60.5530   35.5430 F       1  4BM1       -0.2028
     25  F25        0.9640   56.0870   33.9460 F       1  4BM1       -0.2004
     26  F26        0.6280   53.6680   32.7680 F       1  4BM1       -0.2018
@<TRIPOS>BOND
     1     3     2   ar
     2     3     4   ar
     3    23     4    1
     4    11    12   ar
     5    11    10   ar
     6     2     1   ar
     7    26    12    1
     8     4     5   ar
     9    12    13   ar
    10    10     9   ar
    11    15    17    1
    12    15    14   am
    13     9     8   ar
    14     9    14    1
    15    13    25    1
    16    13     8   ar
    17    17    18    1
    18     1     6   ar
    19     1     7    1
    20     5     6   ar
    21     8     7    1
    22    14    16    2
    23     6    24    1
    24    21    19    1
    25    18    19    1
    26    19    20    1
    27    20    22    1
