@<TRIPOS>MOLECULE
3eqh_5BM_A_1.pdb
 26 27 0 0 0
SMALL
GASTEIGER

@<TRIPOS>ATOM
      1  C01       -1.3930   57.2140   33.8100 C.3     1  5BM1        0.1357
      2  C02       -0.3030   56.2970   33.8790 C.1     1  5BM1        0.0756
      3  N03        0.5780   55.5650   33.9350 N.1     1  5BM1       -0.1958
      4  C04       -2.6050   56.6980   33.5330 C.3     1  5BM1        0.1581
      5  N05       -3.8140   57.3410   33.4220 N.3     1  5BM1       -0.1195
      6  S06       -2.7680   54.9500   33.2910 S.3     1  5BM1       -0.0927
      7  C07       -3.7050   54.6440   31.8110 C.ar    1  5BM1        0.0433
      8  C08       -4.8210   53.7630   31.8450 C.ar    1  5BM1        0.0947
      9  C09       -5.5490   53.5100   30.6600 C.ar    1  5BM1        0.0186
     10  C10       -5.1600   54.1170   29.4590 C.ar    1  5BM1        0.0014
     11  C11       -4.0480   54.9890   29.4230 C.ar    1  5BM1        0.0006
     12  C12       -3.3200   55.2470   30.5950 C.ar    1  5BM1        0.0075
     13  N13       -5.2110   53.1700   32.9850 N.pl3   1  5BM1       -0.1275
     14  C21       -1.1740   58.4790   34.4540 C.3     1  5BM1        0.1357
     15  C22       -2.0020   58.7300   35.5890 C.1     1  5BM1        0.0756
     16  N23       -2.7190   58.8910   36.5040 N.1     1  5BM1       -0.1958
     17  C24       -0.0730   59.2340   34.2070 C.3     1  5BM1        0.1581
     18  N25        0.8360   59.1210   33.1460 N.3     1  5BM1       -0.1195
     19  S26        0.3960   60.5360   35.2570 S.3     1  5BM1       -0.0927
     20  C27        1.2360   61.7500   34.3370 C.ar    1  5BM1        0.0433
     21  C28        0.5120   62.7550   33.6100 C.ar    1  5BM1        0.0947
     22  C29        1.2480   63.7260   32.9010 C.ar    1  5BM1        0.0186
     23  C30        2.6680   63.6810   32.9300 C.ar    1  5BM1        0.0014
     24  C31        3.3470   62.6940   33.6610 C.ar    1  5BM1        0.0006
     25  C32        2.6340   61.7370   34.3620 C.ar    1  5BM1        0.0075
     26  N33       -0.8360   62.7920   33.5870 N.pl3   1  5BM1       -0.1275
@<TRIPOS>BOND
     1    11    10   ar
     2    11    12   ar
     3    10     9   ar
     4    12     7   ar
     5     9     8   ar
     6     7     8   ar
     7     7     6    1
     8     8    13    1
     9    22    23   ar
    10    22    21   ar
    11    23    24   ar
    12    18    17    1
    13     6     4    1
    14     5     4    1
    15     4     1    1
    16    26    21    1
    17    21    20   ar
    18    24    25   ar
    19     1     2    1
    20     1    14    1
    21     2     3    3
    22    17    14    1
    23    17    19    1
    24    20    25   ar
    25    20    19    1
    26    14    15    1
    27    15    16    3
