@<TRIPOS>MOLECULE
3eqh_ADP_A_1.pdb
 27 29 0 0 0
SMALL
GASTEIGER

@<TRIPOS>ATOM
      1  PB       -10.1460   62.9390   32.9610 P.3     2  ADP2        0.5373
      2  O1B       -8.8080   63.2240   32.3590 O.2     2  ADP2       -0.2221
      3  O2B      -11.1820   64.0690   32.5310 O.3     2  ADP2       -0.1143
      4  O3B      -10.6710   61.5300   32.4380 O.3     2  ADP2       -0.1143
      5  PA        -8.5640   63.1730   35.1260 P.3     2  ADP2        0.2231
      6  O1A       -8.4960   62.7650   36.5630 O.3     2  ADP2       -0.4370
      7  O2A       -7.5080   62.3150   34.2890 O.2     2  ADP2       -0.5169
      8  O3A      -10.0590   62.9070   34.5790 O.3     2  ADP2       -0.2261
      9  O5'       -8.1920   64.7350   35.0070 O.3     2  ADP2       -0.3111
     10  C5'       -9.2730   65.5070   35.5220 C.3     2  ADP2        0.1813
     11  C4'       -9.1780   66.9150   34.9410 C.3     2  ADP2        0.1821
     12  O4'       -8.0780   67.6330   35.5560 O.3     2  ADP2       -0.3135
     13  C3'       -8.8220   66.8430   33.4540 C.3     2  ADP2        0.2184
     14  O3'      -10.0020   66.6890   32.6600 O.3     2  ADP2       -0.2174
     15  C2'       -8.1520   68.1980   33.2000 C.3     2  ADP2        0.2570
     16  O2'       -9.1370   69.1660   32.8400 O.3     2  ADP2       -0.2130
     17  C1'       -7.5150   68.5500   34.5640 C.3     2  ADP2        0.3186
     18  N9        -6.0520   68.4080   34.5260 N.pl3   2  ADP2       -0.1439
     19  C8        -5.3510   67.2340   34.5610 C.3     2  ADP2        0.3377
     20  N7        -4.0670   67.4710   34.5170 N.2     2  ADP2       -0.2095
     21  C5        -3.8700   68.8200   34.4570 C.2     2  ADP2        0.2526
     22  C6        -2.7260   69.6490   34.3980 C.2     2  ADP2        0.4393
     23  N6        -1.4490   69.1090   34.3880 N.pl3   2  ADP2        0.2180
     24  N1        -2.9010   70.9710   34.3530 N.2     2  ADP2        0.0021
     25  C2        -4.1220   71.4960   34.3510 C.3     2  ADP2        0.5254
     26  N3        -5.2310   70.7650   34.4060 N.2     2  ADP2       -0.0055
     27  C4        -5.1340   69.4330   34.4620 C.2     2  ADP2        0.3518
@<TRIPOS>BOND
     1     2     1    2
     2     4     1    1
     3     3     1    1
     4    14    13    1
     5    16    15    1
     6     1     8    1
     7    15    13    1
     8    15    17    1
     9    13    11    1
    10     7     5    2
    11    25    24    1
    12    25    26    1
    13    24    22    2
    14    23    22    1
    15    22    21    1
    16    26    27    2
    17    21    27    1
    18    21    20    2
    19    27    18    1
    20    20    19    1
    21    18    19    1
    22    18    17    1
    23    17    12    1
    24     8     5    1
    25    11    10    1
    26    11    12    1
    27     9     5    1
    28     9    10    1
    29     5     6    1
