@<TRIPOS>MOLECULE
3eqi_ADP_A_1.pdb
 27 29 0 0 0
SMALL
GASTEIGER

@<TRIPOS>ATOM
      1  PB        -9.9260   63.4120   32.9610 P.3     2  ADP2        0.5373
      2  O1B       -8.7370   63.3250   32.0290 O.2     2  ADP2       -0.2221
      3  O2B      -10.6510   64.7030   32.6940 O.3     2  ADP2       -0.1143
      4  O3B      -10.8890   62.1590   32.8120 O.3     2  ADP2       -0.1143
      5  PA        -8.0770   63.7390   35.1760 P.3     2  ADP2        0.2231
      6  O1A       -8.0340   63.4040   36.6440 O.3     2  ADP2       -0.4370
      7  O2A       -6.8790   63.1130   34.5410 O.2     2  ADP2       -0.5169
      8  O3A       -9.4640   63.3880   34.5030 O.3     2  ADP2       -0.2261
      9  O5'       -7.9560   65.3070   35.0080 O.3     2  ADP2       -0.3111
     10  C5'       -9.1180   66.1260   35.3030 C.3     2  ADP2        0.1813
     11  C4'       -8.8700   67.4960   34.6740 C.3     2  ADP2        0.1821
     12  O4'       -7.7570   68.1700   35.3160 O.3     2  ADP2       -0.3135
     13  C3'       -8.4470   67.4980   33.2150 C.3     2  ADP2        0.2184
     14  O3'       -9.5830   67.2310   32.3930 O.3     2  ADP2       -0.2174
     15  C2'       -7.8110   68.8930   33.1070 C.3     2  ADP2        0.2570
     16  O2'       -8.8220   69.8750   32.9520 O.3     2  ADP2       -0.2130
     17  C1'       -7.1730   69.1270   34.4860 C.3     2  ADP2        0.3186
     18  N9        -5.7090   68.9620   34.5090 N.pl3   2  ADP2       -0.1439
     19  C8        -4.9920   67.7990   34.6050 C.3     2  ADP2        0.3377
     20  N7        -3.6430   67.9840   34.5570 N.2     2  ADP2       -0.2095
     21  C5        -3.4740   69.3600   34.4340 C.2     2  ADP2        0.2526
     22  C6        -2.3010   70.1430   34.3570 C.2     2  ADP2        0.4393
     23  N6        -1.0770   69.7870   34.3670 N.pl3   2  ADP2        0.2180
     24  N1        -2.6210   71.4750   34.2460 N.2     2  ADP2        0.0021
     25  C2        -3.8850   72.0240   34.2020 C.3     2  ADP2        0.5254
     26  N3        -4.9840   71.3050   34.2750 N.2     2  ADP2       -0.0055
     27  C4        -4.7460   69.9760   34.3960 C.2     2  ADP2        0.3518
@<TRIPOS>BOND
     1     2     1    2
     2    14    13    1
     3     3     1    1
     4     4     1    1
     5    16    15    1
     6     1     8    1
     7    15    13    1
     8    15    17    1
     9    13    11    1
    10    25    24    1
    11    25    26    1
    12    24    22    2
    13    26    27    2
    14    22    23    1
    15    22    21    1
    16    27    21    1
    17    27    18    1
    18    21    20    2
    19    17    18    1
    20    17    12    1
    21     8     5    1
    22    18    19    1
    23     7     5    2
    24    20    19    1
    25    11    10    1
    26    11    12    1
    27     9     5    1
    28     9    10    1
    29     5     6    1
