@<TRIPOS>MOLECULE
3eql_MXP_D_1.pdb
 30 30 0 0 0
SMALL
GASTEIGER

@<TRIPOS>ATOM
      1  O1       -11.7150   57.2370    2.8410 O.3   1527  MXP1527    -0.4470
      2  C1        -9.3460   57.7160    2.5350 C.2   1527  MXP1527     0.0551
      3  N1        -7.3060   53.7010    7.9880 N.am  1527  MXP1527    -0.1458
      4  C2        -9.6250   59.0970    2.5600 C.2   1527  MXP1527     0.1901
      5  C3       -10.9860   59.5820    2.6870 C.3   1527  MXP1527     0.2210
      6  O2        -8.5780   59.9970    2.4230 O.2   1527  MXP1527    -0.2905
      7  C4       -12.0130   58.6080    2.8140 C.2   1527  MXP1527     0.3317
      8  C5       -10.3740   56.7680    2.6860 C.3   1527  MXP1527     0.1938
      9  C6       -11.1580   61.1640    2.6710 C.2   1527  MXP1527     0.1868
     10  C7       -11.8490   61.5950    3.9670 C.2   1527  MXP1527     0.0138
     11  O3       -13.1700   58.9770    2.8840 O.2   1527  MXP1527    -0.2491
     12  C8       -11.0480   61.2920    5.0980 C.2   1527  MXP1527    -0.0021
     13  C9       -11.6660   61.6930    6.4710 C.2   1527  MXP1527    -0.0087
     14  C10      -11.0670   61.1540    7.6190 C.2   1527  MXP1527    -0.0439
     15  C11      -11.5500   61.4720    9.0060 C.3   1527  MXP1527     0.0220
     16  C12      -11.3110   62.8610    9.5820 C.3   1527  MXP1527     0.0043
     17  C13      -12.4710   63.8290    9.3920 C.3   1527  MXP1527     0.0003
     18  C14      -12.3960   65.2650    9.8880 C.3   1527  MXP1527     0.0000
     19  C15      -13.1920   62.2830    4.0150 C.3   1527  MXP1527     0.0340
     20  C16       -9.8870   60.1750    7.5260 C.3   1527  MXP1527     0.0264
     21  C17      -10.1100   55.2510    2.6670 C.3   1527  MXP1527     0.0484
     22  C18       -8.9150   54.9100    3.5740 C.3   1527  MXP1527     0.0045
     23  C19       -9.3000   54.6100    5.0250 C.3   1527  MXP1527     0.0062
     24  C20       -8.0460   54.2970    5.8130 C.3   1527  MXP1527     0.0444
     25  C21       -8.3010   54.0080    7.1340 C.2   1527  MXP1527     0.0657
     26  C22       -7.4860   53.4010    9.2840 C.2   1527  MXP1527     0.4253
     27  C23       -6.4000   52.7840   11.2550 C.3   1527  MXP1527     0.2574
     28  O4       -10.7510   61.6980    1.6530 O.2   1527  MXP1527    -0.2906
     29  O5        -6.4110   53.1310    9.9220 O.3   1527  MXP1527    -0.4292
     30  O6        -8.6720   53.4040    9.7940 O.2   1527  MXP1527    -0.2242
@<TRIPOS>BOND
     1    28     9    2
     2     6     4    1
     3     2     4    2
     4     2     8    1
     5     4     5    1
     6    21     8    1
     7    21    22    1
     8     9     5    1
     9     9    10    1
    10     8     1    1
    11     5     7    1
    12     7     1    1
    13     7    11    2
    14    22    23    1
    15    10    19    1
    16    10    12    2
    17    23    24    1
    18    12    13    1
    19    24    25    1
    20    13    14    2
    21    25     3    2
    22    20    14    1
    23    14    15    1
    24     3    26    1
    25    15    16    1
    26    26    30    2
    27    26    29    1
    28    17    16    1
    29    17    18    1
    30    29    27    1
