@<TRIPOS>MOLECULE
3eqm_ASD_A_1.pdb
 21 24 0 0 0
SMALL
GASTEIGER

@<TRIPOS>ATOM
      1  C1        87.3290   51.7020   45.6530 C.3   601  ASD601      0.0118
      2  C10       86.0160   52.3970   46.0530 C.3   601  ASD601      0.0157
      3  C11       86.4290   54.2380   44.3270 C.3   601  ASD601      0.0007
      4  C12       86.5240   55.7320   44.0170 C.3   601  ASD601      0.0069
      5  C13       85.2960   56.4340   44.5670 C.3   601  ASD601      0.0515
      6  C14       85.2430   56.1990   46.0710 C.3   601  ASD601      0.0070
      7  C15       84.2950   57.2760   46.6100 C.3   601  ASD601      0.0082
      8  C16       84.6710   58.5240   45.7990 C.3   601  ASD601      0.0645
      9  C17       85.3220   57.9360   44.5620 C.2   601  ASD601      0.1498
     10  C18       84.0200   56.0060   43.8330 C.3   601  ASD601      0.0073
     11  C19       84.8710   51.8490   45.2010 C.3   601  ASD601      0.0041
     12  C2        87.5020   50.3170   46.2650 C.3   601  ASD601      0.0694
     13  C3        87.3290   50.4510   47.7640 C.2   601  ASD601      0.1725
     14  C4        86.3120   51.2040   48.2600 C.2   601  ASD601      0.0289
     15  C5        85.7000   52.1670   47.5330 C.2   601  ASD601     -0.0420
     16  C6        84.6720   53.0330   48.2310 C.3   601  ASD601      0.0221
     17  C7        84.9470   54.5030   47.9310 C.3   601  ASD601      0.0044
     18  C8        85.0270   54.7370   46.4280 C.3   601  ASD601      0.0010
     19  C9        86.1740   53.9120   45.8110 C.3   601  ASD601      0.0035
     20  O1        88.1220   49.8780   48.5100 O.2   601  ASD601     -0.2914
     21  O2        85.8040   58.6030   43.6590 O.2   601  ASD601     -0.2961
@<TRIPOS>BOND
     1    21     9    2
     2    10     5    1
     3     4     3    1
     4     4     5    1
     5     3    19    1
     6     9     5    1
     7     9     8    1
     8     5     6    1
     9    11     2    1
    10     1     2    1
    11     1    12    1
    12     8     7    1
    13    19     2    1
    14    19    18    1
    15     2    15    1
    16     6    18    1
    17     6     7    1
    18    12    13    1
    19    18    17    1
    20    15    16    1
    21    15    14    2
    22    13    14    1
    23    13    20    2
    24    17    16    1
