@<TRIPOS>MOLECULE
3eqm_HEM_A_1.pdb
 43 50 0 0 0
SMALL
GASTEIGER

@<TRIPOS>ATOM
      1  CHA       86.3680   52.4390   41.1590 C.2   600  HEM600      0.0000
      2  CHB       81.8580   51.0510   42.1700 C.2   600  HEM600      0.0000
      3  CHC       83.5120   46.6790   43.2780 C.2   600  HEM600      0.0000
      4  CHD       87.9920   47.9400   42.0860 C.2   600  HEM600      0.0000
      5  C1A       84.9970   52.4260   41.2910 C.ar  600  HEM600      0.0000
      6  C2A       84.0890   53.5100   40.9320 C.ar  600  HEM600      0.0000
      7  C3A       82.8450   53.1170   41.2040 C.ar  600  HEM600      0.0000
      8  C4A       82.9300   51.7790   41.7420 C.ar  600  HEM600      0.0000
      9  CMA       81.5360   53.9190   41.0020 C.3   600  HEM600      0.0000
     10  CAA       84.4800   54.8700   40.3220 C.3   600  HEM600      0.0000
     11  CBA       84.5030   54.7270   38.8020 C.3   600  HEM600      0.0000
     12  CGA       84.6900   56.0750   38.1460 C.2   600  HEM600      0.0000
     13  O1A       85.5100   56.8890   38.6650 O.co2 600  HEM600      0.0000
     14  O2A       84.0270   56.3430   37.1040 O.co2 600  HEM600      0.0000
     15  C1B       81.9300   49.7840   42.6580 C.2   600  HEM600      0.0000
     16  C2B       80.8570   49.0580   43.2940 C.2   600  HEM600      0.0000
     17  C3B       81.3270   47.8430   43.5970 C.2   600  HEM600      0.0000
     18  C4B       82.7000   47.7760   43.1520 C.2   600  HEM600      0.0000
     19  CMB       79.4400   49.6200   43.5490 C.3   600  HEM600      0.0000
     20  CAB       80.6080   46.6720   44.2980 C.2   600  HEM600      0.0000
     21  CBB       79.2990   46.4830   44.1370 C.2   600  HEM600      0.0000
     22  C1C       84.8460   46.6230   42.9930 C.ar  600  HEM600      0.0000
     23  C2C       85.6770   45.4340   43.0730 C.ar  600  HEM600      0.0000
     24  C3C       86.9310   45.7920   42.7440 C.ar  600  HEM600      0.0000
     25  C4C       86.9060   47.2090   42.4530 C.ar  600  HEM600      0.0000
     26  CMC       85.1700   44.0300   43.4670 C.3   600  HEM600      0.0000
     27  CAC       88.2020   44.9130   42.6490 C.2   600  HEM600      0.0000
     28  CBC       88.4310   43.9050   43.5010 C.2   600  HEM600      0.0000
     29  C1D       87.9800   49.2730   41.7790 C.2   600  HEM600      0.0000
     30  C2D       89.1700   50.0320   41.4980 C.2   600  HEM600      0.0000
     31  C3D       88.6890   51.4500   41.2050 C.2   600  HEM600      0.0000
     32  C4D       87.2400   51.3900   41.3400 C.2   600  HEM600      0.0000
     33  CMD       90.6110   49.4930   41.5130 C.3   600  HEM600      0.0000
     34  CAD       89.5840   52.6530   40.8380 C.3   600  HEM600      0.0000
     35  CBD       89.5330   52.8070   39.3220 C.3   600  HEM600      0.0000
     36  CGD       90.4290   53.9220   38.8300 C.2   600  HEM600      0.0000
     37  O1D       91.1640   53.7040   37.8230 O.co2 600  HEM600      0.0000
     38  O2D       90.4010   55.0340   39.4330 O.co2 600  HEM600      0.0000
     39  NA        84.2500   51.3820   41.7800 N.ar  600  HEM600      0.0000
     40  NB        83.0360   48.9800   42.5860 N.2   600  HEM600      0.0000
     41  NC        85.6240   47.6890   42.6080 N.ar  600  HEM600      0.0000
     42  ND        86.8670   50.0950   41.6810 N.2   600  HEM600      0.0000
     43 FE         84.9000   49.4580   41.9850 Fe    600  HEM600      0.0000
@<TRIPOS>BOND
     1    14    12   ar
     2    37    36   ar
     3    12    13   ar
     4    12    11    1
     5    11    10    1
     6    36    35    1
     7    36    38   ar
     8    35    34    1
     9    10     6    1
    10    34    31    1
    11     6     7   ar
    12     6     5   ar
    13     9     7    1
    14     1     5    2
    15     1    32    1
    16     7     8   ar
    17    31    32    1
    18    31    30    2
    19     5    39   ar
    20    32    42    2
    21    30    33    1
    22    30    29    1
    23    42    29    1
    24    42    43    1
    25     8    39   ar
    26     8     2    2
    27    29     4    2
    28    39    43    1
    29    43    40    1
    30    43    41    1
    31     4    25    1
    32     2    15    1
    33    25    41   ar
    34    25    24   ar
    35    40    15    2
    36    40    18    1
    37    41    22   ar
    38    27    24    1
    39    27    28    2
    40    15    16    1
    41    24    23   ar
    42    22    23   ar
    43    22     3    1
    44    23    26    1
    45    18     3    2
    46    18    17    1
    47    16    19    1
    48    16    17    2
    49    17    20    1
    50    21    20    2
