@<TRIPOS>MOLECULE
3eqn_NAG_A_1.pdb
 14 14 0 0 0
SMALL
GASTEIGER

@<TRIPOS>ATOM
      1  C1        14.5620    6.9660    5.6540 C.3   753  NAG753      0.1665
      2  C2        15.2180    5.7900    6.4060 C.3   753  NAG753      0.1576
      3  C3        16.7310    5.8680    6.1700 C.3   753  NAG753      0.2069
      4  C4        17.1110    6.0870    4.6840 C.3   753  NAG753      0.2134
      5  C5        16.2340    7.1430    3.9790 C.3   753  NAG753      0.1809
      6  C6        16.4160    7.1360    2.4540 C.3   753  NAG753      0.2141
      7  C7        13.9720    5.1040    8.4780 C.2   753  NAG753      0.2420
      8  C8        13.7950    5.4280    9.9480 C.3   753  NAG753      0.0964
      9  N2        14.9460    5.7780    7.8600 N.am  753  NAG753     -0.2019
     10  O3        17.3340    4.6890    6.6800 O.3   753  NAG753     -0.2184
     11  O4        18.4570    6.4970    4.5810 O.3   753  NAG753     -0.2176
     12  O5        14.8880    6.8570    4.2760 O.3   753  NAG753     -0.3489
     13  O6        16.3570    5.8030    1.9790 O.3   753  NAG753     -0.2176
     14  O7        13.2330    4.2660    7.9350 O.2   753  NAG753     -0.2733
@<TRIPOS>BOND
     1    13     6    1
     2     6     5    1
     3     5    12    1
     4     5     4    1
     5    12     1    1
     6    11     4    1
     7     4     3    1
     8     1     2    1
     9     3     2    1
    10     3    10    1
    11     2     9    1
    12     9     7   am
    13    14     7    2
    14     7     8    1
