@<TRIPOS>MOLECULE
3eqo_NAG_A_1.pdb
 14 14 0 0 0
SMALL
GASTEIGER

@<TRIPOS>ATOM
      1  C1         8.0480   14.1160    4.8350 C.3   753  NAG753      0.1665
      2  C2         9.3930   13.7960    5.5180 C.3   753  NAG753      0.1576
      3  C3        10.5370   14.7680    5.1400 C.3   753  NAG753      0.2069
      4  C4        10.5800   15.1630    3.6480 C.3   753  NAG753      0.2134
      5  C5         9.1740   15.3820    3.0760 C.3   753  NAG753      0.1809
      6  C6         9.1230   15.5220    1.5540 C.3   753  NAG753      0.2141
      7  C7         9.0450   12.5100    7.5120 C.2   753  NAG753      0.2420
      8  C8         8.8320   12.5290    8.9930 C.3   753  NAG753      0.0964
      9  N2         9.2210   13.7070    6.9500 N.am  753  NAG753     -0.2019
     10  O3        11.7550   14.1130    5.4020 O.3   753  NAG753     -0.2184
     11  O4        11.3580   16.3430    3.5550 O.3   753  NAG753     -0.2176
     12  O5         8.3160   14.3150    3.4650 O.3   753  NAG753     -0.3489
     13  O6         9.9250   14.4950    0.9990 O.3   753  NAG753     -0.2176
     14  O7         9.0520   11.4430    6.8780 O.2   753  NAG753     -0.2733
@<TRIPOS>BOND
     1    13     6    1
     2     6     5    1
     3     5    12    1
     4     5     4    1
     5    12     1    1
     6    11     4    1
     7     4     3    1
     8     1     2    1
     9     3    10    1
    10     3     2    1
    11     2     9    1
    12    14     7    2
    13     9     7   am
    14     7     8    1
