@<TRIPOS>MOLECULE
3eqo_LGC_A_1.pdb
 12 12 0 0 0
SMALL
GASTEIGER

@<TRIPOS>ATOM
      1  C1       -10.5330   -4.7830   -5.7290 C.2   757  LGC757      0.3505
      2  C2        -9.6220   -5.7160   -4.9690 C.3   757  LGC757      0.2823
      3  O5       -10.4970   -4.6980   -7.1950 O.3   757  LGC757     -0.4450
      4  O1       -11.3250   -4.0290   -5.1340 O.2   757  LGC757     -0.2472
      5  O2        -9.0720   -4.9950   -3.8500 O.3   757  LGC757     -0.2082
      6  C3        -8.5760   -6.2900   -5.9380 C.3   757  LGC757      0.2270
      7  O3        -7.9150   -7.3960   -5.3130 O.3   757  LGC757     -0.2169
      8  C4        -9.2460   -6.8160   -7.2170 C.3   757  LGC757      0.2276
      9  O4        -8.2720   -7.2940   -8.1510 O.3   757  LGC757     -0.2163
     10  C5        -9.9970   -5.7300   -8.0090 C.3   757  LGC757      0.2344
     11  C6       -11.2080   -6.2230   -8.8120 C.3   757  LGC757      0.2281
     12  O6       -11.0250   -5.5860  -10.0650 O.3   757  LGC757     -0.2163
@<TRIPOS>BOND
     1    12    11    1
     2    11    10    1
     3     9     8    1
     4    10     8    1
     5    10     3    1
     6     8     6    1
     7     3     1    1
     8     6     7    1
     9     6     2    1
    10     1     4    2
    11     1     2    1
    12     2     5    1
