@<TRIPOS>MOLECULE
3er9_3AT_B_1.pdb
 30 32 0 0 0
SMALL
GASTEIGER

@<TRIPOS>ATOM
      1  PG        18.3450   16.7740   24.7680 P.3   800  3AT800      0.5373
      2  O1G       17.9290   18.2940   25.0050 O.3   800  3AT800     -0.1143
      3  O2G       19.4440   16.4100   25.8650 O.3   800  3AT800     -0.1143
      4  O3G       17.1080   15.8220   24.9880 O.2   800  3AT800     -0.2221
      5  PB        19.4250   15.1600   22.8220 P.3   800  3AT800      0.2277
      6  O1B       18.8110   14.0790   23.6170 O.3   800  3AT800     -0.4368
      7  O2B       21.0240   15.0640   22.9000 O.2   800  3AT800     -0.5168
      8  O3B       18.9690   16.6680   23.3010 O.3   800  3AT800     -0.2258
      9  PA        17.5680   14.5500   20.8970 P.3   800  3AT800      0.2189
     10  O1A       16.7250   14.4260   22.0800 O.3   800  3AT800     -0.4371
     11  O2A       16.8890   15.5510   19.8830 O.2   800  3AT800     -0.5170
     12  O3A       19.0870   15.0500   21.2540 O.3   800  3AT800     -0.2700
     13  O5'       17.6780   13.1900   20.0460 O.3   800  3AT800     -0.3113
     14  C5'       18.9450   13.2960   19.4280 C.3   800  3AT800      0.1787
     15  C4'       19.5850   12.0500   18.9170 C.3   800  3AT800      0.1520
     16  O4'       18.6120   11.2100   18.2160 O.3   800  3AT800     -0.3163
     17  C3'       20.7280   12.4290   17.9480 C.3   800  3AT800      0.0722
     18  C2'       20.5680   11.3200   16.9110 C.3   800  3AT800      0.2270
     19  O2'       21.3140   10.1660   17.3100 O.3   800  3AT800     -0.2158
     20  C1'       19.0270   11.0700   16.8500 C.3   800  3AT800      0.3159
     21  N9        18.3600   12.0880   15.9520 N.pl3 800  3AT800     -0.1439
     22  C8        17.5250   13.1570   16.2780 C.3   800  3AT800      0.3377
     23  N7        17.1380   13.8250   15.2400 N.2   800  3AT800     -0.2095
     24  C5        17.6840   13.2470   14.1500 C.2   800  3AT800      0.2526
     25  C6        17.6570   13.4870   12.7340 C.2   800  3AT800      0.4393
     26  N6        16.9190   14.5490   12.2370 N.pl3 800  3AT800      0.2180
     27  N1        18.3600   12.6620   11.8970 N.2   800  3AT800      0.0021
     28  C2        19.1030   11.6020   12.3330 C.3   800  3AT800      0.5254
     29  N3        19.1570   11.3420   13.6610 N.2   800  3AT800     -0.0055
     30  C4        18.4850   12.1140   14.5790 C.2   800  3AT800      0.3518
@<TRIPOS>BOND
     1    27    28    1
     2    27    25    2
     3    26    25    1
     4    28    29    1
     5    25    24    1
     6    29    30    2
     7    24    30    1
     8    24    23    2
     9    30    21    1
    10    23    22    1
    11    21    22    1
    12    21    20    1
    13    20    18    1
    14    20    16    1
    15    18    19    1
    16    18    17    1
    17    17    15    1
    18    16    15    1
    19    15    14    1
    20    14    13    1
    21    11     9    2
    22    13     9    1
    23     9    12    1
    24     9    10    1
    25    12     5    1
    26     5     7    2
    27     5     8    1
    28     5     6    1
    29     8     1    1
    30     1     4    2
    31     1     2    1
    32     1     3    1
