@<TRIPOS>MOLECULE
3er9_NUC_D_1.pdb
 40 43 0 0 0
SMALL
GASTEIGER

@<TRIPOS>ATOM
      1  P          1.4110   -9.7280   46.4660 P.3   600  RU600       0.3942
      2  OP1        2.8310   -9.5000   46.9670 O.3   600  RU600      -0.1425
      3  OP2        0.9870  -11.1890   46.5050 O.3   600  RU600      -0.1425
      4  O5'        1.4380   -9.3310   44.8890 O.3   600  RU600      -0.2926
      5  C5'        0.2280   -9.2900   44.1130 C.3   600  RU600       0.1829
      6  C4'        0.5160   -8.6900   42.7700 C.3   600  RU600       0.1772
      7  O4'        0.9460   -7.3010   42.8390 O.3   600  RU600      -0.3321
      8  C3'        1.4540   -9.3750   41.7820 C.3   600  RU600       0.1857
      9  O3'        0.9600   -9.2030   40.4580 O.3   600  RU600      -0.3112
     10  C2'        2.7340   -8.5690   41.9710 C.3   600  RU600       0.2291
     11  O2'        3.6080   -8.6250   40.8610 O.3   600  RU600      -0.2158
     12  C1'        2.1590   -7.1610   42.1260 C.3   600  RU600       0.2399
     13  N1         3.0170   -6.2010   42.8320 N.am  600  RU600      -0.1766
     14  C2         3.5330   -5.1500   42.0900 C.1   600  RU600       0.2845
     15  O2         3.3200   -5.0120   40.8940 O.2   600  RU600      -0.1918
     16  N3         4.3090   -4.2690   42.7960 N.2   600  RU600      -0.2452
     17  C4         4.6240   -4.3270   44.1350 C.1   600  RU600       0.2182
     18  O4         5.3570   -3.4650   44.6160 O.2   600  RU600      -0.2085
     19  C5         4.0630   -5.4460   44.8370 C.2   600  RU600       0.1242
     20  C6         3.2980   -6.3240   44.1770 C.2   600  RU600       0.0929
     21  P          0.9890  -10.4290   39.4210 P.3   601  RU601       0.2141
     22  OP1        1.8850  -11.4800   39.9630 O.3   601  RU601      -0.4373
     23  OP2        1.2490   -9.8770   38.0690 O.2   601  RU601      -0.5172
     24  O5'       -0.5100  -10.9640   39.4340 O.3   601  RU601      -0.3114
     25  C5'       -0.9380  -11.9540   40.3670 C.3   601  RU601       0.1813
     26  C4'       -2.4400  -12.0270   40.3800 C.3   601  RU601       0.1799
     27  O4'       -3.0800  -10.9840   41.1650 O.3   601  RU601      -0.3320
     28  C3'       -3.2570  -12.1590   39.1010 C.3   601  RU601       0.2158
     29  O3'       -4.4090  -12.9890   39.3360 O.3   601  RU601      -0.2175
     30  C2'       -3.7290  -10.7210   38.9100 C.3   601  RU601       0.2319
     31  O2'       -4.8750  -10.6120   38.0920 O.3   601  RU601      -0.2157
     32  C1'       -4.0290  -10.3110   40.3580 C.3   601  RU601       0.2401
     33  N1        -3.9250   -8.8660   40.6250 N.am  601  RU601      -0.1766
     34  C2        -5.0750   -8.1990   41.0100 C.1   601  RU601       0.2845
     35  O2        -6.1490   -8.7580   41.1580 O.2   601  RU601      -0.1918
     36  N3        -4.9210   -6.8510   41.2210 N.2   601  RU601      -0.2452
     37  C4        -3.7580   -6.1170   41.0970 C.1   601  RU601       0.2182
     38  O4        -3.7890   -4.9030   41.2800 O.2   601  RU601      -0.2085
     39  C5        -2.6090   -6.8790   40.7110 C.2   601  RU601       0.1242
     40  C6        -2.7270   -8.1910   40.4930 C.2   601  RU601       0.0929
@<TRIPOS>BOND
     1    23    21    2
     2    31    30    1
     3    30    28    1
     4    30    32    1
     5    28    29    1
     6    28    26    1
     7    21    24    1
     8    21    22    1
     9    21     9    1
    10    24    25    1
    11    32    33    1
    12    32    27    1
    13    25    26    1
    14    26    27    1
    15     9     8    1
    16    40    33    1
    17    40    39    2
    18    33    34   am
    19    39    37    1
    20    11    10    1
    21    15    14    2
    22    34    35    2
    23    34    36    2
    24    37    36    2
    25    37    38    2
    26     8    10    1
    27     8     6    1
    28    10    12    1
    29    14    16    2
    30    14    13   am
    31    12    13    1
    32    12     7    1
    33     6     7    1
    34     6     5    1
    35    16    17    2
    36    13    20    1
    37     5     4    1
    38    17    18    2
    39    17    19    1
    40    20    19    2
    41     4     1    1
    42     1     3    1
    43     1     2    1
