@<TRIPOS>MOLECULE
3erc_3AT_C_1.pdb
 30 32 0 0 0
SMALL
GASTEIGER

@<TRIPOS>ATOM
      1  PG        18.6630   23.4780  -48.1190 P.3   801  3AT801      0.5373
      2  O1G       17.5090   24.5190  -47.7000 O.3   801  3AT801     -0.1143
      3  O2G       17.9670   22.0160  -48.0920 O.3   801  3AT801     -0.1143
      4  O3G       19.1750   23.7270  -49.6290 O.2   801  3AT801     -0.2221
      5  PB        19.6590   24.3880  -45.6660 P.3   801  3AT801      0.2277
      6  O1B       18.6930   25.4810  -45.8570 O.2   801  3AT801     -0.5168
      7  O2B       21.0700   24.9930  -45.1420 O.3   801  3AT801     -0.4368
      8  O3B       19.9270   23.5480  -47.0770 O.3   801  3AT801     -0.2258
      9  PA        17.5250   23.2720  -44.2150 P.3   801  3AT801      0.2189
     10  O1A       16.7420   23.4150  -45.4680 O.2   801  3AT801     -0.5170
     11  O2A       17.1030   21.8810  -43.5510 O.3   801  3AT801     -0.4371
     12  O3A       19.1660   23.2970  -44.5080 O.3   801  3AT801     -0.2700
     13  O5'       17.0860   24.3250  -43.0390 O.3   801  3AT801     -0.3113
     14  C5'       18.0900   25.3430  -42.8480 C.3   801  3AT801      0.1787
     15  C4'       18.6120   25.4840  -41.4260 C.3   801  3AT801      0.1520
     16  O4'       17.7840   24.7630  -40.4680 O.3   801  3AT801     -0.3163
     17  C3'       20.0830   24.9830  -41.2830 C.3   801  3AT801      0.0722
     18  C2'       19.9450   23.8870  -40.1780 C.3   801  3AT801      0.2270
     19  O2'       21.0730   23.8190  -39.2850 O.3   801  3AT801     -0.2158
     20  C1'       18.6310   24.2320  -39.4380 C.3   801  3AT801      0.3159
     21  N9        18.0780   22.9890  -38.8140 N.pl3 801  3AT801     -0.1439
     22  C8        17.5780   21.8580  -39.4370 C.3   801  3AT801      0.3377
     23  N7        17.1840   20.9640  -38.5810 N.2   801  3AT801     -0.2095
     24  C5        17.3980   21.4460  -37.3350 C.2   801  3AT801      0.2526
     25  C6        17.1880   20.9660  -36.0000 C.2   801  3AT801      0.4393
     26  N6        16.6430   19.7140  -35.8300 N.pl3 801  3AT801      0.2180
     27  N1        17.5270   21.7450  -34.9230 N.2   801  3AT801      0.0021
     28  C2        18.0690   22.9890  -35.0530 C.3   801  3AT801      0.5254
     29  N3        18.2890   23.4840  -36.3080 N.2   801  3AT801     -0.0055
     30  C4        17.9760   22.7630  -37.4460 C.2   801  3AT801      0.3518
@<TRIPOS>BOND
     1     4     1    2
     2     1     3    1
     3     1     2    1
     4     1     8    1
     5     8     5    1
     6     6     5    2
     7     5     7    1
     8     5    12    1
     9    10     9    2
    10    12     9    1
    11     9    11    1
    12     9    13    1
    13    13    14    1
    14    14    15    1
    15    15    17    1
    16    15    16    1
    17    17    18    1
    18    16    20    1
    19    18    20    1
    20    18    19    1
    21    20    21    1
    22    22    21    1
    23    22    23    1
    24    21    30    1
    25    23    24    2
    26    30    24    1
    27    30    29    2
    28    24    25    1
    29    29    28    1
    30    25    26    1
    31    25    27    2
    32    28    27    1
