@<TRIPOS>MOLECULE
3erc_U_C_1.pdb
 20 21 0 0 0
SMALL
GASTEIGER

@<TRIPOS>ATOM
      1  P        -19.7790   30.7350  -39.3790 P.3   600  U600        0.3942
      2  OP1      -19.4040   31.1790  -40.7910 O.3   600  U600       -0.1425
      3  OP2      -18.6560   31.0590  -38.3770 O.3   600  U600       -0.1425
      4  O5'      -19.9750   29.0960  -39.4050 O.3   600  U600       -0.2926
      5  C5'      -18.9510   28.1920  -39.9220 C.3   600  U600        0.1830
      6  C4'      -18.7950   28.3550  -41.4340 C.3   600  U600        0.1800
      7  O4'      -18.0940   29.6100  -41.6990 O.3   600  U600       -0.3320
      8  C3'      -17.9960   27.2790  -42.1840 C.3   600  U600        0.2158
      9  O3'      -18.2960   27.2090  -43.6020 O.3   600  U600       -0.2175
     10  C2'      -16.5780   27.8420  -42.1600 C.3   600  U600        0.2319
     11  O2'      -15.8020   27.3470  -43.2380 O.3   600  U600       -0.2157
     12  C1'      -16.8410   29.3480  -42.3050 C.3   600  U600        0.2401
     13  N1       -15.8310   30.1840  -41.6300 N.am  600  U600       -0.1766
     14  C2       -15.1890   31.1560  -42.3830 C.1   600  U600        0.2845
     15  O2       -15.4930   31.4010  -43.5460 O.2   600  U600       -0.1918
     16  N3       -14.1870   31.8310  -41.7170 N.2   600  U600       -0.2452
     17  C4       -13.7860   31.6500  -40.3980 C.1   600  U600        0.2182
     18  O4       -12.7840   32.2340  -39.9850 O.2   600  U600       -0.2085
     19  C5       -14.5390   30.6710  -39.6720 C.2   600  U600        0.1242
     20  C6       -15.5100   29.9880  -40.2930 C.2   600  U600        0.0929
@<TRIPOS>BOND
     1     9     8    1
     2    15    14    2
     3    11    10    1
     4    14    16    2
     5    14    13   am
     6    12    10    1
     7    12     7    1
     8    12    13    1
     9     8    10    1
    10     8     6    1
    11    16    17    2
    12     7     6    1
    13    13    20    1
    14     6     5    1
    15     2     1    1
    16    17    18    2
    17    17    19    1
    18    20    19    2
    19     5     4    1
    20     4     1    1
    21     1     3    1
