@<TRIPOS>MOLECULE
3erd_DES_A_1.pdb
 20 21 0 0 0
SMALL
GASTEIGER

@<TRIPOS>ATOM
      1  CP9        5.3970   -3.0840   -6.1700 C.3   600  DES600      0.0050
      2  CP8        5.8180   -2.0660   -5.1530 C.3   600  DES600      0.0260
      3  CP7        5.0590   -0.7450   -5.2310 C.2   600  DES600     -0.0261
      4  CP6        3.5590   -0.8980   -5.0640 C.ar  600  DES600     -0.0041
      5  CP1        2.9720   -0.9970   -3.7920 C.ar  600  DES600      0.0030
      6  CP2        1.5760   -1.1710   -3.6570 C.ar  600  DES600      0.0420
      7  CP3        0.7810   -1.2440   -4.8000 C.ar  600  DES600      0.1957
      8  OP3       -0.5870   -1.4440   -4.7290 O.3   600  DES600     -0.2866
      9  CP4        1.3510   -1.1440   -6.0710 C.ar  600  DES600      0.0420
     10  CP5        2.7290   -0.9730   -6.1850 C.ar  600  DES600      0.0030
     11  C7         5.6330    0.4260   -5.4430 C.2   600  DES600     -0.0261
     12  C6         7.1080    0.5490   -5.8150 C.ar  600  DES600     -0.0041
     13  C5         7.5360    0.3040   -7.1250 C.ar  600  DES600      0.0030
     14  C4         8.8860    0.4380   -7.4820 C.ar  600  DES600      0.0420
     15  C3         9.8190    0.8170   -6.5220 C.ar  600  DES600      0.1957
     16  O3        11.1610    0.9440   -6.8290 O.3   600  DES600     -0.2866
     17  C2         9.4220    1.0690   -5.2040 C.ar  600  DES600      0.0420
     18  C1         8.0630    0.9280   -4.8680 C.ar  600  DES600      0.0030
     19  C8         4.8990    1.7680   -5.4010 C.3   600  DES600      0.0260
     20  C9         4.9700    2.4780   -4.0720 C.3   600  DES600      0.0050
@<TRIPOS>BOND
     1    14    13   ar
     2    14    15   ar
     3    13    12   ar
     4    16    15    1
     5    15    17   ar
     6    10     9   ar
     7    10     4   ar
     8     1     2    1
     9     9     7   ar
    10    12    11    1
    11    12    18   ar
    12    11    19    1
    13    11     3    2
    14    19    20    1
    15     3     2    1
    16     3     4    1
    17    17    18   ar
    18     4     5   ar
    19     7     8    1
    20     7     6   ar
    21     5     6   ar
