@<TRIPOS>MOLECULE
3erg_GTS_A_1.pdb
 23 22 0 0 0
SMALL
GASTEIGER

@<TRIPOS>ATOM
      1  N1       -23.4650  -33.6500  -22.7580 N.3   234  GTS234     -0.1208
      2  CA1      -22.1220  -34.1840  -22.8550 C.3   234  GTS234      0.1948
      3  C1       -21.3170  -33.1730  -22.2320 C.2   234  GTS234      0.3819
      4  O11      -20.6100  -32.4580  -23.0130 O.co2 234  GTS234     -0.2441
      5  O12      -21.4330  -33.1590  -20.9760 O.co2 234  GTS234     -0.2441
      6  CB1      -21.5410  -34.5210  -24.2570 C.3   234  GTS234      0.0402
      7  CG1      -22.4430  -35.6950  -24.6350 C.3   234  GTS234      0.0889
      8  CD1      -21.8810  -36.7580  -25.5470 C.2   234  GTS234      0.2419
      9  OE1      -20.7310  -36.7670  -25.9670 O.2   234  GTS234     -0.2733
     10  N2       -22.7920  -37.6810  -25.8040 N.am  234  GTS234     -0.1961
     11  CA2      -22.6010  -38.7560  -26.7430 C.3   234  GTS234      0.1924
     12  C2       -22.6660  -38.2530  -28.1210 C.2   234  GTS234      0.2634
     13  O2       -23.5790  -37.5230  -28.4770 O.2   234  GTS234     -0.2714
     14  CB2      -23.7030  -39.7880  -26.5110 C.3   234  GTS234      0.1362
     15  SG2      -23.0980  -41.2010  -25.8800 S.3   234  GTS234     -0.1938
     16  O1S      -24.2010  -42.1900  -25.9430 O.3   234  GTS234     -0.3074
     17  O2S      -22.7080  -41.0420  -24.4830 O.3   234  GTS234     -0.3074
     18  O3S      -21.9500  -41.6380  -26.7130 O.3   234  GTS234     -0.3074
     19  N3       -21.6980  -38.6670  -28.9220 N.am  234  GTS234     -0.1917
     20  CA3      -21.9180  -38.7610  -30.3460 C.3   234  GTS234      0.2285
     21  C3       -20.7450  -38.2130  -31.0640 C.2   234  GTS234      0.3865
     22  O31      -19.7940  -37.7700  -30.3820 O.co2 234  GTS234     -0.2437
     23  O32      -20.7670  -38.2660  -32.3020 O.co2 234  GTS234     -0.2437
@<TRIPOS>BOND
     1    23    21   ar
     2    21    22   ar
     3    21    20    1
     4    20    19    1
     5    19    12   am
     6    13    12    2
     7    12    11    1
     8    11    14    1
     9    11    10    1
    10    18    15    1
    11    14    15    1
    12     9     8    2
    13    16    15    1
    14    15    17    1
    15    10     8   am
    16     8     7    1
    17     7     6    1
    18     6     2    1
    19     4     3   ar
    20     2     1    1
    21     2     3    1
    22     3     5   ar
