@<TRIPOS>MOLECULE
3erh_HEM_A_1.pdb
 43 50 0 0 0
SMALL
GASTEIGER

@<TRIPOS>ATOM
      1  CHA        8.6880   -0.2020   29.2710 C.2   605  HEM605      0.0000
      2  CHB        9.0660    4.6170   29.0520 C.2   605  HEM605      0.0000
      3  CHC       10.9040    4.3380   24.5580 C.2   605  HEM605      0.0000
      4  CHD       10.6270   -0.3900   24.8190 C.2   605  HEM605      0.0000
      5  C1A        8.6250    1.1310   29.6150 C.2   605  HEM605      0.0000
      6  C2A        8.0890    1.6350   30.8530 C.2   605  HEM605      0.0000
      7  C3A        8.1590    2.9600   30.7810 C.2   605  HEM605      0.0000
      8  C4A        8.7940    3.3320   29.4980 C.2   605  HEM605      0.0000
      9  CMA        7.7600    3.9360   31.9440 C.3   605  HEM605      0.0000
     10  CAA        7.5180    0.8340   32.0690 C.3   605  HEM605      0.0000
     11  CBA        8.6480    0.1250   32.7170 C.3   605  HEM605      0.0000
     12  CGA        8.2620   -0.7410   33.8870 C.2   605  HEM605      0.0000
     13  O1A        8.9190   -1.7630   34.1000 O.co2 605  HEM605      0.0000
     14  O2A        7.3250   -0.4810   34.6500 O.co2 605  HEM605      0.0000
     15  C1B        9.4950    4.9220   27.7950 C.ar  605  HEM605      0.0000
     16  C2B        9.6270    6.2490   27.2090 C.ar  605  HEM605      0.0000
     17  C3B       10.0860    6.1390   25.9480 C.ar  605  HEM605      0.0000
     18  C4B       10.3020    4.7740   25.7140 C.ar  605  HEM605      0.0000
     19  CMB        9.1840    7.5440   27.9230 C.3   605  HEM605      0.0000
     20  CAB       10.4040    7.2230   24.8660 C.2   605  HEM605      0.0000
     21  CBB       10.6430    8.4830   25.2960 C.2   605  HEM605      0.0000
     22  C1C       11.0540    3.0510   24.2860 C.2   605  HEM605      0.0000
     23  C2C       11.7190    2.5130   23.1110 C.2   605  HEM605      0.0000
     24  C3C       11.5360    1.1660   23.1400 C.2   605  HEM605      0.0000
     25  C4C       10.9240    0.8600   24.4100 C.2   605  HEM605      0.0000
     26  CMC       12.2290    3.3700   21.9140 C.3   605  HEM605      0.0000
     27  CAC       12.0040    0.1320   22.0770 C.2   605  HEM605      0.0000
     28  CBC       12.7290    0.4840   20.9740 C.2   605  HEM605      0.0000
     29  C1D        9.9330   -0.7200   25.9390 C.ar  605  HEM605      0.0000
     30  C2D        9.5260   -2.0970   26.1820 C.ar  605  HEM605      0.0000
     31  C3D        8.9350   -2.1000   27.5620 C.ar  605  HEM605      0.0000
     32  C4D        9.0680   -0.6610   28.0260 C.ar  605  HEM605      0.0000
     33  CMD        9.5430   -3.2730   25.2130 C.3   605  HEM605      0.0000
     34  CAD        8.2210   -3.2910   28.2660 C.3   605  HEM605      0.0000
     35  CBD        6.6760   -3.1920   28.0210 C.3   605  HEM605      0.0000
     36  CGD        6.0220   -4.4220   28.5850 C.2   605  HEM605      0.0000
     37  O1D        5.3410   -4.2590   29.6440 O.co2 605  HEM605      0.0000
     38  O2D        6.2360   -5.5370   27.9490 O.co2 605  HEM605      0.0000
     39  NA         9.0730    2.1770   28.7900 N.2   605  HEM605      0.0000
     40  NB         9.9260    4.0360   26.8410 N.ar  605  HEM605      0.0000
     41  NC        10.5830    2.0360   25.1140 N.2   605  HEM605      0.0000
     42  ND         9.6750    0.1070   27.0470 N.ar  605  HEM605      0.0000
     43 FE          9.9090    2.0890   27.0520 Fe    605  HEM605      0.0000
@<TRIPOS>BOND
     1    28    27    2
     2    26    23    1
     3    27    24    1
     4    23    24    2
     5    23    22    1
     6    24    25    1
     7    22     3    2
     8    22    41    1
     9    25     4    1
    10    25    41    2
    11     3    18    1
    12     4    29    2
    13    20    21    2
    14    20    17    1
    15    41    43    1
    16    33    30    1
    17    18    17   ar
    18    18    40   ar
    19    29    30   ar
    20    29    42   ar
    21    17    16   ar
    22    30    31   ar
    23    40    43    1
    24    40    15   ar
    25    42    43    1
    26    42    32   ar
    27    43    39    1
    28    16    15   ar
    29    16    19    1
    30    31    32   ar
    31    31    34    1
    32    15     2    1
    33    38    36   ar
    34    35    34    1
    35    35    36    1
    36    32     1    2
    37    36    37   ar
    38    39     8    1
    39    39     5    2
    40     2     8    2
    41     1     5    1
    42     8     7    1
    43     5     6    1
    44     7     6    2
    45     7     9    1
    46     6    10    1
    47    10    11    1
    48    11    12    1
    49    12    13   ar
    50    12    14   ar
