@<TRIPOS>MOLECULE
3eri_HEM_A_1.pdb
 43 50 0 0 0
SMALL
GASTEIGER

@<TRIPOS>ATOM
      1  CHA        8.6150   -0.0990   28.9510 C.2   605  HEM605      0.0000
      2  CHB        8.8250    4.7460   29.1610 C.2   605  HEM605      0.0000
      3  CHC       11.0320    4.4960   24.7980 C.2   605  HEM605      0.0000
      4  CHD       10.9100   -0.2160   24.6680 C.2   605  HEM605      0.0000
      5  C1A        8.5990    1.1840   29.4670 C.2   605  HEM605      0.0000
      6  C2A        8.1150    1.6020   30.7830 C.2   605  HEM605      0.0000
      7  C3A        8.1160    2.9610   30.7940 C.2   605  HEM605      0.0000
      8  C4A        8.6420    3.4060   29.5140 C.2   605  HEM605      0.0000
      9  CMA        7.8740    3.9540   31.9620 C.3   605  HEM605      0.0000
     10  CAA        7.6570    0.6800   31.9190 C.3   605  HEM605      0.0000
     11  CBA        8.8210    0.3290   32.7940 C.3   605  HEM605      0.0000
     12  CGA        8.3550   -0.6000   33.8740 C.2   605  HEM605      0.0000
     13  O1A        8.9460   -1.6660   33.9510 O.co2 605  HEM605      0.0000
     14  O2A        7.4640   -0.2640   34.7310 O.co2 605  HEM605      0.0000
     15  C1B        9.4190    5.1600   27.9640 C.ar  605  HEM605      0.0000
     16  C2B        9.6490    6.5270   27.4570 C.ar  605  HEM605      0.0000
     17  C3B       10.2260    6.4250   26.2380 C.ar  605  HEM605      0.0000
     18  C4B       10.4140    5.0220   25.9510 C.ar  605  HEM605      0.0000
     19  CMB        9.1850    7.8210   28.1780 C.3   605  HEM605      0.0000
     20  CAB       10.6820    7.5620   25.2790 C.3   605  HEM605      0.0000
     21  CBB       10.6860    8.8720   25.7270 C.3   605  HEM605      0.0000
     22  C1C       11.2570    3.1920   24.3460 C.2   605  HEM605      0.0000
     23  C2C       11.9990    2.7290   23.1090 C.2   605  HEM605      0.0000
     24  C3C       11.8580    1.3400   23.0370 C.2   605  HEM605      0.0000
     25  C4C       11.1900    1.0190   24.2840 C.2   605  HEM605      0.0000
     26  CMC       12.5140    3.7160   21.9990 C.3   605  HEM605      0.0000
     27  CAC       12.3280    0.2180   22.0290 C.2   605  HEM605      0.0000
     28  CBC       12.8740    0.4190   20.7860 C.2   605  HEM605      0.0000
     29  C1D       10.2120   -0.5540   25.7540 C.ar  605  HEM605      0.0000
     30  C2D        9.8500   -1.9190   26.0220 C.ar  605  HEM605      0.0000
     31  C3D        9.0840   -1.9030   27.3310 C.ar  605  HEM605      0.0000
     32  C4D        9.1290   -0.5140   27.7280 C.ar  605  HEM605      0.0000
     33  CMD       10.1340   -3.0830   25.0670 C.3   605  HEM605      0.0000
     34  CAD        8.4010   -3.0440   28.1950 C.2   605  HEM605      0.0000
     35  CBD        6.8450   -3.1380   28.0750 C.2   605  HEM605      0.0000
     36  CGD        6.1690   -4.3210   28.6770 C.2   605  HEM605      0.0000
     37  O1D        5.5110   -4.2020   29.7250 O.co2 605  HEM605      0.0000
     38  O2D        6.3320   -5.4120   28.1200 O.co2 605  HEM605      0.0000
     39  NA         8.9200    2.2840   28.7060 N.2   605  HEM605      0.0000
     40  NB         9.8850    4.2880   27.0030 N.ar  605  HEM605      0.0000
     41  NC        10.8090    2.0840   25.0960 N.2   605  HEM605      0.0000
     42  ND         9.7850    0.2630   26.7910 N.ar  605  HEM605      0.0000
     43 FE          9.8160    2.3090   27.0520 Fe    605  HEM605      0.0000
@<TRIPOS>BOND
     1    28    27    2
     2    26    23    1
     3    27    24    1
     4    24    23    2
     5    24    25    1
     6    23    22    1
     7    25     4    1
     8    25    41    2
     9    22     3    2
    10    22    41    1
    11     4    29    2
    12     3    18    1
    13    33    30    1
    14    41    43    1
    15    20    21    1
    16    20    17    1
    17    29    30   ar
    18    29    42   ar
    19    18    17   ar
    20    18    40   ar
    21    30    31   ar
    22    17    16   ar
    23    42    43    1
    24    42    32   ar
    25    40    43    1
    26    40    15   ar
    27    43    39    1
    28    31    32   ar
    29    31    34    1
    30    16    15   ar
    31    16    19    1
    32    32     1    2
    33    15     2    1
    34    35    34    2
    35    35    36    1
    36    38    36   ar
    37    36    37   ar
    38    39     5    2
    39    39     8    1
    40     1     5    1
    41     2     8    2
    42     5     6    1
    43     8     7    1
    44     6     7    2
    45     6    10    1
    46     7     9    1
    47    10    11    1
    48    11    12    1
    49    12    13   ar
    50    12    14   ar
