@<TRIPOS>MOLECULE
3erk_SB4_A_1.pdb
 25 28 0 0 0
SMALL
GASTEIGER

@<TRIPOS>ATOM
      1  CA1      -12.9880   14.7970   44.3980 C.3   800  SB4800      0.0349
      2  CA2      -13.2530   15.1750   45.8760 C.3   800  SB4800      0.0901
      3  NA3      -13.0720   16.6510   46.1480 N.3   800  SB4800     -0.2180
      4  CA4      -13.7500   17.6150   45.1990 C.3   800  SB4800      0.0901
      5  CA5      -13.5720   17.2100   43.7000 C.3   800  SB4800      0.0349
      6  CA6      -13.8090   15.6920   43.4140 C.3   800  SB4800      0.0628
      7  CB1      -14.5360   13.2100   37.9750 C.ar  800  SB4800      0.0035
      8  CB2      -14.5580   12.3140   36.8780 C.ar  800  SB4800      0.0297
      9  CB3      -13.3690   11.6650   36.4790 C.ar  800  SB4800      0.1401
     10  CB4      -12.1630   11.9040   37.1590 C.ar  800  SB4800      0.0297
     11  CB5      -12.1350   12.7950   38.2530 C.ar  800  SB4800      0.0035
     12  CB6      -13.3220   13.4750   38.6950 C.ar  800  SB4800      0.0151
     13  FB7      -13.3820   10.8070   35.4380 F     800  SB4800     -0.2042
     14  CC1      -16.5490   14.3810   41.7750 C.2   800  SB4800      0.0518
     15  CC2      -15.3520   13.6930   41.3060 C.2   800  SB4800      0.1435
     16  NC3      -15.4020   12.3420   41.0870 N.2   800  SB4800     -0.3379
     17  CC4      -16.5450   11.6890   41.3090 C.1   800  SB4800      0.1861
     18  NC5      -17.6910   12.2340   41.7400 N.2   800  SB4800     -0.1673
     19  CC6      -17.7110   13.5640   41.9770 C.2   800  SB4800      0.1142
     20  NC7      -16.5420   10.3960   41.0790 N.pl3 800  SB4800     -0.0345
     21  ND1      -13.4740   15.2840   42.0050 N.3   800  SB4800     -0.2440
     22  CD2      -12.3750   15.6630   41.2650 C.3   800  SB4800      0.2011
     23  ND3      -12.1510   15.2100   40.0160 N.2   800  SB4800     -0.2549
     24  CD4      -13.2610   14.3660   39.8260 C.2   800  SB4800      0.0767
     25  CD5      -14.1090   14.4140   41.0570 C.3   800  SB4800      0.1530
@<TRIPOS>BOND
     1    13     9    1
     2     9     8   ar
     3     9    10   ar
     4     8     7   ar
     5    10    11   ar
     6     7    12   ar
     7    11    12   ar
     8    12    24    1
     9    24    23    2
    10    24    25    1
    11    23    22    1
    12    25    15    1
    13    25    21    1
    14    20    17    1
    15    16    15    2
    16    16    17    2
    17    22    21    1
    18    15    14    1
    19    17    18    2
    20    18    19    1
    21    14    19    2
    22    21     6    1
    23     6     5    1
    24     6     1    1
    25     5     4    1
    26     1     2    1
    27     4     3    1
    28     2     3    1
