@<TRIPOS>MOLECULE
3ern_GPP_B_1.pdb
 19 18 0 0 0
SMALL
GASTEIGER

@<TRIPOS>ATOM
      1  C1        61.2270  -54.4590   37.5860 C.2   901  GPP901      0.1740
      2  O1        60.5040  -55.2650   36.7570 O.2   901  GPP901     -0.4369
      3  C2        61.0290  -54.6610   38.9610 C.2   901  GPP901      0.0139
      4  C3        61.6150  -53.8620   39.9480 C.3   901  GPP901      0.0256
      5  C4        62.5150  -52.6720   39.5710 C.3   901  GPP901      0.0048
      6  C5        61.3660  -54.1670   41.4310 C.3   901  GPP901      0.0091
      7  C6        62.1950  -55.3860   41.8810 C.3   901  GPP901      0.0257
      8  C7        61.7440  -55.9320   43.0960 C.2   901  GPP901     -0.0346
      9  C8        60.6030  -56.6960   43.3300 C.2   901  GPP901     -0.0478
     10  C9        59.6120  -57.0580   42.2030 C.3   901  GPP901      0.0260
     11  C10       60.3340  -57.1820   44.7500 C.3   901  GPP901      0.0260
     12  PA        61.1700  -56.0860   35.5270 P.3   901  GPP901      0.2779
     13  O1A       62.7360  -56.4010   35.7700 O.3   901  GPP901     -0.4271
     14  O2A       60.3490  -57.3130   35.3140 O.2   901  GPP901     -0.5080
     15  O3A       61.0290  -55.1680   34.2970 O.3   901  GPP901     -0.2160
     16  PB        61.2060  -55.7460   32.8020 P.3   901  GPP901      0.5380
     17  O1B       60.0800  -55.1450   32.0360 O.2   901  GPP901     -0.2221
     18  O2B       62.7090  -55.2550   32.5530 O.3   901  GPP901     -0.1143
     19  O3B       61.2710  -57.3200   32.6550 O.3   901  GPP901     -0.1143
@<TRIPOS>BOND
     1    17    16    2
     2    18    16    1
     3    19    16    1
     4    16    15    1
     5    15    12    1
     6    14    12    2
     7    12    13    1
     8    12     2    1
     9     2     1    1
    10     1     3    2
    11     3     4    1
    12     5     4    1
    13     4     6    1
    14     6     7    1
    15     7     8    1
    16    10     9    1
    17     8     9    2
    18     9    11    1
