@<TRIPOS>MOLECULE
3ern_CAR_A_1.pdb
 21 22 0 0 0
SMALL
GASTEIGER

@<TRIPOS>ATOM
      1  P         68.0490  -70.4000   41.7900 P.3   900  CAR900      0.5327
      2  OP1       67.5360  -69.0370   41.4610 O.3   900  CAR900     -0.1145
      3  OP2       68.5660  -71.1910   40.4760 O.2   900  CAR900     -0.2224
      4  OP3       66.8870  -71.3290   42.4460 O.3   900  CAR900     -0.1145
      5  O5'       69.2900  -70.4020   42.8180 O.3   900  CAR900     -0.2675
      6  C5'       69.7030  -71.6540   43.4090 C.3   900  CAR900      0.1859
      7  C4'       71.1620  -71.6210   43.8930 C.3   900  CAR900      0.1801
      8  O4'       72.0040  -71.1110   42.8400 O.3   900  CAR900     -0.3320
      9  C3'       71.3660  -70.6440   45.0360 C.3   900  CAR900      0.2158
     10  O3'       71.0310  -71.2810   46.2560 O.3   900  CAR900     -0.2175
     11  C2'       72.8610  -70.4070   44.9580 C.3   900  CAR900      0.2319
     12  O2'       73.2050  -69.1220   45.4570 O.3   900  CAR900     -0.2157
     13  C1'       73.1400  -70.4510   43.4510 C.3   900  CAR900      0.2400
     14  N1        73.3350  -69.0940   42.8540 N.am  900  CAR900     -0.1778
     15  C2        74.6270  -68.5510   42.7750 C.1   900  CAR900      0.2756
     16  O2        75.5820  -69.1970   43.2040 O.2   900  CAR900     -0.1925
     17  N3        74.8210  -67.2830   42.2110 N.2   900  CAR900     -0.3024
     18  C4        73.7210  -66.5660   41.7280 C.2   900  CAR900      0.2346
     19  N4        73.8850  -65.3640   41.2040 N.pl3 900  CAR900     -0.0921
     20  C5        72.4440  -67.0920   41.8140 C.2   900  CAR900      0.0687
     21  C6        72.2460  -68.3500   42.3740 C.2   900  CAR900      0.0836
@<TRIPOS>BOND
     1     3     1    2
     2    19    18    1
     3     2     1    1
     4    18    20    1
     5    18    17    2
     6     1     4    1
     7     1     5    1
     8    20    21    2
     9    17    15    2
    10    21    14    1
    11    15    14   am
    12    15    16    2
    13     5     6    1
    14     8    13    1
    15     8     7    1
    16    14    13    1
    17     6     7    1
    18    13    11    1
    19     7     9    1
    20    11     9    1
    21    11    12    1
    22     9    10    1
