@<TRIPOS>MOLECULE
3ero_THP_A_1.pdb
 25 26 0 0 0
SMALL
GASTEIGER

@<TRIPOS>ATOM
      1  P2        17.9730   11.0360    4.8020 P.3   150  THP150      0.5327
      2  O4P       16.7460   11.7670    5.3070 O.3   150  THP150     -0.1145
      3  O5P       18.0440    9.5640    5.1210 O.2   150  THP150     -0.2224
      4  O6P       19.2250   11.7300    5.2360 O.3   150  THP150     -0.1145
      5  P1        21.3070   14.4600    1.0190 P.3   150  THP150      0.5326
      6  O1P       22.2710   15.0790    0.0570 O.2   150  THP150     -0.2224
      7  O2P       21.9480   13.2870    1.7380 O.3   150  THP150     -0.1145
      8  O3P       20.5600   15.3810    1.9520 O.3   150  THP150     -0.1145
      9  O5'       17.9090   11.1650    3.2010 O.3   150  THP150     -0.2675
     10  C5'       17.9360   12.4420    2.5750 C.3   150  THP150      0.1857
     11  C4'       18.9130   12.3330    1.3980 C.3   150  THP150      0.1748
     12  O4'       18.5300   11.2000    0.6330 O.3   150  THP150     -0.3340
     13  C3'       18.8310   13.5520    0.4900 C.3   150  THP150      0.1600
     14  O3'       20.1700   13.8630    0.0430 O.3   150  THP150     -0.2700
     15  C2'       17.9760   13.0850   -0.6790 C.3   150  THP150      0.0847
     16  C1'       18.1950   11.5670   -0.7130 C.3   150  THP150      0.2089
     17  N1        16.9160   10.9600   -1.0800 N.am  150  THP150     -0.1794
     18  C2        16.6500   10.7600   -2.4590 C.1   150  THP150      0.2844
     19  O2        17.5270   11.0920   -3.3040 O.2   150  THP150     -0.1918
     20  N3        15.4950   10.2070   -2.8700 N.2   150  THP150     -0.2455
     21  C4        14.5130    9.8940   -1.9850 C.1   150  THP150      0.2134
     22  O4        13.4270    9.4730   -2.4280 O.2   150  THP150     -0.2088
     23  C5        14.7600   10.1130   -0.5450 C.2   150  THP150      0.0891
     24  C5M       13.7220    9.7630    0.5130 C.3   150  THP150      0.0462
     25  C6        15.9810   10.6760   -0.1650 C.2   150  THP150      0.0877
@<TRIPOS>BOND
     1    19    18    2
     2    20    18    2
     3    20    21    2
     4    18    17   am
     5    22    21    2
     6    21    23    1
     7    17    16    1
     8    17    25    1
     9    16    15    1
    10    16    12    1
    11    15    13    1
    12    23    25    2
    13    23    24    1
    14    14    13    1
    15    14     5    1
    16     6     5    2
    17    13    11    1
    18    12    11    1
    19     5     7    1
    20     5     8    1
    21    11    10    1
    22    10     9    1
    23     9     1    1
    24     1     3    2
    25     1     4    1
    26     1     2    1
