@<TRIPOS>MOLECULE
3erq_THP_A_1.pdb
 25 26 0 0 0
SMALL
GASTEIGER

@<TRIPOS>ATOM
      1  P2        17.8550   10.5800    4.8490 P.3   150  THP150      0.5327
      2  O4P       16.6080   11.2870    5.3480 O.3   150  THP150     -0.1145
      3  O5P       17.8870    9.1030    5.1340 O.2   150  THP150     -0.2224
      4  O6P       19.1350   11.2820    5.2290 O.3   150  THP150     -0.1145
      5  P1        21.0660   14.1170    0.5860 P.3   150  THP150      0.5326
      6  O1P       21.9360   14.6240   -0.5210 O.2   150  THP150     -0.2224
      7  O2P       21.7300   13.0820    1.4500 O.3   150  THP150     -0.1145
      8  O3P       20.3420   15.1750    1.3630 O.3   150  THP150     -0.1145
      9  O5'       17.7710   10.6600    3.2300 O.3   150  THP150     -0.2675
     10  C5'       17.8450   11.8930    2.4990 C.3   150  THP150      0.1857
     11  C4'       18.7340   11.7430    1.2510 C.3   150  THP150      0.1748
     12  O4'       18.2860   10.6280    0.4910 O.3   150  THP150     -0.3340
     13  C3'       18.6710   12.9560    0.3250 C.3   150  THP150      0.1600
     14  O3'       19.9530   13.2850   -0.2230 O.3   150  THP150     -0.2700
     15  C2'       17.8180   12.5290   -0.8510 C.3   150  THP150      0.0847
     16  C1'       17.8820   11.0100   -0.8290 C.3   150  THP150      0.2089
     17  N1        16.5570   10.4750   -1.1580 N.am  150  THP150     -0.1794
     18  C2        16.2170   10.2740   -2.5270 C.1   150  THP150      0.2844
     19  O2        17.0710   10.5310   -3.4120 O.2   150  THP150     -0.1918
     20  N3        15.0050    9.7990   -2.8900 N.2   150  THP150     -0.2455
     21  C4        14.0810    9.5270   -1.9590 C.1   150  THP150      0.2134
     22  O4        12.9550    9.1260   -2.2970 O.2   150  THP150     -0.2088
     23  C5        14.3970    9.7460   -0.5220 C.2   150  THP150      0.0891
     24  C5M       13.3790    9.4470    0.5440 C.3   150  THP150      0.0462
     25  C6        15.6590   10.2360   -0.1850 C.2   150  THP150      0.0877
@<TRIPOS>BOND
     1    19    18    2
     2    20    18    2
     3    20    21    2
     4    18    17   am
     5    22    21    2
     6    21    23    1
     7    17    16    1
     8    17    25    1
     9    15    16    1
    10    15    13    1
    11    16    12    1
    12    23    25    2
    13    23    24    1
    14     6     5    2
    15    14    13    1
    16    14     5    1
    17    13    11    1
    18    12    11    1
    19     5     8    1
    20     5     7    1
    21    11    10    1
    22    10     9    1
    23     9     1    1
    24     1     3    2
    25     1     4    1
    26     1     2    1
