@<TRIPOS>MOLECULE
3err_AMP_A_1.pdb
 23 25 0 0 0
SMALL
GASTEIGER

@<TRIPOS>ATOM
      1  P         45.3900  -11.7570   37.0690 P.3   1507  AMP1507     0.5327
      2  O1P       46.7290  -11.8930   37.8550 O.3   1507  AMP1507    -0.1145
      3  O2P       44.6980  -13.0990   36.9620 O.3   1507  AMP1507    -0.1145
      4  O3P       45.3590  -10.9090   35.7950 O.2   1507  AMP1507    -0.2224
      5  O5'       44.3610  -10.8920   37.9790 O.3   1507  AMP1507    -0.2675
      6  C5'       43.9290  -11.4440   39.2190 C.3   1507  AMP1507     0.1860
      7  C4'       42.8060  -10.5880   39.7650 C.3   1507  AMP1507     0.1823
      8  O4'       43.2850   -9.2440   39.9920 O.3   1507  AMP1507    -0.3135
      9  C3'       41.6580  -10.4260   38.7720 C.3   1507  AMP1507     0.2184
     10  O3'       40.7100  -11.5160   38.7770 O.3   1507  AMP1507    -0.2174
     11  C2'       40.9960   -9.1900   39.2800 C.3   1507  AMP1507     0.2570
     12  O2'       40.5730   -9.4830   40.6310 O.3   1507  AMP1507    -0.2130
     13  C1'       42.1700   -8.3460   39.6760 C.3   1507  AMP1507     0.3186
     14  N9        42.5840   -7.3630   38.6810 N.pl3 1507  AMP1507    -0.1439
     15  C8        43.4360   -7.6420   37.6330 C.3   1507  AMP1507     0.3377
     16  N7        43.6980   -6.5500   36.9280 N.2   1507  AMP1507    -0.2095
     17  C5        42.9920   -5.5270   37.5280 C.2   1507  AMP1507     0.2526
     18  C6        42.8830   -4.0930   37.2740 C.2   1507  AMP1507     0.4393
     19  N6        43.5870   -3.4470   36.2490 N.pl3 1507  AMP1507     0.2180
     20  N1        42.0770   -3.4550   38.1390 N.2   1507  AMP1507     0.0021
     21  C2        41.4590   -4.0100   39.2100 C.3   1507  AMP1507     0.5254
     22  N3        41.5330   -5.3140   39.5050 N.2   1507  AMP1507    -0.0055
     23  C4        42.2810   -6.0830   38.6960 C.2   1507  AMP1507     0.3518
@<TRIPOS>BOND
     1     4     1    2
     2    19    18    1
     3    16    17    2
     4    16    15    1
     5     3     1    1
     6     1     2    1
     7     1     5    1
     8    18    17    1
     9    18    20    2
    10    17    23    1
    11    15    14    1
    12     5     6    1
    13    20    21    1
    14    14    23    1
    15    14    13    1
    16    23    22    2
    17     9    10    1
    18     9    11    1
    19     9     7    1
    20    21    22    1
    21     6     7    1
    22    11    13    1
    23    11    12    1
    24    13     8    1
    25     7     8    1
