@<TRIPOS>MOLECULE
3ert_OHT_A_1.pdb
 29 31 0 0 0
SMALL
GASTEIGER

@<TRIPOS>ATOM
      1  C10       30.5740    1.4650   29.5500 C.3   600  OHT600      0.0004
      2  C9        30.7020   -0.0230   29.3720 C.3   600  OHT600      0.0050
      3  C8        31.3630   -0.3880   28.0590 C.3   600  OHT600      0.0304
      4  C11       32.7880    0.0530   27.9620 C.ar  600  OHT600     -0.0219
      5  C16       33.2410    0.7820   26.8420 C.ar  600  OHT600     -0.0043
      6  C15       34.5590    1.2350   26.7760 C.ar  600  OHT600     -0.0003
      7  C14       35.4510    0.9800   27.7990 C.ar  600  OHT600     -0.0000
      8  C13       35.0270    0.2700   28.8970 C.ar  600  OHT600     -0.0003
      9  C12       33.7070   -0.1880   28.9760 C.ar  600  OHT600     -0.0043
     10  C7        30.7080   -1.0570   27.0650 C.3   600  OHT600      0.0486
     11  C1        29.2100   -1.2330   27.0160 C.ar  600  OHT600     -0.0179
     12  C2        28.6090   -2.4900   26.6950 C.ar  600  OHT600     -0.0007
     13  C3        27.2150   -2.6130   26.6050 C.ar  600  OHT600      0.0417
     14  C4        26.4090   -1.4820   26.8350 C.ar  600  OHT600      0.1957
     15  O4        25.0580   -1.6220   26.7220 O.3   600  OHT600     -0.2866
     16  C5        26.9920   -0.2350   27.1560 C.ar  600  OHT600      0.0417
     17  C6        28.3750   -0.1340   27.2390 C.ar  600  OHT600     -0.0007
     18  C17       31.4110   -1.6900   25.9450 C.ar  600  OHT600     -0.0179
     19  C18       32.5290   -2.4960   26.1460 C.ar  600  OHT600     -0.0008
     20  C19       33.1820   -3.1140   25.1170 C.ar  600  OHT600      0.0366
     21  C20       32.7250   -2.9440   23.8200 C.ar  600  OHT600      0.1386
     22  O20       33.2960   -3.5540   22.7400 O.3   600  OHT600     -0.4740
     23  C23       32.9000   -3.1830   21.4230 C.3   600  OHT600      0.2226
     24  C24       34.0590   -3.5080   20.5200 C.3   600  OHT600      0.1201
     25  N24       34.1090   -4.8870   20.1180 N.3   600  OHT600     -0.2672
     26  C25       33.3900   -5.1110   18.8630 C.3   600  OHT600      0.0898
     27  C26       35.5060   -5.2910   19.9220 C.3   600  OHT600      0.0898
     28  C21       31.6010   -2.1350   23.5790 C.ar  600  OHT600      0.0366
     29  C22       30.9660   -1.5280   24.6260 C.ar  600  OHT600     -0.0008
@<TRIPOS>BOND
     1    26    25    1
     2    27    25    1
     3    25    24    1
     4    24    23    1
     5    23    22    1
     6    22    21    1
     7    28    21   ar
     8    28    29   ar
     9    21    20   ar
    10    29    18   ar
    11    20    19   ar
    12    18    19   ar
    13    18    10    1
    14    13    12   ar
    15    13    14   ar
    16    12    11   ar
    17    15    14    1
    18     6     5   ar
    19     6     7   ar
    20    14    16   ar
    21     5     4   ar
    22    11    10    1
    23    11    17   ar
    24    10     3    1
    25    16    17   ar
    26     7     8   ar
    27     4     3    1
    28     4     9   ar
    29     3     2    1
    30     8     9   ar
    31     2     1    1
