@<TRIPOS>MOLECULE
3es6_MAN_A_1.pdb
 11 11 0 0 0
SMALL
GASTEIGER

@<TRIPOS>ATOM
      1  C1       117.0070   41.7210   30.8600 C.3   327  MAN327      0.1777
      2  C2       117.5960   43.1210   31.1200 C.3   327  MAN327      0.2141
      3  C3       116.4890   44.1960   31.3500 C.3   327  MAN327      0.2173
      4  C4       115.2810   44.0200   30.4230 C.3   327  MAN327      0.2142
      5  C5       114.8460   42.5560   30.3780 C.3   327  MAN327      0.1810
      6  C6       113.6130   42.3420   29.4920 C.3   327  MAN327      0.2141
      7  O2       118.4380   43.4490   30.0080 O.3   327  MAN327     -0.2176
      8  O3       116.6910   45.5390   31.2240 O.3   327  MAN327     -0.2175
      9  O4       114.1670   44.8500   30.8840 O.3   327  MAN327     -0.2176
     10  O5       115.9460   41.7860   29.9260 O.3   327  MAN327     -0.3481
     11  O6       113.9840   41.7810   28.2410 O.3   327  MAN327     -0.2176
@<TRIPOS>BOND
     1    11     6    1
     2     6     5    1
     3    10     5    1
     4    10     1    1
     5     7     2    1
     6     5     4    1
     7     4     9    1
     8     4     3    1
     9     1     2    1
    10     2     3    1
    11     8     3    1
