@<TRIPOS>MOLECULE
3es6_P6G_A_1.pdb
 19 18 0 0 0
SMALL
GASTEIGER

@<TRIPOS>ATOM
      1  O1       142.3960   21.7520   -1.7040 O.3   701  P6G701     -0.2176
      2  C2       141.7600   21.0160   -0.6110 C.3   701  P6G701      0.2140
      3  C3       140.3410   20.5260   -1.2370 C.3   701  P6G701      0.1777
      4  O4       139.3410   20.7460   -0.1310 O.3   701  P6G701     -0.3483
      5  C5       138.1520   19.9690   -0.3940 C.3   701  P6G701      0.1742
      6  C6       136.9510   20.6030    0.3110 C.3   701  P6G701      0.1742
      7  O7       136.8600   21.9820   -0.0450 O.3   701  P6G701     -0.3484
      8  C8       135.7140   22.6460    0.5730 C.3   701  P6G701      0.1742
      9  C9       135.4360   24.0180   -0.3350 C.3   701  P6G701      0.1742
     10  O10      136.5460   24.2200   -1.2450 O.3   701  P6G701     -0.3484
     11  C11      136.2950   25.1790   -2.2800 C.3   701  P6G701      0.1742
     12  C12      136.9190   24.6850   -3.5830 C.3   701  P6G701      0.1742
     13  O13      136.5350   23.3280   -3.8040 O.3   701  P6G701     -0.3484
     14  C14      137.4140   22.6460   -4.7090 C.3   701  P6G701      0.1742
     15  C15      136.6290   21.5340   -5.4170 C.3   701  P6G701      0.1742
     16  O16      137.4540   20.3670   -5.5520 O.3   701  P6G701     -0.3483
     17  C17      137.9560   20.2050   -6.8810 C.3   701  P6G701      0.1777
     18  C18      138.8860   18.9900   -6.9380 C.3   701  P6G701      0.2140
     19  O19      140.2220   19.4150   -7.2770 O.3   701  P6G701     -0.2176
@<TRIPOS>BOND
     1    19    18    1
     2    18    17    1
     3    17    16    1
     4    16    15    1
     5    15    14    1
     6    14    13    1
     7    13    12    1
     8    12    11    1
     9    11    10    1
    10     1     2    1
    11    10     9    1
    12     3     2    1
    13     3     4    1
    14     5     4    1
    15     5     6    1
    16     9     8    1
    17     7     6    1
    18     7     8    1
