@<TRIPOS>MOLECULE
3es9_NAP_A_1.pdb
 48 52 0 0 0
SMALL
GASTEIGER

@<TRIPOS>ATOM
      1  PA        -4.5720   36.0750   59.3630 P.3   753  NAP753      0.2189
      2  O1A       -3.8660   37.3840   59.3580 O.2   753  NAP753     -0.5170
      3  O2A       -5.6020   35.9210   60.4190 O.3   753  NAP753     -0.4371
      4  O5B       -5.1870   35.8800   58.0170 O.3   753  NAP753     -0.3112
      5  C5B       -4.5170   36.2010   56.7740 C.3   753  NAP753      0.1813
      6  C4B       -5.4730   36.1520   55.5540 C.3   753  NAP753      0.1820
      7  O4B       -5.4190   34.8450   54.8940 O.3   753  NAP753     -0.3136
      8  C3B       -6.9580   36.3690   55.9180 C.3   753  NAP753      0.2157
      9  O3B       -7.5930   37.3340   55.0580 O.3   753  NAP753     -0.2175
     10  C2B       -7.5390   34.9760   55.7940 C.3   753  NAP753      0.2314
     11  O2B       -8.9910   34.8800   55.7070 O.3   753  NAP753     -0.2630
     12  C1B       -6.7580   34.4980   54.5660 C.3   753  NAP753      0.3158
     13  N9A       -6.8750   33.0180   54.2600 N.pl3 753  NAP753     -0.1439
     14  C8A       -7.2420   31.8880   55.0110 C.3   753  NAP753      0.3377
     15  N7A       -7.2630   30.6320   54.4310 N.2   753  NAP753     -0.2095
     16  C5A       -6.8610   31.0000   53.1580 C.2   753  NAP753      0.2526
     17  C6A       -6.6520   30.2000   51.9540 C.2   753  NAP753      0.4393
     18  N6A       -6.8450   28.8950   51.9370 N.pl3 753  NAP753      0.2180
     19  N1A       -6.2420   30.7960   50.7790 N.2   753  NAP753      0.0021
     20  C2A       -6.0110   32.1800   50.6890 C.3   753  NAP753      0.5254
     21  N3A       -6.1700   33.0350   51.7250 N.2   753  NAP753     -0.0055
     22  C4A       -6.6160   32.4430   53.0360 C.2   753  NAP753      0.3518
     23  O3        -3.5390   34.8760   59.4880 O.3   753  NAP753     -0.2703
     24  PN        -2.6540   34.4800   60.6180 P.3   753  NAP753      0.2189
     25  O1N       -3.3420   34.3720   61.9390 O.3   753  NAP753     -0.4371
     26  O2N       -1.5110   35.4430   60.7070 O.2   753  NAP753     -0.5170
     27  O5D       -2.2110   33.0120   60.2200 O.3   753  NAP753     -0.3112
     28  C5D       -3.1370   31.9650   60.0120 C.3   753  NAP753      0.1813
     29  C4D       -3.0270   30.7950   60.9290 C.3   753  NAP753      0.1799
     30  O4D       -4.3230   30.4280   61.5060 O.3   753  NAP753     -0.3327
     31  C3D       -2.5450   29.5230   60.2680 C.3   753  NAP753      0.2158
     32  O3D       -1.2410   29.3280   60.7490 O.3   753  NAP753     -0.2175
     33  C2D       -3.3910   28.3130   60.6070 C.3   753  NAP753      0.2309
     34  O2D       -2.6010   27.2870   61.3660 O.3   753  NAP753     -0.2158
     35  C1D       -4.5750   29.0080   61.3600 C.3   753  NAP753      0.2263
     36  N1N       -5.7650   28.6990   60.4820 N.pl3 753  NAP753     -0.2787
     37  C2N       -6.7510   27.8680   60.9860 C.3   753  NAP753      0.1244
     38  C3N       -7.8840   27.5340   60.2470 C.2   753  NAP753      0.0544
     39  C7N       -8.9700   26.6260   60.7900 C.2   753  NAP753      0.2818
     40  O7N      -10.0050   27.1110   61.2090 O.2   753  NAP753     -0.2670
     41  N7N       -8.6950   25.2480   60.7720 N.am  753  NAP753     -0.0839
     42  C4N       -8.0370   28.0700   58.9160 C.2   753  NAP753      0.0033
     43  C5N       -7.0350   28.9180   58.3970 C.2   753  NAP753      0.0157
     44  C6N       -5.9170   29.2380   59.1500 C.2   753  NAP753      0.0633
     45  P2B       -9.9730   34.2570   56.8720 P.3   753  NAP753      0.5328
     46  O1X       -9.9360   32.6540   56.8080 O.3   753  NAP753     -0.1145
     47  O2X      -11.4630   34.7690   56.6440 O.2   753  NAP753     -0.2224
     48  O3X       -9.4220   34.7430   58.2920 O.3   753  NAP753     -0.1145
@<TRIPOS>BOND
     1    20    19    1
     2    20    21    1
     3    19    17    2
     4    21    22    2
     5    18    17    1
     6    17    16    1
     7    22    16    1
     8    22    13    1
     9    16    15    2
    10    13    12    1
    11    13    14    1
    12    15    14    1
    13    12     7    1
    14    12    10    1
    15     7     6    1
    16     9     8    1
    17     6     8    1
    18     6     5    1
    19    11    10    1
    20    11    45    1
    21    10     8    1
    22    47    45    2
    23     5     4    1
    24    46    45    1
    25    45    48    1
    26     4     1    1
    27    43    42    1
    28    43    44    2
    29    42    38    2
    30    44    36    1
    31     2     1    2
    32     1    23    1
    33     1     3    1
    34    23    24    1
    35    28    27    1
    36    28    29    1
    37    27    24    1
    38    38    39    1
    39    38    37    1
    40    31    33    1
    41    31    32    1
    42    31    29    1
    43    36    37    1
    44    36    35    1
    45    33    35    1
    46    33    34    1
    47    24    26    2
    48    24    25    1
    49    41    39   am
    50    39    40    2
    51    29    30    1
    52    35    30    1
