@<TRIPOS>MOLECULE
3es9_FMN_A_1.pdb
 31 33 0 0 0
SMALL
GASTEIGER

@<TRIPOS>ATOM
      1  N1        17.3620    9.6440   50.4300 N.2   751  FMN751     -0.2890
      2  C2        16.0460    9.6880   50.0560 C.1   751  FMN751      0.3669
      3  O2        15.1660    9.8760   50.8830 O.2   751  FMN751     -0.1744
      4  N3        15.7340    9.5150   48.7160 N.2   751  FMN751     -0.2300
      5  C4        16.6840    9.2930   47.6880 C.1   751  FMN751      0.2513
      6  O4        16.1790    9.1710   46.5760 O.2   751  FMN751     -0.2057
      7  C4A       18.0950    9.2430   48.0720 C.2   751  FMN751      0.2700
      8  N5        19.0600    9.0240   47.0690 N.2   751  FMN751     -0.3878
      9  C5A       20.3780    8.9880   47.4960 C.2   751  FMN751      0.1320
     10  C6        21.3430    8.7650   46.4500 C.2   751  FMN751      0.0250
     11  C7        22.7200    8.7030   46.7050 C.2   751  FMN751     -0.0238
     12  C7M       23.6150    8.4580   45.4710 C.3   751  FMN751      0.0308
     13  C8        23.2380    8.8680   48.0990 C.2   751  FMN751     -0.0280
     14  C8M       24.7450    8.8170   48.4980 C.3   751  FMN751      0.0304
     15  C9        22.3210    9.0850   49.1230 C.2   751  FMN751     -0.0041
     16  C9A       20.8680    9.1530   48.8710 C.3   751  FMN751      0.1497
     17  N10       19.8040    9.3820   49.9010 N.pl3 751  FMN751     -0.2691
     18  C10       18.3550    9.4290   49.4830 C.2   751  FMN751      0.2416
     19  C1'       20.1680    9.5640   51.2990 C.3   751  FMN751      0.1294
     20  C2'       20.3590    8.2690   52.1560 C.3   751  FMN751      0.2044
     21  O2'       19.1550    7.4640   52.0520 O.3   751  FMN751     -0.2185
     22  C3'       20.7390    8.6380   53.6100 C.3   751  FMN751      0.2164
     23  O3'       21.9650    9.3950   53.5750 O.3   751  FMN751     -0.2175
     24  C4'       20.8950    7.3550   54.4800 C.3   751  FMN751      0.2147
     25  O4'       21.2500    7.8650   55.8140 O.3   751  FMN751     -0.2176
     26  C5'       21.9740    6.4020   54.0500 C.3   751  FMN751      0.1892
     27  O5'       21.9580    5.2490   54.9530 O.3   751  FMN751     -0.2674
     28  P         23.0640    4.1290   55.0760 P.3   751  FMN751      0.5327
     29  O1P       24.3020    4.7110   55.6280 O.3   751  FMN751     -0.1145
     30  O2P       23.1960    3.3820   53.8080 O.2   751  FMN751     -0.2224
     31  O3P       22.4680    3.2760   56.1190 O.3   751  FMN751     -0.1145
@<TRIPOS>BOND
     1    12    11    1
     2    10    11    2
     3    10     9    1
     4     6     5    2
     5    11    13    1
     6     8     9    2
     7     8     7    2
     8     9    16    1
     9     5     7    1
    10     5     4    2
    11     7    18    1
    12    13    14    1
    13    13    15    2
    14     4     2    2
    15    16    15    1
    16    16    17    1
    17    18    17    1
    18    18     1    2
    19    17    19    1
    20     2     1    2
    21     2     3    2
    22    19    20    1
    23    21    20    1
    24    20    22    1
    25    23    22    1
    26    22    24    1
    27    30    28    2
    28    26    24    1
    29    26    27    1
    30    24    25    1
    31    27    28    1
    32    28    29    1
    33    28    31    1
