@<TRIPOS>MOLECULE
3esa_NXC_A_1.pdb
 24 26 0 0 0
SMALL
GASTEIGER

@<TRIPOS>ATOM
      1 CL         -4.0610  -21.4080   46.3040 Cl    215  NXC215      0.0000
      2 PT         -2.7020  -19.3000   45.6840 Pt    215  NXC215      0.0000
      3  C1        -1.6890  -17.6340   45.1690 C.ar  215  NXC215      0.0000
      4  C6        -0.3480  -17.4180   45.7680 C.ar  215  NXC215      0.0000
      5  C10        0.0280  -18.5360   46.7140 C.3   215  NXC215      0.0000
      6  N2        -1.0240  -19.5600   46.8110 N.4   215  NXC215      0.0000
      7  C12       -1.4480  -19.5790   48.2170 C.3   215  NXC215      0.0000
      8  C11       -0.4270  -20.8730   46.5360 C.3   215  NXC215      0.0000
      9  C5         0.3330  -16.2590   45.4120 C.ar  215  NXC215      0.0000
     10  C4        -0.2770  -15.4000   44.5030 C.ar  215  NXC215      0.0000
     11  C3        -1.5350  -15.5680   43.9300 C.ar  215  NXC215      0.0000
     12  C2        -2.3110  -16.6870   44.2090 C.ar  215  NXC215      0.0000
     13  C7        -3.6710  -17.1820   43.7760 C.3   215  NXC215      0.0000
     14  N1        -4.0360  -18.4690   44.3890 N.4   215  NXC215      0.0000
     15  C9        -4.2470  -19.4220   43.2900 C.3   215  NXC215      0.0000
     16  C8        -5.3310  -18.3440   45.0720 C.3   215  NXC215      0.0000
     17  C13        0.5140  -14.1400   44.1720 C.3   215  NXC215      0.0000
     18  C14        1.9500  -14.2940   43.6680 C.3   215  NXC215      0.0000
     19  C15        2.2780  -13.0210   42.9930 C.3   215  NXC215      0.0000
     20  P          3.9450  -13.1370   42.4190 P.3   215  NXC215      0.0000
     21  O2         4.2180  -13.7720   40.8120 O.3   215  NXC215      0.0000
     22  O1         5.0380  -13.6200   43.6920 O.3   215  NXC215      0.0000
     23  C16        5.1890  -12.9200   44.8570 C.3   215  NXC215      0.0000
     24  C17        6.4290  -13.5430   45.4850 C.3   215  NXC215      0.0000
@<TRIPOS>BOND
     1    21    20    1
     2    20    19    1
     3    20    22    1
     4    19    18    1
     5    15    14    1
     6    18    17    1
     7    22    23    1
     8    13    12    1
     9    13    14    1
    10    11    12   ar
    11    11    10   ar
    12    17    10    1
    13    12     3   ar
    14    14    16    1
    15    14     2    1
    16    10     9   ar
    17    23    24    1
    18     3     2    1
    19     3     4   ar
    20     9     4   ar
    21     2     1    1
    22     2     6    1
    23     4     5    1
    24     8     6    1
    25     5     6    1
    26     6     7    1
