@<TRIPOS>MOLECULE
3esb_NXC_A_1.pdb
 23 25 0 0 0
SMALL
GASTEIGER

@<TRIPOS>ATOM
      1 PT         18.6890    1.1310   31.1720 Pt    216  NXC216      0.0000
      2  C1        19.6780    1.8330   29.5590 C.ar  216  NXC216      0.0000
      3  C6        19.7730    3.3040   29.3830 C.ar  216  NXC216      0.0000
      4  C10       19.0800    4.0670   30.4880 C.3   216  NXC216      0.0000
      5  N2        18.4840    3.1390   31.4620 N.4   216  NXC216      0.0000
      6  C12       17.0600    3.4940   31.5240 C.3   216  NXC216      0.0000
      7  C11       19.0640    3.4860   32.7670 C.3   216  NXC216      0.0000
      8  C5        20.4550    3.7870   28.2720 C.ar  216  NXC216      0.0000
      9  C4        21.0090    2.8550   27.4020 C.ar  216  NXC216      0.0000
     10  C3        20.9520    1.4700   27.5220 C.ar  216  NXC216      0.0000
     11  C2        20.2880    0.8840   28.5940 C.ar  216  NXC216      0.0000
     12  C7        20.0290   -0.5400   29.0240 C.3   216  NXC216      0.0000
     13  N1        19.2540   -0.6100   30.2730 N.4   216  NXC216      0.0000
     14  C9        20.0650   -1.4420   31.1720 C.3   216  NXC216      0.0000
     15  C8        18.0550   -1.3910   29.9390 C.3   216  NXC216      0.0000
     16  C13       21.7260    3.5350   26.2420 C.3   216  NXC216      0.0000
     17  C14       22.9680    2.7850   25.9660 C.3   216  NXC216      0.0000
     18  C15       24.0620    3.6820   25.8550 C.3   216  NXC216      0.0000
     19  P         25.5220    2.7430   25.4520 P.3   216  NXC216      0.0000
     20  O2        25.5620    1.8110   24.0070 O.3   216  NXC216      0.0000
     21  O1        26.6770    2.3160   26.6990 O.3   216  NXC216      0.0000
     22  C16       26.3380    2.4680   28.0730 C.3   216  NXC216      0.0000
     23  C17       27.3040    1.7520   28.8690 C.3   216  NXC216      0.0000
@<TRIPOS>BOND
     1    20    19    1
     2    19    18    1
     3    19    21    1
     4    18    17    1
     5    17    16    1
     6    16     9    1
     7    21    22    1
     8     9    10   ar
     9     9     8   ar
    10    10    11   ar
    11    22    23    1
    12     8     3   ar
    13    11    12    1
    14    11     2   ar
    15    12    13    1
    16     3     2   ar
    17     3     4    1
    18     2     1    1
    19    15    13    1
    20    13    14    1
    21    13     1    1
    22     4     5    1
    23     1     5    1
    24     5     6    1
    25     5     7    1
