@<TRIPOS>MOLECULE
3esc_SXC_A_1.pdb
 22 24 0 0 0
SMALL
GASTEIGER

@<TRIPOS>ATOM
      1 BR1        39.6430  -26.5480    4.8780 Br    215  SXC215      0.0000
      2 PD1        38.8010  -24.6970    6.2180 Pd    215  SXC215      0.0000
      3  S1        37.6330  -23.6940    4.5160 S.3   215  SXC215      0.0000
      4  S2        39.7960  -25.3040    8.1530 S.3   215  SXC215      0.0000
      5  P1        32.4510  -19.8440   11.6980 P.3   215  SXC215      0.0000
      6  O1        32.8410  -20.9200   12.7160 O.3   215  SXC215      0.0000
      7  O2        31.3170  -20.2440   10.8040 O.3   215  SXC215      0.0000
      8  C1        38.1160  -23.1560    7.3380 C.ar  215  SXC215      0.0000
      9  C2        37.4270  -22.0980    6.7500 C.ar  215  SXC215      0.0000
     10  C3        36.8770  -21.0700    7.5300 C.ar  215  SXC215      0.0000
     11  C4        36.9230  -21.1160    8.8950 C.ar  215  SXC215      0.0000
     12  C5        37.6140  -22.1220    9.5370 C.ar  215  SXC215      0.0000
     13  C6        38.2290  -23.1070    8.7460 C.ar  215  SXC215      0.0000
     14  C7        37.3840  -22.0440    5.2220 C.3   215  SXC215      0.0000
     15  C9        38.8230  -23.4560    3.1800 C.3   215  SXC215      0.0000
     16  C10       39.1270  -24.1140    9.4040 C.3   215  SXC215      0.0000
     17  C12       38.9770  -26.7990    8.5820 C.3   215  SXC215      0.0000
     18  C13       36.1730  -20.0940    9.7450 C.3   215  SXC215      0.0000
     19  C14       34.8110  -20.6530   10.2730 C.3   215  SXC215      0.0000
     20  C15       33.9760  -19.4880   10.8260 C.3   215  SXC215      0.0000
     21  C16       31.9590  -21.3290   13.7990 C.3   215  SXC215      0.0000
     22  C17       32.4180  -22.6960   14.3980 C.3   215  SXC215      0.0000
@<TRIPOS>BOND
     1    15     3    1
     2     3    14    1
     3     3     2    1
     4     1     2    1
     5    14     9    1
     6     2     8    1
     7     2     4    1
     8     9     8   ar
     9     9    10   ar
    10     8    13   ar
    11    10    11   ar
    12     4    17    1
    13     4    16    1
    14    13    16    1
    15    13    12   ar
    16    11    12   ar
    17    11    18    1
    18    18    19    1
    19    19    20    1
    20     7     5    1
    21    20     5    1
    22     5     6    1
    23     6    21    1
    24    21    22    1
