@<TRIPOS>MOLECULE
3esd_SXC_A_1.pdb
 22 24 0 0 0
SMALL
GASTEIGER

@<TRIPOS>ATOM
      1 BR1        39.2260   21.4960    4.8470 Br    215  SXC215      0.0000
      2 PD1        38.9210   19.4860    6.2360 Pd    215  SXC215      0.0000
      3  S1        39.3560   17.9980    4.5140 S.3   215  SXC215      0.0000
      4  S2        38.4780   20.5780    8.1760 S.3   215  SXC215      0.0000
      5  P1        41.3860   11.9590   11.7050 P.3   215  SXC215      0.0000
      6  O1        41.6770   12.8540   12.8290 O.3   215  SXC215      0.0000
      7  O2        42.2180   11.7430   10.5310 O.3   215  SXC215      0.0000
      8  C1        38.7160   17.7700    7.3360 C.ar  215  SXC215      0.0000
      9  C2        38.5660   16.5640    6.6690 C.ar  215  SXC215      0.0000
     10  C3        38.4390   15.4310    7.4860 C.ar  215  SXC215      0.0000
     11  C4        38.5560   15.5090    8.8390 C.ar  215  SXC215      0.0000
     12  C5        38.6770   16.7170    9.5360 C.ar  215  SXC215      0.0000
     13  C6        38.6690   17.8710    8.6890 C.ar  215  SXC215      0.0000
     14  C7        38.5790   16.4820    5.1750 C.3   215  SXC215      0.0000
     15  C9        38.1550   18.4470    3.2300 C.3   215  SXC215      0.0000
     16  C10       38.7880   19.2130    9.3810 C.3   215  SXC215      0.0000
     17  C12       39.9390   21.6220    8.4570 C.3   215  SXC215      0.0000
     18  C13       38.4870   14.2340    9.6650 C.3   215  SXC215      0.0000
     19  C14       39.9190   13.7030   10.0390 C.3   215  SXC215      0.0000
     20  C15       39.7480   12.6040   11.0990 C.3   215  SXC215      0.0000
     21  C16       42.5500   12.9180   13.9300 C.3   215  SXC215      0.0000
     22  C17       43.0690   14.3540   14.3080 C.3   215  SXC215      0.0000
@<TRIPOS>BOND
     1    15     3    1
     2     3    14    1
     3     3     2    1
     4     1     2    1
     5    14     9    1
     6     2     8    1
     7     2     4    1
     8     9     8   ar
     9     9    10   ar
    10     8    13   ar
    11    10    11   ar
    12     4    17    1
    13     4    16    1
    14    13    16    1
    15    13    12   ar
    16    11    12   ar
    17    11    18    1
    18    18    19    1
    19    19    20    1
    20     7     5    1
    21    20     5    1
    22     5     6    1
    23     6    21    1
    24    21    22    1
