@<TRIPOS>MOLECULE
3esj_GPP_A_1.pdb
 19 18 0 0 0
SMALL
GASTEIGER

@<TRIPOS>ATOM
      1  C1        11.2960   14.1450   13.1000 C.3   904  GPP904      0.1491
      2  O1        11.7650   13.5100   11.9300 O.3   904  GPP904     -0.3138
      3  C2        12.3220   15.1150   13.6080 C.3   904  GPP904      0.0325
      4  C3        12.2330   16.4090   13.2980 C.3   904  GPP904      0.0028
      5  C4        11.1180   16.8730   12.4000 C.3   904  GPP904      0.0001
      6  C5        12.5530   17.4010   14.3780 C.3   904  GPP904      0.0047
      7  C6        13.7180   16.9600   15.2140 C.3   904  GPP904      0.0254
      8  C7        13.7300   17.9780   16.3100 C.2   904  GPP904     -0.0346
      9  C8        14.8800   18.6030   16.6210 C.2   904  GPP904     -0.0478
     10  C9        16.1380   18.2810   15.8900 C.3   904  GPP904      0.0260
     11  C10       14.9800   19.6360   17.7060 C.3   904  GPP904      0.0260
     12  PA        12.5800   12.1330   12.0370 P.3   904  GPP904      0.2230
     13  O1A       13.6400   12.1310   10.8590 O.2   904  GPP904     -0.5169
     14  O2A       13.3130   12.0050   13.4460 O.3   904  GPP904     -0.4370
     15  O3A       11.4430   10.9880   11.9210 O.3   904  GPP904     -0.2261
     16  PB        10.6600   10.5570   10.5820 P.3   904  GPP904      0.5373
     17  O1B       11.6700   10.3380    9.3860 O.2   904  GPP904     -0.2221
     18  O2B        9.9240    9.1940   10.8920 O.3   904  GPP904     -0.1143
     19  O3B        9.5770   11.6350   10.1620 O.3   904  GPP904     -0.1143
@<TRIPOS>BOND
     1    17    16    2
     2    19    16    1
     3    16    18    1
     4    16    15    1
     5    13    12    2
     6    15    12    1
     7     2    12    1
     8     2     1    1
     9    12    14    1
    10     5     4    1
    11     1     3    1
    12     4     3    1
    13     4     6    1
    14     6     7    1
    15     7     8    1
    16    10     9    1
    17     8     9    2
    18     9    11    1
