@<TRIPOS>MOLECULE
3esj_CC7_A_1.pdb
 20 22 0 0 0
SMALL
GASTEIGER

@<TRIPOS>ATOM
      1  O2         7.1860   31.9020   13.7680 O.2   901  CC7901     -0.1925
      2  C2         7.5130   30.7710   13.4550 C.1   901  CC7901      0.2756
      3  N3         6.7530   29.7220   13.7820 N.2   901  CC7901     -0.3024
      4  C4         7.1180   28.4830   13.4370 C.2   901  CC7901      0.2346
      5  N4         6.3460   27.4900   13.7790 N.pl3 901  CC7901     -0.0921
      6  C5         8.2780   28.2370   12.7210 C.2   901  CC7901      0.0687
      7  C6         9.0790   29.3090   12.3530 C.2   901  CC7901      0.0836
      8  N1         8.6740   30.5960   12.7440 N.am  901  CC7901     -0.1778
      9  C1'        9.4330   31.7930   12.4090 C.3   901  CC7901      0.2399
     10  O4'        9.0060   32.0570   11.0650 O.3   901  CC7901     -0.3321
     11  C4'       10.1340   32.5570   10.4090 C.3   901  CC7901      0.1771
     12  C5'       10.0490   32.3200    8.9070 C.3   901  CC7901      0.1812
     13  O5'       11.3270   32.5710    8.3130 O.3   901  CC7901     -0.3114
     14  P         12.6700   31.9050    8.9540 P.3   901  CC7901      0.2141
     15  O2P       12.5170   30.3360    8.7810 O.3   901  CC7901     -0.4373
     16  O1P       13.8910   32.5090    8.3770 O.2   901  CC7901     -0.5172
     17  O3'       12.4840   32.0200   10.4900 O.3   901  CC7901     -0.3112
     18  C3'       11.1870   31.5810   10.9030 C.3   901  CC7901      0.1857
     19  C2'       10.9430   31.6450   12.3850 C.3   901  CC7901      0.2291
     20  O2'       11.4810   32.8460   12.8880 O.3   901  CC7901     -0.2158
@<TRIPOS>BOND
     1    13    12    1
     2    13    14    1
     3    16    14    2
     4    15    14    1
     5    12    11    1
     6    14    17    1
     7    11    18    1
     8    11    10    1
     9    17    18    1
    10    18    19    1
    11    10     9    1
    12     7     6    2
    13     7     8    1
    14    19     9    1
    15    19    20    1
    16     9     8    1
    17     6     4    1
    18     8     2   am
    19     4     5    1
    20     4     3    2
    21     2     1    2
    22     2     3    2
