@<TRIPOS>MOLECULE
3esn_DZ1_A_1.pdb
 20 21 0 0 0
SMALL
GASTEIGER

@<TRIPOS>ATOM
      1  CAA        0.4700   -2.5620   -9.4640 C.3   128  DZ1128      0.0312
      2  CAN        0.1650   -1.1190   -9.9980 C.ar  128  DZ1128     -0.0177
      3  CAH       -0.1960   -1.0080  -11.3190 C.ar  128  DZ1128     -0.0041
      4  CAG       -0.4860    0.2180  -11.9230 C.ar  128  DZ1128     -0.0006
      5  CAI       -0.3840    1.3820  -11.1760 C.ar  128  DZ1128     -0.0041
      6  CAO       -0.0030    1.3260   -9.8340 C.ar  128  DZ1128     -0.0177
      7  CAB        0.1100    2.6140   -8.9680 C.3   128  DZ1128      0.0312
      8  CAT        0.2600    0.0830   -9.2600 C.ar  128  DZ1128      0.0475
      9  CAM        0.7070    0.0860   -7.8140 C.2   128  DZ1128      0.2684
     10  OAC        1.9170    0.0350   -7.5890 O.2   128  DZ1128     -0.2680
     11  NAL       -0.2540    0.1320   -6.8960 N.am  128  DZ1128     -0.1754
     12  CAR       -0.0980    0.0670   -5.5640 C.ar  128  DZ1128      0.0749
     13  CAJ       -0.9590    0.8030   -4.8120 C.ar  128  DZ1128      0.0265
     14  CAP       -0.9000    0.7570   -3.4440 C.ar  128  DZ1128      0.0752
     15 BRAE       -2.1500    1.8280   -2.5170 Br    128  DZ1128     -0.0456
     16  CAS        0.0170   -0.0140   -2.7740 C.ar  128  DZ1128      0.2080
     17  OAD        0.0670   -0.0320   -1.4200 O.3   128  DZ1128     -0.2855
     18  CAQ        0.8850   -0.7630   -3.5360 C.ar  128  DZ1128      0.0752
     19 BRAF        2.1580   -1.8370   -2.6110 Br    128  DZ1128     -0.0456
     20  CAK        0.8190   -0.7500   -4.9330 C.ar  128  DZ1128      0.0265
@<TRIPOS>BOND
     1     4     3   ar
     2     4     5   ar
     3     3     2   ar
     4     5     6   ar
     5     2     1    1
     6     2     8   ar
     7     6     8   ar
     8     6     7    1
     9     8     9    1
    10     9    10    2
    11     9    11   am
    12    11    12    1
    13    12    20   ar
    14    12    13   ar
    15    20    18   ar
    16    13    14   ar
    17    18    16   ar
    18    18    19    1
    19    14    16   ar
    20    14    15    1
    21    16    17    1
