@<TRIPOS>MOLECULE
3eso_DZ2_A_1.pdb
 20 21 0 0 0
SMALL
GASTEIGER

@<TRIPOS>ATOM
      1  CAJ        0.9910   -0.7470   -4.1630 C.ar  128  DZ2128      0.0265
      2  CAQ        0.8940   -0.7130   -2.7820 C.ar  128  DZ2128      0.0752
      3 BRAE        2.0670   -1.8530   -1.8390 Br    128  DZ2128     -0.0456
      4  CAP       -0.0360    0.1180   -2.1370 C.ar  128  DZ2128      0.2080
      5  OAB       -0.1850    0.0840   -0.7840 O.3   128  DZ2128     -0.2855
      6  CAR       -0.8540    0.8740   -2.9770 C.ar  128  DZ2128      0.0752
      7 BRAF       -2.1790    2.0290   -2.3300 Br    128  DZ2128     -0.0456
      8  CAK       -0.7250    0.8970   -4.3460 C.ar  128  DZ2128      0.0265
      9  CAS        0.1960    0.0660   -4.9550 C.ar  128  DZ2128      0.0749
     10  NAL        0.3200    0.1200   -6.2620 N.am  128  DZ2128     -0.1754
     11  CAM       -0.4340   -0.5060   -7.0830 C.2   128  DZ2128      0.2698
     12  OAA       -1.2190   -1.3770   -6.6900 O.2   128  DZ2128     -0.2680
     13  CAT       -0.2080   -0.2210   -8.5790 C.ar  128  DZ2128      0.0668
     14  CAI        0.0740   -1.3330   -9.3140 C.ar  128  DZ2128      0.0168
     15  CAN        0.2990   -1.3340  -10.6130 C.ar  128  DZ2128      0.0579
     16 CLAC        0.6860   -2.9070  -11.1990 Cl    128  DZ2128     -0.0822
     17  CAG        0.2530   -0.1710  -11.3340 C.ar  128  DZ2128      0.0123
     18  CAH       -0.0320    1.0370  -10.6260 C.ar  128  DZ2128      0.0124
     19  CAO       -0.2460    1.0340   -9.2550 C.ar  128  DZ2128      0.0621
     20 CLAD       -0.5650    2.5280   -8.4860 Cl    128  DZ2128     -0.0821
@<TRIPOS>BOND
     1    17    18   ar
     2    17    15   ar
     3    16    15    1
     4    18    19   ar
     5    15    14   ar
     6    14    13   ar
     7    19    13   ar
     8    19    20    1
     9    13    11    1
    10    11    12    2
    11    11    10   am
    12    10     9    1
    13     9     8   ar
    14     9     1   ar
    15     8     6   ar
    16     1     2   ar
    17     6     7    1
    18     6     4   ar
    19     2     4   ar
    20     2     3    1
    21     4     5    1
