@<TRIPOS>MOLECULE
3esp_DZ3_A_1.pdb
 21 22 0 0 0
SMALL
GASTEIGER

@<TRIPOS>ATOM
      1  CAA       -0.5540    2.5800  -10.1470 C.3   128  DZ3128      0.0344
      2  CAN       -0.2520    1.1760   -9.5500 C.ar  128  DZ3128      0.0169
      3  CAJ       -0.3170    1.0610   -8.1610 C.ar  128  DZ3128      0.0035
      4  CAS        0.0320    0.0530  -10.3700 C.ar  128  DZ3128      0.1877
      5  OAD        0.0930    0.1100  -11.7030 O.3   128  DZ3128     -0.2872
      6  CAO        0.2610   -1.1770   -9.7620 C.ar  128  DZ3128      0.0169
      7  CAB        0.6240   -2.4430  -10.5880 C.3   128  DZ3128      0.0344
      8  CAK        0.2110   -1.2650   -8.3830 C.ar  128  DZ3128      0.0035
      9  CAU       -0.0700   -0.1750   -7.5490 C.ar  128  DZ3128      0.0550
     10  CAM       -0.0980   -0.4380   -6.0260 C.2   128  DZ3128      0.2690
     11  OAC       -0.5220   -1.5260   -5.6440 O.2   128  DZ3128     -0.2680
     12  NAL        0.2200    0.5300   -5.1250 N.am  128  DZ3128     -0.1754
     13  CAR        0.1440    0.2270   -3.7630 C.ar  128  DZ3128      0.0749
     14  CAH        0.9980   -0.7170   -3.1270 C.ar  128  DZ3128      0.0265
     15  CAP        0.8740   -1.0030   -1.7210 C.ar  128  DZ3128      0.0752
     16 BRAF        2.0380   -2.3200   -0.7190 Br    128  DZ3128     -0.0456
     17  CAT       -0.0950   -0.2770   -0.9750 C.ar  128  DZ3128      0.2080
     18  OAE       -0.3140   -0.4270    0.3850 O.3   128  DZ3128     -0.2855
     19  CAQ       -0.9130    0.6250   -1.6820 C.ar  128  DZ3128      0.0752
     20 BRAG       -2.3190    1.7430   -1.0560 Br    128  DZ3128     -0.0456
     21  CAI       -0.7740    0.8500   -3.0310 C.ar  128  DZ3128      0.0265
@<TRIPOS>BOND
     1     5     4    1
     2     7     6    1
     3     4     6   ar
     4     4     2   ar
     5     1     2    1
     6     6     8   ar
     7     2     3   ar
     8     8     9   ar
     9     3     9   ar
    10     9    10    1
    11    10    11    2
    12    10    12   am
    13    12    13    1
    14    13    14   ar
    15    13    21   ar
    16    14    15   ar
    17    21    19   ar
    18    15    17   ar
    19    15    16    1
    20    19    20    1
    21    19    17   ar
    22    17    18    1
