@<TRIPOS>MOLECULE
3esx_FMN_A_1.pdb
 31 33 0 0 0
SMALL
GASTEIGER

@<TRIPOS>ATOM
      1  N1       -12.3250   -3.0140    2.7810 N.2   170  FMN170     -0.2887
      2  C2       -11.2300   -3.6080    2.1660 C.1   170  FMN170      0.3669
      3  O2       -10.4910   -4.3630    2.8080 O.2   170  FMN170     -0.1744
      4  N3       -10.9870   -3.3580    0.8220 N.2   170  FMN170     -0.2300
      5  C4       -11.8140   -2.5110    0.0990 C.1   170  FMN170      0.2513
      6  O4       -11.5310   -2.2670   -1.0730 O.2   170  FMN170     -0.2057
      7  C4A      -12.9140   -1.9080    0.7170 C.2   170  FMN170      0.2706
      8  N5       -13.7590   -1.0570    0.0170 N.2   170  FMN170     -0.3841
      9  C5A      -14.8460   -0.4650    0.6460 C.2   170  FMN170      0.1452
     10  C6       -15.7010    0.3860   -0.0600 C.2   170  FMN170      0.0252
     11  C7       -16.7970    0.9810    0.5740 C.2   170  FMN170     -0.0375
     12  C7M      -17.7240    1.8630   -0.2190 C.3   170  FMN170      0.0268
     13  C8       -17.0490    0.7220    1.9260 C.3   170  FMN170      0.0417
     14  C8M      -18.4200    0.9490    2.4990 C.3   170  FMN170      0.0091
     15  C9       -16.1940   -0.1290    2.6230 C.2   170  FMN170     -0.0049
     16  C9A      -15.0940   -0.7270    1.9980 C.2   170  FMN170      0.0795
     17  N10      -14.2400   -1.5740    2.7050 N.pl3 170  FMN170     -0.2545
     18  C10      -13.1630   -2.1690    2.0680 C.2   170  FMN170      0.2449
     19  C1'      -14.3900   -1.7660    4.1880 C.3   170  FMN170      0.1336
     20  C2'      -13.7390   -0.6530    5.0030 C.3   170  FMN170      0.2048
     21  O2'      -12.3510   -0.6050    4.7720 O.3   170  FMN170     -0.2185
     22  C3'      -14.0410   -0.8930    6.4820 C.3   170  FMN170      0.2165
     23  O3'      -15.3920   -0.5650    6.7560 O.3   170  FMN170     -0.2175
     24  C4'      -13.1010   -0.1650    7.4400 C.3   170  FMN170      0.2147
     25  O4'      -13.3640   -0.6740    8.7190 O.3   170  FMN170     -0.2176
     26  C5'      -13.2740    1.3540    7.4560 C.3   170  FMN170      0.1892
     27  O5'      -12.2380    1.9410    8.2190 O.3   170  FMN170     -0.2674
     28  P        -12.3350    3.4550    8.7650 P.3   170  FMN170      0.5327
     29  O1P      -13.5700    3.6140    9.6040 O.3   170  FMN170     -0.1145
     30  O2P      -12.4240    4.4170    7.6040 O.2   170  FMN170     -0.2224
     31  O3P      -11.1550    3.7480    9.6510 O.3   170  FMN170     -0.1145
@<TRIPOS>BOND
     1     6     5    2
     2    12    11    1
     3    10    11    2
     4    10     9    1
     5     8     9    2
     6     8     7    2
     7     5     7    1
     8     5     4    2
     9    11    13    1
    10     9    16    1
    11     7    18    1
    12     4     2    2
    13    13    14    1
    14    13    15    1
    15    16    15    2
    16    16    17    1
    17    18    17    1
    18    18     1    2
    19     2     1    2
    20     2     3    2
    21    17    19    1
    22    19    20    1
    23    21    20    1
    24    20    22    1
    25    22    23    1
    26    22    24    1
    27    24    26    1
    28    24    25    1
    29    26    27    1
    30    30    28    2
    31    27    28    1
    32    28    29    1
    33    28    31    1
