@<TRIPOS>MOLECULE
3esy_FMN_A_1.pdb
 31 33 0 0 0
SMALL
GASTEIGER

@<TRIPOS>ATOM
      1  N1        42.0060   -4.1230   27.7730 N.2   170  FMN170     -0.2887
      2  C2        42.0470   -3.5530   26.5450 C.1   170  FMN170      0.3669
      3  O2        42.7870   -2.6050   26.3930 O.2   170  FMN170     -0.1744
      4  N3        41.2650   -4.0320   25.5230 N.2   170  FMN170     -0.2300
      5  C4        40.4200   -5.1220   25.7390 C.1   170  FMN170      0.2513
      6  O4        39.9780   -5.7000   24.7450 O.2   170  FMN170     -0.2057
      7  C4A       40.3650   -5.7240   27.0100 C.2   170  FMN170      0.2706
      8  N5        39.5330   -6.7950   27.3060 N.2   170  FMN170     -0.3841
      9  C5A       39.5240   -7.3570   28.5670 C.2   170  FMN170      0.1452
     10  C6        38.7250   -8.4570   28.8520 C.2   170  FMN170      0.0252
     11  C7        38.7070   -9.0320   30.1300 C.2   170  FMN170     -0.0375
     12  C7M       38.0730  -10.3950   30.2330 C.3   170  FMN170      0.0268
     13  C8        39.5140   -8.4810   31.1550 C.3   170  FMN170      0.0417
     14  C8M       39.7870   -9.1420   32.4950 C.3   170  FMN170      0.0091
     15  C9        40.3300   -7.3880   30.8490 C.2   170  FMN170     -0.0049
     16  C9A       40.3400   -6.8360   29.5670 C.2   170  FMN170      0.0795
     17  N10       41.1540   -5.7570   29.2860 N.pl3 170  FMN170     -0.2545
     18  C10       41.1740   -5.2080   28.0220 C.2   170  FMN170      0.2449
     19  C1'       41.8630   -5.0440   30.3900 C.3   170  FMN170      0.1336
     20  C2'       40.9500   -4.0790   31.1430 C.3   170  FMN170      0.2048
     21  O2'       40.4510   -3.0570   30.3100 O.3   170  FMN170     -0.2185
     22  C3'       41.8040   -3.3920   32.2000 C.3   170  FMN170      0.2165
     23  O3'       42.1680   -4.3240   33.1820 O.3   170  FMN170     -0.2175
     24  C4'       41.1200   -2.1600   32.8020 C.3   170  FMN170      0.2147
     25  O4'       42.0380   -1.5050   33.6390 O.3   170  FMN170     -0.2176
     26  C5'       39.8760   -2.4640   33.6070 C.3   170  FMN170      0.1892
     27  O5'       39.3910   -1.2070   34.0020 O.3   170  FMN170     -0.2674
     28  P         38.2620   -1.0330   35.1380 P.3   170  FMN170      0.5327
     29  O1P       38.7510   -1.6480   36.3850 O.3   170  FMN170     -0.1145
     30  O2P       37.0650   -1.7900   34.6410 O.2   170  FMN170     -0.2224
     31  O3P       37.9640    0.4200   35.3230 O.3   170  FMN170     -0.1145
@<TRIPOS>BOND
     1     6     5    2
     2     4     5    2
     3     4     2    2
     4     5     7    1
     5     3     2    2
     6     2     1    2
     7     7     8    2
     8     7    18    1
     9     8     9    2
    10     1    18    2
    11    18    17    1
    12     9    10    1
    13     9    16    1
    14    10    11    2
    15    17    16    1
    16    17    19    1
    17    16    15    2
    18    11    12    1
    19    11    13    1
    20    21    20    1
    21    19    20    1
    22    15    13    1
    23    20    22    1
    24    13    14    1
    25    22    24    1
    26    22    23    1
    27    24    26    1
    28    24    25    1
    29    26    27    1
    30    27    28    1
    31    30    28    2
    32    28    31    1
    33    28    29    1
