@<TRIPOS>MOLECULE
3esz_FMN_A_1.pdb
 31 33 0 0 0
SMALL
GASTEIGER

@<TRIPOS>ATOM
      1  N1        11.9640    1.1920   21.0350 N.2   170  FMN170     -0.2887
      2  C2        10.6110    1.2750   21.1820 C.1   170  FMN170      0.3669
      3  O2        10.0390    2.3400   20.9650 O.2   170  FMN170     -0.1744
      4  N3         9.8970    0.1690   21.5880 N.2   170  FMN170     -0.2300
      5  C4        10.5370   -1.0150   21.8340 C.1   170  FMN170      0.2513
      6  O4         9.8550   -1.9790   22.1610 O.2   170  FMN170     -0.2057
      7  C4A       11.9180   -1.1040   21.6850 C.2   170  FMN170      0.2703
      8  N5        12.5760   -2.2850   21.9330 N.2   170  FMN170     -0.3885
      9  C5A       13.9310   -2.3490   21.7680 C.2   170  FMN170      0.1233
     10  C6        14.5600   -3.5600   22.0220 C.3   170  FMN170      0.0606
     11  C7        15.9360   -3.6760   21.8520 C.3   170  FMN170      0.0111
     12  C7M       16.4730   -5.0610   21.5940 C.3   170  FMN170      0.0008
     13  C8        16.6710   -2.5610   21.4490 C.3   170  FMN170      0.0238
     14  C8M       18.0960   -2.6990   20.9870 C.3   170  FMN170      0.0047
     15  C9        16.0430   -1.3410   21.2190 C.2   170  FMN170     -0.0093
     16  C9A       14.6660   -1.2200   21.3620 C.2   170  FMN170      0.0750
     17  N10       14.0090   -0.0210   21.1240 N.pl3 170  FMN170     -0.2548
     18  C10       12.6340    0.0170   21.2740 C.2   170  FMN170      0.2449
     19  C1'       14.7230    1.2620   20.7780 C.3   170  FMN170      0.1336
     20  C2'       15.2760    1.9950   21.9990 C.3   170  FMN170      0.2048
     21  O2'       14.2410    2.3790   22.8880 O.3   170  FMN170     -0.2185
     22  C3'       16.0460    3.2260   21.5130 C.3   170  FMN170      0.2165
     23  O3'       17.2680    2.7990   20.9540 O.3   170  FMN170     -0.2175
     24  C4'       16.3200    4.2580   22.6040 C.3   170  FMN170      0.2147
     25  O4'       16.9210    5.4210   22.0460 O.3   170  FMN170     -0.2176
     26  C5'       17.2170    3.7200   23.7060 C.3   170  FMN170      0.1892
     27  O5'       17.2230    4.6810   24.7430 O.3   170  FMN170     -0.2674
     28  P         18.3820    4.7080   25.8480 P.3   170  FMN170      0.5327
     29  O1P       19.6950    4.8740   25.1800 O.2   170  FMN170     -0.2224
     30  O2P       18.3680    3.3870   26.5940 O.3   170  FMN170     -0.1145
     31  O3P       18.1050    5.8720   26.8140 O.3   170  FMN170     -0.1145
@<TRIPOS>BOND
     1    19    17    1
     2    19    20    1
     3    23    22    1
     4     3     2    2
     5    14    13    1
     6     1     2    2
     7     1    18    2
     8    17    18    1
     9    17    16    1
    10     2     4    2
    11    15    16    2
    12    15    13    1
    13    18     7    1
    14    16     9    1
    15    13    11    1
    16    22    20    1
    17    22    24    1
    18     4     5    2
    19    12    11    1
    20     7     5    1
    21     7     8    2
    22     9     8    2
    23     9    10    1
    24     5     6    2
    25    11    10    1
    26    20    21    1
    27    25    24    1
    28    24    26    1
    29    26    27    1
    30    27    28    1
    31    29    28    2
    32    28    30    1
    33    28    31    1
