@<TRIPOS>MOLECULE
3et0_ET0_A_1.pdb
 16 17 0 0 0
SMALL
GASTEIGER

@<TRIPOS>ATOM
      1  N1        20.0390   61.8050   15.6640 N.2     1  ET01       -0.2702
      2  C4        20.9820   62.5290   14.9400 C.2     1  ET01        0.0544
      3  C5        19.5740   64.1260   19.7250 C.2     1  ET01        0.3652
      4  C6        22.2920   64.5710   15.0560 C.3     1  ET01        0.0904
      5  C7        20.8640   64.8840   17.6930 C.3     1  ET01        0.0355
      6  C8        21.5680   62.2560   13.7070 C.3     1  ET01        0.0738
      7  C10       22.8750   64.2820   13.8150 C.2     1  ET01        0.1167
      8  O2        18.4750   63.6210   20.0580 O.co2   1  ET01       -0.2456
      9  O1        20.6350   63.8560   20.3290 O.co2   1  ET01       -0.2456
     10  C9        19.6220   65.0970   18.5550 C.3     1  ET01        0.1184
     11  C2        20.6530   63.7110   16.7570 C.2     1  ET01       -0.0220
     12  C3        19.8460   62.5580   16.8000 C.3     1  ET01        0.1470
     13  C1        21.3620   63.6700   15.5670 C.2     1  ET01       -0.0072
     14  C11       22.5040   63.1230   13.1430 C.2     1  ET01        0.0129
     15  O3        23.7940   65.1260   13.2430 O.2     1  ET01       -0.4757
     16  C12       24.4020   64.7860   11.9950 C.3     1  ET01        0.2520
@<TRIPOS>BOND
     1    16    15    1
     2    14     6    1
     3    14     7    2
     4    15     7    1
     5     6     2    1
     6     7     4    1
     7     2    13    1
     8     2     1    2
     9     4    13    1
    10    13    11    2
    11     1    12    1
    12    11    12    1
    13    11     5    1
    14     5    10    1
    15    10     3    1
    16     3     8   ar
    17     3     9   ar
