@<TRIPOS>MOLECULE
3et0_GLC_B_1.pdb
 12 12 0 0 0
SMALL
GASTEIGER

@<TRIPOS>ATOM
      1  C1        39.6680   34.1920   42.4960 C.3     2  GLC2        0.3024
      2  C2        39.6700   35.7540   42.6330 C.3     2  GLC2        0.2434
      3  C3        38.2960   36.3680   42.9870 C.3     2  GLC2        0.2199
      4  C4        37.3190   35.7130   41.9780 C.3     2  GLC2        0.2144
      5  C5        37.2250   34.1950   42.3270 C.3     2  GLC2        0.1836
      6  C6        36.1650   33.5140   41.4230 C.3     2  GLC2        0.2142
      7  O1        40.1780   33.6060   43.6430 O.3     2  GLC2       -0.1869
      8  O2        40.6260   36.1360   43.5730 O.3     2  GLC2       -0.2148
      9  O3        38.3420   37.7440   42.7630 O.3     2  GLC2       -0.2174
     10  O4        36.0620   36.3030   42.1140 O.3     2  GLC2       -0.2176
     11  O5        38.4680   33.5690   42.0780 O.3     2  GLC2       -0.3236
     12  O6        35.9840   32.2070   41.8900 O.3     2  GLC2       -0.2176
@<TRIPOS>BOND
     1     6    12    1
     2     6     5    1
     3     4    10    1
     4     4     5    1
     5     4     3    1
     6    11     5    1
     7    11     1    1
     8     1     2    1
     9     1     7    1
    10     2     3    1
    11     2     8    1
    12     9     3    1
