@<TRIPOS>MOLECULE
3et1_ET1_A_1.pdb
 27 29 0 0 0
SMALL
GASTEIGER

@<TRIPOS>ATOM
      1  C13        8.6800   31.6910   31.5810 C.3     1  ET11        0.1188
      2  C17        8.6120   25.7140   28.9820 C.ar    1  ET11        0.0235
      3  C20       11.0540   24.9010   27.9040 C.ar    1  ET11        0.0383
      4  C21       10.9140   25.2620   29.2470 C.ar    1  ET11        0.0235
      5  N01       10.3010   27.5660   31.5790 N.ar    1  ET11       -0.2081
      6  C02        9.6540   28.8340   31.3640 C.ar    1  ET11        0.0956
      7  C03       10.5090   29.9060   31.4760 C.ar    1  ET11       -0.0011
      8  C04       11.8460   29.3670   31.7760 C.ar    1  ET11        0.0181
      9  C05       11.7020   27.9470   31.8280 C.ar    1  ET11        0.0824
     10  C06       14.2520   29.1970   32.2580 C.ar    1  ET11        0.1388
     11  C07       14.1160   27.7960   32.3150 C.ar    1  ET11        0.0384
     12  C08       12.8690   27.1940   32.1000 C.ar    1  ET11        0.0221
     13  C09       13.1130   29.9630   31.9900 C.ar    1  ET11        0.0381
     14  O10       15.4510   29.8630   32.4640 O.3     1  ET11       -0.4714
     15  C11       16.6710   29.2070   32.1530 C.3     1  ET11        0.2525
     16  C12       10.1680   31.3660   31.3300 C.3     1  ET11        0.0398
     17  C14        7.7020   30.9140   30.7000 C.2     1  ET11        0.3652
     18  S15        9.5970   26.1190   31.4850 S.O2    1  ET11        0.0860
     19  C16        9.7130   25.6740   29.8730 C.ar    1  ET11        0.1279
     20  C18        8.7050   25.3590   27.6210 C.ar    1  ET11        0.0383
     21  C19        9.9350   24.9470   27.0640 C.ar    1  ET11        0.1388
     22  O22        8.2300   26.2730   31.8620 O.2     1  ET11       -0.1476
     23  O23       10.3370   25.2280   32.2970 O.2     1  ET11       -0.1476
     24  O24        6.5240   30.7260   30.9570 O.co2   1  ET11       -0.2456
     25  O25        8.1760   30.3870   29.5400 O.co2   1  ET11       -0.2456
     26  O26       10.0940   24.5860   25.7430 O.3     1  ET11       -0.4714
     27  C27       11.4230   24.4330   25.2590 C.3     1  ET11        0.2525
@<TRIPOS>BOND
     1    27    26    1
     2    26    21    1
     3    21    20   ar
     4    21     3   ar
     5    20     2   ar
     6     3     4   ar
     7     2    19   ar
     8     4    19   ar
     9    25    17   ar
    10    19    18    1
    11    17    24   ar
    12    17     1    1
    13    16     7    1
    14    16     1    1
    15     6     7   ar
    16     6     5   ar
    17     7     8   ar
    18    18     5    1
    19    18    22    2
    20    18    23    2
    21     5     9   ar
    22     8     9   ar
    23     8    13   ar
    24     9    12   ar
    25    13    10   ar
    26    12    11   ar
    27    15    14    1
    28    10    11   ar
    29    10    14    1
