@<TRIPOS>MOLECULE
3et2_ET1_A_1.pdb
 27 29 0 0 0
SMALL
GASTEIGER

@<TRIPOS>ATOM
      1  C13       35.6650   12.8190   60.2840 C.3     1  ET11        0.1188
      2  C17       30.9150    8.5230   61.0660 C.ar    1  ET11        0.0235
      3  C20       30.8900    6.7310   58.9090 C.ar    1  ET11        0.0383
      4  C21       31.9320    6.8020   59.8140 C.ar    1  ET11        0.0235
      5  N01       34.4150    8.4850   60.9610 N.ar    1  ET11       -0.2081
      6  C02       34.7090    9.9060   60.9670 C.ar    1  ET11        0.0956
      7  C03       35.5460   10.2550   59.9300 C.ar    1  ET11       -0.0011
      8  C04       35.8010    9.0530   59.1300 C.ar    1  ET11        0.0181
      9  C05       35.0770    8.0240   59.7640 C.ar    1  ET11        0.0824
     10  C06       36.5890    7.4880   57.4240 C.ar    1  ET11        0.1388
     11  C07       35.8560    6.4780   58.0590 C.ar    1  ET11        0.0384
     12  C08       35.1230    6.7470   59.2010 C.ar    1  ET11        0.0221
     13  C09       36.5660    8.7730   57.9690 C.ar    1  ET11        0.0381
     14  O10       37.3270    7.2100   56.2780 O.3     1  ET11       -0.4714
     15  C11       36.9700    6.0220   55.5900 C.3     1  ET11        0.2525
     16  C12       36.1790   11.5690   59.5710 C.3     1  ET11        0.0398
     17  C14       36.2140   12.9160   61.7030 C.2     1  ET11        0.3652
     18  S15       33.3630    7.7310   61.9200 S.O2    1  ET11        0.0860
     19  C16       32.0110    7.6270   60.9550 C.ar    1  ET11        0.1279
     20  C18       29.8300    8.4820   60.1700 C.ar    1  ET11        0.0383
     21  C19       29.8050    7.5760   59.0790 C.ar    1  ET11        0.1388
     22  O22       33.1220    8.5490   63.0550 O.2     1  ET11       -0.1476
     23  O23       33.8750    6.4400   62.2040 O.2     1  ET11       -0.1476
     24  O24       37.2790   13.4310   61.9990 O.co2   1  ET11       -0.2456
     25  O25       35.4630   12.3810   62.6940 O.co2   1  ET11       -0.2456
     26  O26       28.7840    7.5040   58.1660 O.3     1  ET11       -0.4714
     27  C27       29.2310    7.4040   56.8140 C.3     1  ET11        0.2525
@<TRIPOS>BOND
     1    15    14    1
     2    14    10    1
     3    27    26    1
     4    10    13   ar
     5    10    11   ar
     6    13     8   ar
     7    11    12   ar
     8    26    21    1
     9     3    21   ar
    10     3     4   ar
    11    21    20   ar
    12     8     9   ar
    13     8     7   ar
    14    12     9   ar
    15    16     7    1
    16    16     1    1
    17     9     5   ar
    18     4    19   ar
    19     7     6   ar
    20    20     2   ar
    21     1    17    1
    22    19     2   ar
    23    19    18    1
    24     5     6   ar
    25     5    18    1
    26    17    24   ar
    27    17    25   ar
    28    18    23    2
    29    18    22    2
