@<TRIPOS>MOLECULE
3et3_ET1_A_1.pdb
 27 29 0 0 0
SMALL
GASTEIGER

@<TRIPOS>ATOM
      1  C13       34.0170   21.7020   74.1640 C.3     1  ET11        0.1188
      2  C17       30.1140   26.1160   72.7910 C.ar    1  ET11        0.0235
      3  C20       27.8120   25.6370   71.2970 C.ar    1  ET11        0.0383
      4  C21       27.9800   25.1270   72.5870 C.ar    1  ET11        0.0235
      5  N01       29.8670   23.2160   74.6630 N.ar    1  ET11       -0.2081
      6  C02       31.2570   22.8490   74.6580 C.ar    1  ET11        0.0956
      7  C03       31.4560   21.5280   74.3300 C.ar    1  ET11       -0.0011
      8  C04       30.1390   20.9350   74.0580 C.ar    1  ET11        0.0181
      9  C05       29.1960   21.9830   74.2540 C.ar    1  ET11        0.0824
     10  C06       28.3430   19.3670   73.4750 C.ar    1  ET11        0.1388
     11  C07       27.4160   20.4040   73.6740 C.ar    1  ET11        0.0384
     12  C08       27.8370   21.6810   74.0500 C.ar    1  ET11        0.0221
     13  C09       29.7010   19.6440   73.6770 C.ar    1  ET11        0.0381
     14  O10       27.9630   18.0830   73.1060 O.3     1  ET11       -0.4714
     15  C11       26.7210   17.9050   72.4390 C.3     1  ET11        0.2525
     16  C12       32.7650   20.7970   74.2560 C.3     1  ET11        0.0398
     17  C14       34.3030   22.5720   75.3920 C.2     1  ET11        0.3652
     18  S15       29.2930   24.6840   74.9350 S.O2    1  ET11        0.0860
     19  C16       29.1050   25.3430   73.4160 C.ar    1  ET11        0.1279
     20  C18       29.9880   26.6470   71.4950 C.ar    1  ET11        0.0383
     21  C19       28.8300   26.4140   70.7300 C.ar    1  ET11        0.1388
     22  O22       30.2630   25.4090   75.6850 O.2     1  ET11       -0.1476
     23  O23       28.0340   24.5410   75.5680 O.2     1  ET11       -0.1476
     24  O24       34.2650   22.1490   76.5340 O.co2   1  ET11       -0.2456
     25  O25       34.6210   23.8880   75.2180 O.co2   1  ET11       -0.2456
     26  O26       28.6440   26.9070   69.4590 O.3     1  ET11       -0.4714
     27  C27       27.5150   26.4120   68.7500 C.3     1  ET11        0.2525
@<TRIPOS>BOND
     1    27    26    1
     2    26    21    1
     3    21     3   ar
     4    21    20   ar
     5     3     4   ar
     6    20     2   ar
     7    15    14    1
     8     4    19   ar
     9     2    19   ar
    10    14    10    1
    11    19    18    1
    12    10    11   ar
    13    10    13   ar
    14    11    12   ar
    15    13     8   ar
    16    12     9   ar
    17     8     9   ar
    18     8     7   ar
    19     1    16    1
    20     1    17    1
    21     9     5   ar
    22    16     7    1
    23     7     6   ar
    24     6     5   ar
    25     5    18    1
    26    18    23    2
    27    18    22    2
    28    25    17   ar
    29    17    24   ar
