@<TRIPOS>MOLECULE
3et7_349_A_1.pdb
 37 41 0 0 0
SMALL
GASTEIGER

@<TRIPOS>ATOM
      1  O32       21.5830   66.1030   21.8780 O.2   999  349999     -0.1528
      2  S30       21.3840   65.2620   20.7320 S.O2  999  349999      0.0630
      3  O31       20.8370   65.5760   19.4620 O.2   999  349999     -0.1528
      4  N33       20.5480   63.8960   21.3040 N.3   999  349999     -0.1555
      5  C34       20.5270   63.3990   22.7220 C.3   999  349999      0.0958
      6  C35       19.2590   62.4560   22.8440 C.3   999  349999      0.0206
      7  C36       19.0590   61.9040   21.4120 C.3   999  349999      0.0206
      8  C37       19.5810   63.0670   20.5130 C.3   999  349999      0.0958
      9  C29       23.0160   64.6640   20.4240 C.ar  999  349999      0.1199
     10  C28       23.2960   63.2900   20.7100 C.ar  999  349999      0.0196
     11  C27       24.5630   62.8190   20.5020 C.ar  999  349999      0.0014
     12  C26       25.4990   63.7790   20.0650 C.ar  999  349999     -0.0002
     13  C25       25.2630   65.1280   19.7900 C.ar  999  349999     -0.0012
     14  C24       23.9640   65.6060   19.9680 C.ar  999  349999      0.0181
     15  C23       23.5770   67.0580   19.7320 C.3   999  349999      0.1425
     16  N22       24.8870   67.7350   19.4920 N.pl3 999  349999     -0.2041
     17  C21       25.3060   68.1770   18.2340 C.2   999  349999      0.2177
     18  N20       24.6050   67.8560   17.1570 N.2   999  349999     -0.3193
     19  C8        25.0440   68.3070   15.9780 C.1   999  349999      0.1709
     20  N7        26.0750   69.1450   15.7700 N.2   999  349999     -0.1683
     21  C6        26.8320   69.4800   16.8270 C.2   999  349999      0.1196
     22  C5        26.4300   68.9500   18.0450 C.2   999  349999      0.1374
     23  C2        27.2140   69.2640   19.2410 C.3   999  349999      0.4237
     24  F4        26.3410   69.8890   20.1270 F     999  349999     -0.1656
     25  F3        27.6710   68.1240   19.9250 F     999  349999     -0.1656
     26  F1        28.3560   69.8960   18.7630 F     999  349999     -0.1656
     27  N9        24.2300   67.9690   14.9630 N.pl3 999  349999     -0.1360
     28  C10       23.1360   67.0770   15.2160 C.2   999  349999      0.0785
     29  C11       23.0750   66.3970   16.3790 C.2   999  349999     -0.0013
     30  C12       22.0130   65.5240   16.5170 C.3   999  349999      0.0870
     31  C13       20.9940   65.2960   15.6410 C.2   999  349999      0.1232
     32  N14       19.8580   64.4620   15.7070 N.2   999  349999     -0.3405
     33  C18       21.0750   65.9850   14.4420 C.2   999  349999      0.0234
     34  C19       22.1170   66.8650   14.2450 C.2   999  349999      0.0161
     35  C17       19.8840   65.5810   13.5620 C.3   999  349999      0.1633
     36  C15       19.1630   64.5920   14.4910 C.1   999  349999      0.1845
     37  O16       18.1410   64.0210   14.1200 O.2   999  349999     -0.2138
@<TRIPOS>BOND
     1    35    33    1
     2    35    36    1
     3    37    36    2
     4    34    33    2
     5    34    28    1
     6    33    31    1
     7    36    32    2
     8    27    28    1
     9    27    19    1
    10    28    29    2
    11    31    32    2
    12    31    30    1
    13    20    19    2
    14    20    21    1
    15    19    18    2
    16    29    30    1
    17    21    22    2
    18    18    17    2
    19    22    17    1
    20    22    23    1
    21    17    16    1
    22    26    23    1
    23    23    25    1
    24    23    24    1
    25     3     2    2
    26    16    15    1
    27    15    14    1
    28    13    14   ar
    29    13    12   ar
    30    14     9   ar
    31    12    11   ar
    32     9    10   ar
    33     9     2    1
    34    11    10   ar
    35     8     4    1
    36     8     7    1
    37     2     4    1
    38     2     1    2
    39     4     5    1
    40     7     6    1
    41     5     6    1
