@<TRIPOS>MOLECULE
3eta_351_A_1.pdb
 40 45 0 0 0
SMALL
GASTEIGER

@<TRIPOS>ATOM
      1  N1        46.2360   21.9090    0.1360 N.3   2001  3512001    -0.1262
      2  C2        47.2360   22.8500    0.6670 C.3   2001  3512001     0.1356
      3  C3        48.1430   22.1140    1.5810 C.ar  2001  3512001    -0.0032
      4  C4        47.7500   21.8290    2.8710 C.ar  2001  3512001    -0.0028
      5  C5        48.6120   21.1490    3.7060 C.ar  2001  3512001    -0.0002
      6  C6        49.8590   20.7520    3.2650 C.ar  2001  3512001     0.0015
      7  C7        50.2320   21.0370    1.9670 C.ar  2001  3512001    -0.0002
      8  C8        49.3810   21.7150    1.1260 C.ar  2001  3512001    -0.0028
      9  C9        50.7740   20.0450    4.1230 C.2   2001  3512001     0.0206
     10  C10       52.1310   20.1630    3.9150 C.2   2001  3512001     0.1095
     11  N11       53.0960   19.5590    4.6090 N.2   2001  3512001    -0.1922
     12  C12       52.5920   18.7810    5.5670 C.1   2001  3512001     0.0353
     13  N13       53.3510   18.0440    6.4250 N.2   2001  3512001    -0.1922
     14  C14       52.5480   17.3600    7.2870 C.2   2001  3512001     0.1102
     15  C15       51.2410   17.6650    6.9820 C.2   2001  3512001     0.0293
     16  C16       50.1400   17.0960    7.7170 C.ar  2001  3512001     0.0035
     17  C17       48.9600   17.7920    7.8470 C.ar  2001  3512001     0.0002
     18  C18       47.9150   17.2340    8.5470 C.ar  2001  3512001     0.0013
     19  C19       48.0410   15.9840    9.1120 C.ar  2001  3512001     0.0167
     20  C20       49.2170   15.2800    8.9870 C.ar  2001  3512001     0.0750
     21  N21       49.3130   14.0090    9.5860 N.am  2001  3512001    -0.1607
     22  C22       49.9640   12.9370    9.0090 C.2   2001  3512001     0.3478
     23  O23       50.3750   12.9180    7.8550 O.2   2001  3512001    -0.2484
     24  N24       50.1000   11.8910    9.9040 N.am  2001  3512001    -0.1576
     25  C25       50.4060   10.5710    9.5270 C.ar  2001  3512001     0.1094
     26  C26       51.4680   10.2900    8.6950 C.ar  2001  3512001     0.0198
     27  C27       51.7470    8.9810    8.3540 C.ar  2001  3512001     0.0015
     28  C28       50.9690    7.9490    8.8360 C.ar  2001  3512001     0.0032
     29  C29       49.9070    8.2230    9.6690 C.ar  2001  3512001     0.0388
     30  C30       49.6410    9.5330   10.0140 C.ar  2001  3512001     0.1605
     31  O31       48.5840    9.8530   10.8430 O.3   2001  3512001    -0.4522
     32  C32       48.4760    9.1490   12.0280 C.ar  2001  3512001     0.1454
     33  C33       49.5880    8.7210   12.7210 C.ar  2001  3512001     0.0375
     34  C34       49.4130    8.0290   13.9030 C.ar  2001  3512001     0.0031
     35  C35       48.1430    7.7750   14.3800 C.ar  2001  3512001     0.0002
     36  C36       47.0380    8.2080   13.6790 C.ar  2001  3512001     0.0031
     37  C37       47.2050    8.9000   12.4990 C.ar  2001  3512001     0.0375
     38  C38       50.2680   15.8450    8.2890 C.ar  2001  3512001     0.0167
     39  C39       51.2650   18.5700    5.8850 C.2   2001  3512001     0.0640
     40  C40       50.3070   19.2300    5.1340 C.2   2001  3512001     0.0116
@<TRIPOS>BOND
     1     1     2    1
     2     2     3    1
     3     8     3   ar
     4     8     7   ar
     5     3     4   ar
     6     7     6   ar
     7     4     5   ar
     8     6     5   ar
     9     6     9    1
    10    10     9    2
    11    10    11    1
    12     9    40    1
    13    11    12    2
    14    40    39    2
    15    12    39    1
    16    12    13    2
    17    39    15    1
    18    13    14    1
    19    15    14    2
    20    15    16    1
    21    16    17   ar
    22    16    38   ar
    23    17    18   ar
    24    23    22    2
    25    38    20   ar
    26    27    26   ar
    27    27    28   ar
    28    18    19   ar
    29    26    25   ar
    30    28    29   ar
    31    20    19   ar
    32    20    21    1
    33    22    21   am
    34    22    24   am
    35    25    24    1
    36    25    30   ar
    37    29    30   ar
    38    30    31    1
    39    31    32    1
    40    32    37   ar
    41    32    33   ar
    42    37    36   ar
    43    33    34   ar
    44    36    35   ar
    45    34    35   ar
