@<TRIPOS>MOLECULE
3etd_NDP_A_1.pdb
 48 52 0 0 0
SMALL
GASTEIGER

@<TRIPOS>ATOM
      1  PA        19.1780   77.5270  138.9480 P.3   551  NDP551      0.2189
      2  O1A       18.6390   78.4610  137.9460 O.2   551  NDP551     -0.5170
      3  O2A       20.5840   77.9880  139.5670 O.3   551  NDP551     -0.4371
      4  O5B       18.3320   78.3270  140.1600 O.3   551  NDP551     -0.3112
      5  C5B       18.5130   79.7460  140.2660 C.3   551  NDP551      0.1813
      6  C4B       17.6650   80.3400  141.4470 C.3   551  NDP551      0.1820
      7  O4B       18.0450   79.7220  142.7480 O.3   551  NDP551     -0.3136
      8  C3B       17.9950   81.8340  141.5330 C.3   551  NDP551      0.2157
      9  O3B       16.7940   82.6030  141.4650 O.3   551  NDP551     -0.2175
     10  C2B       18.6980   81.8730  142.9100 C.3   551  NDP551      0.2314
     11  O2B       18.9220   83.1410  143.5550 O.3   551  NDP551     -0.2630
     12  C1B       17.8580   80.8460  143.6840 C.3   551  NDP551      0.3158
     13  N9A       18.4270   80.6330  145.0540 N.pl3 551  NDP551     -0.1439
     14  C8A       19.6190   80.0350  145.3750 C.3   551  NDP551      0.3377
     15  N7A       19.8080   80.0190  146.6650 N.2   551  NDP551     -0.2095
     16  C5A       18.7450   80.5920  147.2820 C.2   551  NDP551      0.2526
     17  C6A       18.3720   80.8520  148.6460 C.2   551  NDP551      0.4393
     18  N6A       19.2040   80.4880  149.6980 N.pl3 551  NDP551      0.2180
     19  N1A       17.2000   81.4660  148.8960 N.2   551  NDP551      0.0021
     20  C2A       16.3790   81.8290  147.9060 C.3   551  NDP551      0.5254
     21  N3A       16.6750   81.6050  146.6170 N.2   551  NDP551     -0.0055
     22  C4A       17.8370   80.9990  146.2570 C.2   551  NDP551      0.3518
     23  O3        18.3800   76.4810  139.8530 O.3   551  NDP551     -0.2703
     24  PN        18.8300   75.1300  139.3510 P.3   551  NDP551      0.2189
     25  O1N       20.0820   74.5080  139.8170 O.3   551  NDP551     -0.4371
     26  O2N       17.6750   74.1990  138.6810 O.2   551  NDP551     -0.5170
     27  O5D       18.0810   74.7120  140.7520 O.3   551  NDP551     -0.3112
     28  C5D       18.5740   73.4080  141.1400 C.3   551  NDP551      0.1813
     29  C4D       17.9720   72.7990  142.4090 C.3   551  NDP551      0.1799
     30  O4D       16.7500   72.1430  141.9060 O.3   551  NDP551     -0.3327
     31  C3D       18.8930   71.6480  142.8400 C.3   551  NDP551      0.2158
     32  O3D       19.1250   71.6680  144.2530 O.3   551  NDP551     -0.2175
     33  C2D       18.3250   70.3330  142.4280 C.3   551  NDP551      0.2309
     34  O2D       18.2130   69.4120  143.4930 O.3   551  NDP551     -0.2158
     35  C1D       16.9960   70.6710  141.7980 C.3   551  NDP551      0.2263
     36  N1N       17.0340   70.0590  140.4270 N.pl3 551  NDP551     -0.2787
     37  C2N       17.6710   70.6510  139.2940 C.3   551  NDP551      0.1244
     38  C3N       17.5160   70.0780  138.0220 C.2   551  NDP551      0.0544
     39  C7N       18.1420   70.6460  136.8460 C.2   551  NDP551      0.2818
     40  O7N       18.8190   71.6460  136.9480 O.2   551  NDP551     -0.2670
     41  N7N       17.9900   70.0820  135.6170 N.am  551  NDP551     -0.0839
     42  C4N       16.6800   68.8330  137.8380 C.2   551  NDP551      0.0033
     43  C5N       16.2530   68.2070  139.1450 C.2   551  NDP551      0.0157
     44  C6N       16.4370   68.8010  140.3160 C.2   551  NDP551      0.0633
     45  P2B       20.2790   83.8230  142.9220 P.3   551  NDP551      0.5328
     46  O1X       20.0840   84.1310  141.4720 O.2   551  NDP551     -0.2224
     47  O2X       20.6050   85.2180  143.6820 O.3   551  NDP551     -0.1145
     48  O3X       21.5470   82.8240  143.0730 O.3   551  NDP551     -0.1145
@<TRIPOS>BOND
     1    41    39   am
     2    39    40    2
     3    39    38    1
     4    42    38    2
     5    42    43    1
     6     2     1    2
     7    38    37    1
     8    26    24    2
     9     1     3    1
    10     1    23    1
    11     1     4    1
    12    43    44    2
    13    37    36    1
    14    24    25    1
    15    24    23    1
    16    24    27    1
    17     4     5    1
    18     5     6    1
    19    44    36    1
    20    36    35    1
    21    27    28    1
    22    28    29    1
    23     6     8    1
    24     6     7    1
    25     9     8    1
    26    46    45    2
    27     8    10    1
    28    35    30    1
    29    35    33    1
    30    30    29    1
    31    29    31    1
    32    33    31    1
    33    33    34    1
    34     7    12    1
    35    31    32    1
    36    10    11    1
    37    10    12    1
    38    45    48    1
    39    45    11    1
    40    45    47    1
    41    12    13    1
    42    13    14    1
    43    13    22    1
    44    14    15    1
    45    22    21    2
    46    22    16    1
    47    21    20    1
    48    15    16    2
    49    16    17    1
    50    20    19    1
    51    17    19    2
    52    17    18    1
