@<TRIPOS>MOLECULE
3etd_GTP_A_1.pdb
 32 34 0 0 0
SMALL
GASTEIGER

@<TRIPOS>ATOM
      1  PG         4.1740   72.4430  125.5820 P.3   553  GTP553      0.5373
      2  O1G        4.4360   73.4600  126.6400 O.3   553  GTP553     -0.1143
      3  O2G        2.6000   72.0940  125.5780 O.2   553  GTP553     -0.2221
      4  O3G        5.0500   71.1420  125.9170 O.3   553  GTP553     -0.1143
      5  O3B        4.5950   73.1110  124.1560 O.3   553  GTP553     -0.2258
      6  PB         6.1980   73.4000  124.1980 P.3   553  GTP553      0.2277
      7  O1B        6.5930   74.1250  125.4600 O.3   553  GTP553     -0.4368
      8  O2B        6.9580   71.9720  124.1480 O.2   553  GTP553     -0.5168
      9  O3A        6.7070   74.2080  122.8600 O.3   553  GTP553     -0.2700
     10  PA         8.2680   74.4000  123.2010 P.3   553  GTP553      0.2189
     11  O1A        8.3100   74.0760  121.7450 O.2   553  GTP553     -0.5170
     12  O2A        7.8820   75.8720  123.7520 O.3   553  GTP553     -0.4371
     13  O5'        9.7010   75.0150  122.7790 O.3   553  GTP553     -0.3112
     14  C5'       10.4410   74.4950  123.9190 C.3   553  GTP553      0.1813
     15  C4'       11.9410   74.8100  124.0790 C.3   553  GTP553      0.1799
     16  O4'       12.1330   76.2460  124.3040 O.3   553  GTP553     -0.3326
     17  C3'       12.4170   74.0630  125.3430 C.3   553  GTP553      0.2158
     18  O3'       13.5500   73.2200  125.0640 O.3   553  GTP553     -0.2175
     19  C2'       12.7300   75.1370  126.4130 C.3   553  GTP553      0.2310
     20  O2'       14.0650   75.0350  126.9230 O.3   553  GTP553     -0.2158
     21  C1'       12.4840   76.4910  125.7180 C.3   553  GTP553      0.2293
     22  N9        11.4750   77.3130  126.3980 N.pl3 553  GTP553     -0.2354
     23  C8        10.1300   77.0700  126.4910 C.3   553  GTP553      0.2246
     24  N7         9.5500   78.0260  127.1580 N.2   553  GTP553     -0.2322
     25  C5        10.4870   78.9330  127.5320 C.2   553  GTP553      0.2182
     26  C6        10.4600   80.1650  128.2600 C.1   553  GTP553      0.2372
     27  O6         9.4190   80.6110  128.6910 O.2   553  GTP553     -0.2069
     28  N1        11.6390   80.8430  128.4610 N.2   553  GTP553     -0.2485
     29  C2        12.8310   80.3440  127.9670 C.1   553  GTP553      0.2531
     30  N2        13.9900   81.0500  128.1850 N.pl3 553  GTP553     -0.0226
     31  N3        12.8800   79.2030  127.2810 N.2   553  GTP553     -0.3074
     32  C4        11.7360   78.4780  127.0480 C.2   553  GTP553      0.2300
@<TRIPOS>BOND
     1    11    10    2
     2    13    10    1
     3    13    14    1
     4     9    10    1
     5     9     6    1
     6    10    12    1
     7    14    15    1
     8    15    16    1
     9    15    17    1
    10     8     6    2
    11     5     6    1
    12     5     1    1
    13     6     7    1
    14    16    21    1
    15    18    17    1
    16    17    19    1
    17     3     1    2
    18     1     4    1
    19     1     2    1
    20    21    22    1
    21    21    19    1
    22    22    23    1
    23    22    32    1
    24    19    20    1
    25    23    24    1
    26    32    31    2
    27    32    25    1
    28    24    25    2
    29    31    29    2
    30    25    26    1
    31    29    30    1
    32    29    28    2
    33    26    28    2
    34    26    27    2
