@<TRIPOS>MOLECULE
3etd_B1T_A_1.pdb
 19 20 0 0 0
SMALL
GASTEIGER

@<TRIPOS>ATOM
      1  OAA       43.6130   72.0320  122.7200 O.3   552  B1T552     -0.2851
      2  CAP       43.8410   73.0830  123.5520 C.ar  552  B1T552      0.2120
      3  CAN       44.4140   72.8620  124.7990 C.ar  552  B1T552      0.0978
      4 CLAE       44.7010   71.2450  125.3440 Cl    552  B1T552     -0.0789
      5  CAG       44.7070   73.9410  125.6270 C.ar  552  B1T552      0.0261
      6  CAL       44.4220   75.2370  125.2170 C.ar  552  B1T552      0.0592
      7 CLAC       44.7520   76.5670  126.2650 Cl    552  B1T552     -0.0822
      8  CAI       43.8470   75.4580  123.9620 C.ar  552  B1T552      0.0211
      9  CAR       43.5580   74.3820  123.1400 C.ar  552  B1T552      0.0701
     10  SAK       42.7530   74.6630  121.6110 S.3   552  B1T552     -0.0804
     11  CAS       41.1140   74.2440  122.0640 C.ar  552  B1T552      0.0701
     12  CAJ       40.2280   75.2570  122.4220 C.ar  552  B1T552      0.0211
     13  CAM       38.9280   74.9470  122.8030 C.ar  552  B1T552      0.0592
     14 CLAD       37.8310   76.2110  123.2390 Cl    552  B1T552     -0.0822
     15  CAH       38.5150   73.6180  122.8350 C.ar  552  B1T552      0.0261
     16  CAO       39.3930   72.6020  122.4780 C.ar  552  B1T552      0.0978
     17 CLAF       38.8470   70.9610  122.4950 Cl    552  B1T552     -0.0789
     18  CAQ       40.6950   72.9170  122.0890 C.ar  552  B1T552      0.2120
     19  OAB       41.5600   71.9270  121.7440 O.3   552  B1T552     -0.2851
@<TRIPOS>BOND
     1    10    11    1
     2    10     9    1
     3    19    18    1
     4    11    18   ar
     5    11    12   ar
     6    18    16   ar
     7    12    13   ar
     8    16    17    1
     9    16    15   ar
    10     1     2    1
    11    13    15   ar
    12    13    14    1
    13     9     2   ar
    14     9     8   ar
    15     2     3   ar
    16     8     6   ar
    17     3     4    1
    18     3     5   ar
    19     6     5   ar
    20     6     7    1
