@<TRIPOS>MOLECULE
3ete_NDP_A_1.pdb
 48 52 0 0 0
SMALL
GASTEIGER

@<TRIPOS>ATOM
      1  PA        19.7150   77.1530  139.9230 P.3   551  NDP551      0.2189
      2  O1A       19.0710   78.0120  138.9170 O.2   551  NDP551     -0.5170
      3  O2A       21.1270   77.6980  140.5110 O.3   551  NDP551     -0.4371
      4  O5B       18.8680   77.9740  141.1380 O.3   551  NDP551     -0.3112
      5  C5B       19.0040   79.4200  141.2130 C.3   551  NDP551      0.1813
      6  C4B       18.1800   80.0000  142.4350 C.3   551  NDP551      0.1820
      7  O4B       18.6860   79.4370  143.6880 O.3   551  NDP551     -0.3136
      8  C3B       18.4170   81.5270  142.4850 C.3   551  NDP551      0.2157
      9  O3B       17.1440   82.2180  142.4850 O.3   551  NDP551     -0.2175
     10  C2B       19.2100   81.6820  143.8180 C.3   551  NDP551      0.2314
     11  O2B       19.1740   83.0040  144.3430 O.3   551  NDP551     -0.2630
     12  C1B       18.5870   80.5370  144.6860 C.3   551  NDP551      0.3158
     13  N9A       19.4060   80.2310  145.9150 N.pl3 551  NDP551     -0.1439
     14  C8A       20.6680   79.7150  145.9390 C.3   551  NDP551      0.3377
     15  N7A       21.1090   79.5580  147.1660 N.2   551  NDP551     -0.2095
     16  C5A       20.1680   79.9590  148.0230 C.2   551  NDP551      0.2526
     17  C6A       20.0710   80.0260  149.4390 C.2   551  NDP551      0.4393
     18  N6A       21.1140   79.6160  150.2660 N.pl3 551  NDP551      0.2180
     19  N1A       18.9380   80.4960  149.9780 N.2   551  NDP551      0.0021
     20  C2A       17.9090   80.9000  149.2150 C.3   551  NDP551      0.5254
     21  N3A       17.9510   80.8610  147.8850 N.2   551  NDP551     -0.0055
     22  C4A       19.0420   80.4050  147.2440 C.2   551  NDP551      0.3518
     23  O3        18.9970   76.1050  140.8010 O.3   551  NDP551     -0.2703
     24  PN        19.5500   74.8160  140.2810 P.3   551  NDP551      0.2189
     25  O1N       20.8350   74.3080  140.8060 O.3   551  NDP551     -0.4371
     26  O2N       18.5140   73.7820  139.5420 O.2   551  NDP551     -0.5170
     27  O5D       18.7680   74.3180  141.6120 O.3   551  NDP551     -0.3112
     28  C5D       19.2770   73.0410  141.9510 C.3   551  NDP551      0.1813
     29  C4D       18.6230   72.4110  143.1340 C.3   551  NDP551      0.1799
     30  O4D       17.4420   71.7650  142.5200 O.3   551  NDP551     -0.3327
     31  C3D       19.4990   71.2590  143.5960 C.3   551  NDP551      0.2158
     32  O3D       19.6760   71.3170  145.0080 O.3   551  NDP551     -0.2175
     33  C2D       18.9420   69.9280  143.2120 C.3   551  NDP551      0.2309
     34  O2D       18.7860   69.0760  144.3720 O.3   551  NDP551     -0.2158
     35  C1D       17.6290   70.2750  142.5150 C.3   551  NDP551      0.2263
     36  N1N       17.6760   69.6160  141.1540 N.pl3 551  NDP551     -0.2787
     37  C2N       18.2420   70.2210  140.0160 C.3   551  NDP551      0.1244
     38  C3N       18.1480   69.6270  138.7610 C.2   551  NDP551      0.0544
     39  C7N       18.7410   70.2720  137.6090 C.2   551  NDP551      0.2818
     40  O7N       19.3260   71.3410  137.7410 O.2   551  NDP551     -0.2670
     41  N7N       18.6560   69.7090  136.3720 N.am  551  NDP551     -0.0839
     42  C4N       17.4250   68.3050  138.5650 C.2   551  NDP551      0.0033
     43  C5N       17.0110   67.6820  139.8840 C.2   551  NDP551      0.0157
     44  C6N       17.1360   68.3140  141.0560 C.2   551  NDP551      0.0633
     45  P2B       20.6120   83.6880  143.9320 P.3   551  NDP551      0.5328
     46  O1X       20.7810   83.6990  142.4670 O.2   551  NDP551     -0.2224
     47  O2X       20.7020   85.2300  144.4620 O.3   551  NDP551     -0.1145
     48  O3X       21.7960   82.7840  144.5670 O.3   551  NDP551     -0.1145
@<TRIPOS>BOND
     1    41    39   am
     2    39    40    2
     3    39    38    1
     4    42    38    2
     5    42    43    1
     6    38    37    1
     7     2     1    2
     8    26    24    2
     9    43    44    2
    10     1     3    1
    11     1    23    1
    12     1     4    1
    13    37    36    1
    14    24    23    1
    15    24    25    1
    16    24    27    1
    17    44    36    1
    18     4     5    1
    19    36    35    1
    20     5     6    1
    21    27    28    1
    22    28    29    1
    23     6     8    1
    24     6     7    1
    25    46    45    2
    26     9     8    1
    27     8    10    1
    28    35    30    1
    29    35    33    1
    30    30    29    1
    31    29    31    1
    32    33    31    1
    33    33    34    1
    34    31    32    1
    35     7    12    1
    36    10    11    1
    37    10    12    1
    38    45    11    1
    39    45    47    1
    40    45    48    1
    41    12    13    1
    42    13    14    1
    43    13    22    1
    44    14    15    1
    45    15    16    2
    46    22    21    2
    47    22    16    1
    48    21    20    1
    49    16    17    1
    50    20    19    1
    51    17    19    2
    52    17    18    1
