@<TRIPOS>MOLECULE
3ete_H3P_A_1.pdb
 21 22 0 0 0
SMALL
GASTEIGER

@<TRIPOS>ATOM
      1  OAA       43.7780   61.6230  125.3120 O.3   552  H3P552     -0.2860
      2  CAP       43.3430   60.8770  124.2600 C.ar  552  H3P552      0.2033
      3  CAL       43.5450   61.3410  122.9650 C.ar  552  H3P552      0.0971
      4 CLAC       44.3670   62.8380  122.6970 Cl    552  H3P552     -0.0789
      5  CAI       43.0610   60.6080  121.8870 C.ar  552  H3P552      0.0268
      6  CAN       42.3970   59.4170  122.1240 C.ar  552  H3P552      0.0689
      7 CLAE       41.6570   58.5970  120.7950 Cl    552  H3P552     -0.0813
      8  CAR       42.2110   58.9450  123.4220 C.ar  552  H3P552      0.0677
      9 CLAG       41.4060   57.4390  123.6760 Cl    552  H3P552     -0.0816
     10  CAT       42.6700   59.6870  124.5120 C.ar  552  H3P552      0.0335
     11  CAK       42.3210   59.2980  125.9460 C.3   552  H3P552      0.0609
     12  CAU       43.5060   58.7900  126.7780 C.ar  552  H3P552      0.0335
     13  CAS       43.7450   59.3010  128.0440 C.ar  552  H3P552      0.0677
     14 CLAH       43.0240   60.7900  128.5370 Cl    552  H3P552     -0.0816
     15  CAO       44.6530   58.6880  128.9130 C.ar  552  H3P552      0.0689
     16 CLAF       44.8210   59.2640  130.5250 Cl    552  H3P552     -0.0813
     17  CAJ       45.3570   57.5650  128.4910 C.ar  552  H3P552      0.0268
     18  CAM       45.1550   57.0680  127.2160 C.ar  552  H3P552      0.0971
     19 CLAD       45.9950   55.6570  126.6920 Cl    552  H3P552     -0.0789
     20  CAQ       44.2330   57.6830  126.3620 C.ar  552  H3P552      0.2033
     21  OAB       44.0730   57.2040  125.1080 O.3   552  H3P552     -0.2860
@<TRIPOS>BOND
     1     7     6    1
     2     5     6   ar
     3     5     3   ar
     4     6     8   ar
     5     4     3    1
     6     3     2   ar
     7     8     9    1
     8     8    10   ar
     9     2    10   ar
    10     2     1    1
    11    10    11    1
    12    21    20    1
    13    11    12    1
    14    20    12   ar
    15    20    18   ar
    16    19    18    1
    17    12    13   ar
    18    18    17   ar
    19    13    14    1
    20    13    15   ar
    21    17    15   ar
    22    15    16    1
