@<TRIPOS>MOLECULE
3ete_GTP_A_1.pdb
 32 34 0 0 0
SMALL
GASTEIGER

@<TRIPOS>ATOM
      1  PG         4.5580   72.1190  124.4950 P.3   553  GTP553      0.5373
      2  O1G        3.7770   73.3810  124.2400 O.3   553  GTP553     -0.1143
      3  O2G        4.5130   71.3000  123.0950 O.2   553  GTP553     -0.2221
      4  O3G        3.8610   71.2650  125.6910 O.3   553  GTP553     -0.1143
      5  O3B        6.1220   72.5290  124.7840 O.3   553  GTP553     -0.2258
      6  PB         6.4700   73.2770  126.2230 P.3   553  GTP553      0.2277
      7  O1B        5.7110   74.5260  126.4210 O.2   553  GTP553     -0.5168
      8  O2B        6.2190   72.3180  127.5080 O.3   553  GTP553     -0.4368
      9  O3A        8.0240   73.5770  126.0190 O.3   553  GTP553     -0.2700
     10  PA         8.7750   74.2090  127.2890 P.3   553  GTP553      0.2189
     11  O1A        8.1130   75.4170  127.8570 O.2   553  GTP553     -0.5170
     12  O2A        8.8970   73.0680  128.3960 O.3   553  GTP553     -0.4371
     13  O5'       10.2440   74.4710  126.6650 O.3   553  GTP553     -0.3112
     14  C5'       11.2090   75.0050  127.5400 C.3   553  GTP553      0.1813
     15  C4'       12.4010   75.1120  126.5970 C.3   553  GTP553      0.1799
     16  O4'       12.1010   76.0150  125.4730 O.3   553  GTP553     -0.3326
     17  C3'       13.6940   75.6450  127.2460 C.3   553  GTP553      0.2158
     18  O3'       14.7840   74.7960  126.8790 O.3   553  GTP553     -0.2175
     19  C2'       13.8410   77.0990  126.7300 C.3   553  GTP553      0.2310
     20  O2'       15.0680   77.2460  125.9750 O.3   553  GTP553     -0.2158
     21  C1'       12.5790   77.3480  125.8510 C.3   553  GTP553      0.2293
     22  N9        11.4810   78.1240  126.5390 N.pl3 553  GTP553     -0.2354
     23  C8        10.2480   78.3300  125.9990 C.3   553  GTP553      0.2246
     24  N7         9.4970   79.0180  126.7840 N.2   553  GTP553     -0.2322
     25  C5        10.1760   79.3200  127.8890 C.2   553  GTP553      0.2182
     26  C6         9.8580   80.0470  129.0710 C.1   553  GTP553      0.2372
     27  O6         8.7560   80.5580  129.2310 O.2   553  GTP553     -0.2069
     28  N1        10.8110   80.1610  130.0270 N.2   553  GTP553     -0.2485
     29  C2        12.0470   79.5910  129.8490 C.1   553  GTP553      0.2531
     30  N2        12.9680   79.7210  130.8220 N.pl3 553  GTP553     -0.0226
     31  N3        12.3590   78.9090  128.7630 N.2   553  GTP553     -0.3074
     32  C4        11.4700   78.7510  127.7700 C.2   553  GTP553      0.2300
@<TRIPOS>BOND
     1     3     1    2
     2     2     1    1
     3     1     5    1
     4     1     4    1
     5     5     6    1
     6    16    21    1
     7    16    15    1
     8    21    22    1
     9    21    19    1
    10    20    19    1
    11    23    22    1
    12    23    24    1
    13     9     6    1
    14     9    10    1
    15     6     7    2
    16     6     8    1
    17    22    32    1
    18    15    17    1
    19    15    14    1
    20    13    10    1
    21    13    14    1
    22    19    17    1
    23    24    25    2
    24    18    17    1
    25    10    11    2
    26    10    12    1
    27    32    25    1
    28    32    31    2
    29    25    26    1
    30    31    29    2
    31    26    27    2
    32    26    28    2
    33    29    28    2
    34    29    30    1
