@<TRIPOS>MOLECULE
3etg_GTP_A_1.pdb
 32 34 0 0 0
SMALL
GASTEIGER

@<TRIPOS>ATOM
      1  PG         4.9690   73.7110  127.6280 P.3   553  GTP553      0.5373
      2  O1G        5.2200   75.0470  128.2120 O.3   553  GTP553     -0.1143
      3  O2G        3.6820   73.0700  128.3820 O.3   553  GTP553     -0.1143
      4  O3G        6.3440   72.9080  127.8050 O.2   553  GTP553     -0.2221
      5  O3B        4.6020   73.8590  126.0320 O.3   553  GTP553     -0.2258
      6  PB         6.0060   74.3490  125.4850 P.3   553  GTP553      0.2277
      7  O1B        6.5560   75.4190  126.4040 O.3   553  GTP553     -0.4368
      8  O2B        6.9100   73.0560  125.4820 O.2   553  GTP553     -0.5168
      9  O3A        6.0710   74.8410  123.9500 O.3   553  GTP553     -0.2700
     10  PA         7.5810   75.2870  123.9290 P.3   553  GTP553      0.2189
     11  O1A        7.5390   74.5470  122.7320 O.2   553  GTP553     -0.5170
     12  O2A        7.0180   76.7830  124.1510 O.3   553  GTP553     -0.4371
     13  O5'        8.9160   75.9170  123.2680 O.3   553  GTP553     -0.3112
     14  C5'        9.4250   75.5760  124.5100 C.3   553  GTP553      0.1813
     15  C4'       10.7360   75.7440  125.2350 C.3   553  GTP553      0.1799
     16  O4'       10.8130   77.1740  125.6710 O.3   553  GTP553     -0.3326
     17  C3'       10.2750   74.9110  126.3680 C.3   553  GTP553      0.2158
     18  O3'       11.1040   73.8130  126.6080 O.3   553  GTP553     -0.2175
     19  C2'       10.0590   75.8140  127.5860 C.3   553  GTP553      0.2310
     20  O2'       10.7100   75.3010  128.7120 O.3   553  GTP553     -0.2158
     21  C1'       10.5580   77.2270  127.1450 C.3   553  GTP553      0.2293
     22  N9         9.6450   78.3320  127.5740 N.pl3 553  GTP553     -0.2354
     23  C8         8.4300   78.6330  127.0420 C.3   553  GTP553      0.2246
     24  N7         7.8990   79.6710  127.6370 N.2   553  GTP553     -0.2322
     25  C5         8.7340   80.1220  128.5980 C.2   553  GTP553      0.2182
     26  C6         8.7090   81.2070  129.5410 C.1   553  GTP553      0.2372
     27  O6         7.7660   81.9800  129.5710 O.2   553  GTP553     -0.2069
     28  N1         9.7800   81.3620  130.4050 N.2   553  GTP553     -0.2485
     29  C2        10.8460   80.4820  130.3460 C.1   553  GTP553      0.2531
     30  N2        11.8960   80.6310  131.1850 N.pl3 553  GTP553     -0.0226
     31  N3        10.8830   79.4810  129.4720 N.2   553  GTP553     -0.3074
     32  C4         9.8750   79.2610  128.5890 C.2   553  GTP553      0.2300
@<TRIPOS>BOND
     1    11    10    2
     2    13    10    1
     3    13    14    1
     4    10     9    1
     5    10    12    1
     6     9     6    1
     7    14    15    1
     8    15    16    1
     9    15    17    1
    10     8     6    2
    11     6     5    1
    12     6     7    1
    13    16    21    1
    14     5     1    1
    15    17    18    1
    16    17    19    1
    17    23    22    1
    18    23    24    1
    19    21    22    1
    20    21    19    1
    21    22    32    1
    22    19    20    1
    23     1     4    2
    24     1     2    1
    25     1     3    1
    26    24    25    2
    27    32    25    1
    28    32    31    2
    29    25    26    1
    30    31    29    2
    31    26    27    2
    32    26    28    2
    33    29    28    2
    34    29    30    1
