@<TRIPOS>MOLECULE
3etg_GWD_A_1.pdb
 21 23 0 0 0
SMALL
GASTEIGER

@<TRIPOS>ATOM
      1  CAH       41.4590   70.9400  129.8540 C.ar  552  GWD552      0.0100
      2  CAO       42.0650   71.1800  131.0820 C.ar  552  GWD552      0.0739
      3 BRAC       43.0170   69.7960  131.9530 Br    552  GWD552     -0.0457
      4  CAM       42.0700   72.4680  131.6030 C.ar  552  GWD552      0.2079
      5  OAB       42.6370   72.6920  132.8220 O.3   552  GWD552     -0.2855
      6  CAP       41.4910   73.5080  130.8940 C.ar  552  GWD552      0.0739
      7 BRAD       41.5610   75.2740  131.5680 Br    552  GWD552     -0.0457
      8  CAI       40.8900   73.2660  129.6570 C.ar  552  GWD552      0.0100
      9  CAQ       40.8750   71.9740  129.1340 C.ar  552  GWD552      0.0019
     10  CAF       40.3410   71.6470  127.8980 C.2   552  GWD552      0.0128
     11  CAS       39.7030   72.4360  126.9410 C.2   552  GWD552      0.0969
     12  CAU       39.4810   73.8100  126.8400 C.2   552  GWD552      0.0393
     13  CAK       39.7060   74.9080  127.6640 C.2   552  GWD552     -0.0083
     14  CAN       39.3340   76.1850  127.2550 C.3   552  GWD552      0.0967
     15  IAE       39.5170   77.8130  128.5690 I     552  GWD552     -0.0657
     16  CAG       38.7560   76.3750  126.0030 C.2   552  GWD552     -0.0090
     17  CAJ       38.5260   75.2820  125.1790 C.2   552  GWD552      0.0296
     18  CAT       38.8820   73.9960  125.5930 C.2   552  GWD552      0.1445
     19  NAL       38.7530   72.8290  124.9710 N.2   552  GWD552     -0.3329
     20  CAR       39.2420   71.8750  125.7590 C.1   552  GWD552      0.2047
     21  OAA       39.3370   70.6830  125.4760 O.2   552  GWD552     -0.2093
@<TRIPOS>BOND
     1    19    18    2
     2    19    20    2
     3    17    18    1
     4    17    16    2
     5    21    20    2
     6    18    12    1
     7    20    11    1
     8    16    14    1
     9    12    11    1
    10    12    13    2
    11    11    10    2
    12    14    13    1
    13    14    15    1
    14    10     9    1
    15     9     8   ar
    16     9     1   ar
    17     8     6   ar
    18     1     2   ar
    19     6     7    1
    20     6     4   ar
    21     2     4   ar
    22     2     3    1
    23     4     5    1
