@<TRIPOS>MOLECULE
3etg_NDP_A_1.pdb
 48 52 0 0 0
SMALL
GASTEIGER

@<TRIPOS>ATOM
      1  PA        18.7780   77.4180  140.5930 P.3   551  NDP551      0.2189
      2  O1A       18.2920   78.3510  139.5800 O.2   551  NDP551     -0.5170
      3  O2A       20.1690   77.9030  141.2860 O.3   551  NDP551     -0.4371
      4  O5B       17.8840   78.1840  141.7620 O.3   551  NDP551     -0.3112
      5  C5B       18.0960   79.5810  141.9000 C.3   551  NDP551      0.1813
      6  C4B       17.2530   80.1650  143.0750 C.3   551  NDP551      0.1820
      7  O4B       17.6270   79.5800  144.3690 O.3   551  NDP551     -0.3136
      8  C3B       17.5820   81.6390  143.1350 C.3   551  NDP551      0.2157
      9  O3B       16.3600   82.3740  143.0050 O.3   551  NDP551     -0.2175
     10  C2B       18.2580   81.7700  144.5270 C.3   551  NDP551      0.2314
     11  O2B       18.2240   83.0990  145.0340 O.3   551  NDP551     -0.2630
     12  C1B       17.4800   80.6910  145.3200 C.3   551  NDP551      0.3158
     13  N9A       18.0880   80.3820  146.6710 N.pl3 551  NDP551     -0.1439
     14  C8A       19.3180   79.8330  146.9430 C.3   551  NDP551      0.3377
     15  N7A       19.5020   79.7060  148.2360 N.2   551  NDP551     -0.2095
     16  C5A       18.4210   80.1510  148.8870 C.2   551  NDP551      0.2526
     17  C6A       18.0340   80.2620  150.2630 C.2   551  NDP551      0.4393
     18  N6A       18.8660   79.8480  151.2960 N.pl3 551  NDP551      0.2180
     19  N1A       16.8260   80.7750  150.5400 N.2   551  NDP551      0.0021
     20  C2A       15.9900   81.1830  149.5800 C.3   551  NDP551      0.5254
     21  N3A       16.3060   81.1020  148.2920 N.2   551  NDP551     -0.0055
     22  C4A       17.4890   80.6010  147.8930 C.2   551  NDP551      0.3518
     23  O3        17.9210   76.4200  141.4290 O.3   551  NDP551     -0.2703
     24  PN        18.4330   75.0530  141.0460 P.3   551  NDP551      0.2189
     25  O1N       19.5850   74.4970  141.7520 O.3   551  NDP551     -0.4371
     26  O2N       17.4560   74.0560  140.2500 O.2   551  NDP551     -0.5170
     27  O5D       17.4720   74.6980  142.3340 O.3   551  NDP551     -0.3112
     28  C5D       17.8990   73.4390  142.8050 C.3   551  NDP551      0.1813
     29  C4D       17.2020   72.7960  143.9710 C.3   551  NDP551      0.1799
     30  O4D       16.0580   72.1050  143.3560 O.3   551  NDP551     -0.3327
     31  C3D       18.1930   71.7160  144.3710 C.3   551  NDP551      0.2158
     32  O3D       18.4630   71.7160  145.7670 O.3   551  NDP551     -0.2175
     33  C2D       17.7210   70.3860  143.9640 C.3   551  NDP551      0.2309
     34  O2D       17.7190   69.4540  145.0350 O.3   551  NDP551     -0.2158
     35  C1D       16.3520   70.6400  143.3730 C.3   551  NDP551      0.2263
     36  N1N       16.3810   69.9620  142.0780 N.pl3 551  NDP551     -0.2787
     37  C2N       16.9870   70.5120  140.9200 C.3   551  NDP551      0.1244
     38  C3N       16.8470   69.8650  139.7140 C.2   551  NDP551      0.0544
     39  C7N       17.4390   70.3810  138.5150 C.2   551  NDP551      0.2818
     40  O7N       18.0870   71.4040  138.5380 O.2   551  NDP551     -0.2670
     41  N7N       17.2860   69.7310  137.3400 N.am  551  NDP551     -0.0839
     42  C4N       16.0540   68.5890  139.6110 C.2   551  NDP551      0.0033
     43  C5N       15.6680   68.0100  140.9510 C.2   551  NDP551      0.0157
     44  C6N       15.8320   68.6730  142.0650 C.2   551  NDP551      0.0633
     45  P2B       19.7440   83.6520  144.9370 P.3   551  NDP551      0.5328
     46  O1X       20.2170   83.6290  143.5290 O.2   551  NDP551     -0.2224
     47  O2X       19.8040   85.1690  145.5020 O.3   551  NDP551     -0.1145
     48  O3X       20.7130   82.7240  145.8390 O.3   551  NDP551     -0.1145
@<TRIPOS>BOND
     1    41    39   am
     2    39    40    2
     3    39    38    1
     4     2     1    2
     5    42    38    2
     6    42    43    1
     7    38    37    1
     8    26    24    2
     9     1     3    1
    10     1    23    1
    11     1     4    1
    12    37    36    1
    13    43    44    2
    14    24    23    1
    15    24    25    1
    16    24    27    1
    17     4     5    1
    18     5     6    1
    19    44    36    1
    20    36    35    1
    21    27    28    1
    22    28    29    1
    23     9     8    1
    24     6     8    1
    25     6     7    1
    26     8    10    1
    27    30    35    1
    28    30    29    1
    29    35    33    1
    30    46    45    2
    31    33    31    1
    32    33    34    1
    33    29    31    1
    34     7    12    1
    35    31    32    1
    36    10    11    1
    37    10    12    1
    38    45    11    1
    39    45    47    1
    40    45    48    1
    41    12    13    1
    42    13    14    1
    43    13    22    1
    44    14    15    1
    45    22    21    2
    46    22    16    1
    47    15    16    2
    48    21    20    1
    49    16    17    1
    50    20    19    1
    51    17    19    2
    52    17    18    1
