@<TRIPOS>MOLECULE
3eth_ATP_A_1.pdb
 31 33 0 0 0
SMALL
GASTEIGER

@<TRIPOS>ATOM
      1  PG        13.3600   22.5940   47.0800 P.3   400  ATP400      0.5373
      2  O1G       12.0700   23.3880   46.9280 O.3   400  ATP400     -0.1143
      3  O2G       13.5170   21.4660   45.9560 O.2   400  ATP400     -0.2221
      4  O3G       13.4600   21.9660   48.4330 O.3   400  ATP400     -0.1143
      5  PB        15.5540   23.9180   46.0070 P.3   400  ATP400      0.2277
      6  O1B       16.9110   23.5570   46.6370 O.3   400  ATP400     -0.4368
      7  O2B       15.1400   23.2550   44.7200 O.2   400  ATP400     -0.5168
      8  O3B       14.3950   23.8070   47.0680 O.3   400  ATP400     -0.2258
      9  PA        14.5760   26.5540   45.1460 P.3   400  ATP400      0.2189
     10  O1A       15.1820   26.8380   43.7860 O.2   400  ATP400     -0.5170
     11  O2A       13.2400   25.9070   45.0180 O.3   400  ATP400     -0.4371
     12  O3A       15.6100   25.4850   45.7410 O.3   400  ATP400     -0.2700
     13  O5'       14.8160   27.7890   46.1690 O.3   400  ATP400     -0.3112
     14  C5'       14.3430   27.7720   47.5590 C.3   400  ATP400      0.1813
     15  C4'       13.6590   29.1090   47.8540 C.3   400  ATP400      0.1821
     16  O4'       14.6580   30.1000   47.5170 O.3   400  ATP400     -0.3135
     17  C3'       12.5450   29.5500   46.8890 C.3   400  ATP400      0.2184
     18  O3'       11.2800   28.9700   47.2720 O.3   400  ATP400     -0.2174
     19  C2'       12.5840   31.0550   47.1460 C.3   400  ATP400      0.2570
     20  O2'       12.2680   31.3370   48.5030 O.3   400  ATP400     -0.2130
     21  C1'       14.0790   31.3090   47.1150 C.3   400  ATP400      0.3186
     22  N9        14.5050   31.5610   45.7420 N.pl3 400  ATP400     -0.1439
     23  C8        14.8830   30.6280   44.8170 C.3   400  ATP400      0.3377
     24  N7        15.1640   31.2230   43.6460 N.2   400  ATP400     -0.2095
     25  C5        14.9670   32.6010   43.8250 C.2   400  ATP400      0.2526
     26  C6        15.1550   33.7070   42.9330 C.2   400  ATP400      0.4393
     27  N6        15.5710   33.6600   41.7400 N.pl3 400  ATP400      0.2180
     28  N1        14.9070   34.8850   43.5950 N.2   400  ATP400      0.0021
     29  C2        14.5220   35.0100   44.9040 C.3   400  ATP400      0.5254
     30  N3        14.3300   34.0190   45.7250 N.2   400  ATP400     -0.0055
     31  C4        14.5930   32.8210   45.1450 C.2   400  ATP400      0.3518
@<TRIPOS>BOND
     1    27    26    1
     2    26    28    2
     3    26    25    1
     4    28    29    1
     5    24    25    2
     6    24    23    1
     7    10     9    2
     8    25    31    1
     9     7     5    2
    10    23    22    1
    11    29    30    1
    12    11     9    1
    13    31    30    2
    14    31    22    1
    15     9    12    1
    16     9    13    1
    17    12     5    1
    18    22    21    1
    19     3     1    2
    20     5     6    1
    21     5     8    1
    22    13    14    1
    23    17    19    1
    24    17    18    1
    25    17    15    1
    26     2     1    1
    27     8     1    1
    28     1     4    1
    29    21    19    1
    30    21    16    1
    31    19    20    1
    32    16    15    1
    33    14    15    1
