@<TRIPOS>MOLECULE
3etj_ADP_A_1.pdb
 27 29 0 0 0
SMALL
GASTEIGER

@<TRIPOS>ATOM
      1  PB       -28.6070   12.1280   71.4560 P.3   400  ADP400      0.5373
      2  O1B      -29.3090   12.4820   70.1690 O.2   400  ADP400     -0.2221
      3  O2B      -27.2840   11.2190   71.2250 O.3   400  ADP400     -0.1143
      4  O3B      -28.2650   13.3000   72.3390 O.3   400  ADP400     -0.1143
      5  PA       -30.1200    9.7470   72.3120 P.3   400  ADP400      0.2231
      6  O1A      -31.6150    9.7030   72.1480 O.3   400  ADP400     -0.4370
      7  O2A      -29.2680    8.9070   71.4480 O.2   400  ADP400     -0.5169
      8  O3A      -29.6780   11.2690   72.2300 O.3   400  ADP400     -0.2261
      9  O5'      -29.7610    9.2090   73.7660 O.3   400  ADP400     -0.3111
     10  C5'      -28.3830    9.1330   74.1750 C.3   400  ADP400      0.1813
     11  C4'      -28.2290    7.9110   75.0600 C.3   400  ADP400      0.1821
     12  O4'      -29.1260    7.9140   76.2110 O.3   400  ADP400     -0.3135
     13  C3'      -28.5460    6.5840   74.4180 C.3   400  ADP400      0.2184
     14  O3'      -27.4550    6.2530   73.5510 O.3   400  ADP400     -0.2174
     15  C2'      -28.7540    5.7410   75.6950 C.3   400  ADP400      0.2570
     16  O2'      -27.5430    5.4110   76.3890 O.3   400  ADP400     -0.2130
     17  C1'      -29.4960    6.6600   76.6480 C.3   400  ADP400      0.3186
     18  N9       -30.9150    6.5820   76.3050 N.pl3 400  ADP400     -0.1439
     19  C8       -31.5960    7.3090   75.3810 C.3   400  ADP400      0.3377
     20  N7       -32.8940    6.9810   75.2940 N.2   400  ADP400     -0.2095
     21  C5       -33.0500    5.9890   76.2480 C.2   400  ADP400      0.2526
     22  C6       -34.1550    5.2070   76.7110 C.2   400  ADP400      0.4393
     23  N6       -35.3630    5.2560   76.3940 N.pl3 400  ADP400      0.2180
     24  N1       -33.9070    4.2900   77.6940 N.2   400  ADP400      0.0021
     25  C2       -32.6570    4.1220   78.2550 C.3   400  ADP400      0.5254
     26  N3       -31.6210    4.8400   77.8800 N.2   400  ADP400     -0.0055
     27  C4       -31.8410    5.7110   76.8570 C.2   400  ADP400      0.3518
@<TRIPOS>BOND
     1     2     1    2
     2     3     1    1
     3     7     5    2
     4     1     8    1
     5     1     4    1
     6     6     5    1
     7     8     5    1
     8     5     9    1
     9    14    13    1
    10     9    10    1
    11    10    11    1
    12    13    11    1
    13    13    15    1
    14    11    12    1
    15    20    19    1
    16    20    21    2
    17    19    18    1
    18    15    16    1
    19    15    17    1
    20    12    17    1
    21    21    22    1
    22    21    27    1
    23    18    17    1
    24    18    27    1
    25    23    22    1
    26    22    24    2
    27    27    26    2
    28    24    25    1
    29    26    25    1
