@<TRIPOS>MOLECULE
3etl_ANP_A_1.pdb
 31 33 0 0 0
SMALL
GASTEIGER

@<TRIPOS>ATOM
      1  PG        25.0740   58.5100  -10.0010 P.3   401  ANP401      0.4884
      2  O1G       25.3440   58.3490   -8.6170 O.3   401  ANP401     -0.1240
      3  O2G       23.6070   58.3380  -10.2420 O.3   401  ANP401     -0.1240
      4  O3G       25.4540   59.8360  -10.4180 O.2   401  ANP401     -0.2331
      5  PB        25.7320   55.8090  -10.6920 P.3   401  ANP401      0.4669
      6  O1B       24.7230   55.5130   -9.6420 O.3   401  ANP401     -0.1253
      7  O2B       27.0090   55.2720  -10.2750 O.2   401  ANP401     -0.2351
      8  N3B       25.9100   57.3660  -10.8870 N.3   401  ANP401     -0.0163
      9  PA        24.0450   54.0980  -12.2380 P.3   401  ANP401      0.2220
     10  O1A       24.1480   52.9800  -11.1970 O.3   401  ANP401     -0.4370
     11  O2A       22.7920   54.8480  -12.0190 O.2   401  ANP401     -0.5170
     12  O3A       25.3220   55.1060  -12.1030 O.3   401  ANP401     -0.2360
     13  O5'       24.0350   53.4140  -13.7470 O.3   401  ANP401     -0.3111
     14  C5'       23.8550   54.2450  -15.0100 C.3   401  ANP401      0.1813
     15  C4'       23.9780   53.4600  -16.0950 C.3   401  ANP401      0.1821
     16  O4'       23.2370   52.1890  -15.8850 O.3   401  ANP401     -0.3135
     17  C3'       23.2050   54.1180  -17.2800 C.3   401  ANP401      0.2184
     18  O3'       23.7210   55.3050  -17.7550 O.3   401  ANP401     -0.2174
     19  C2'       22.6540   52.9410  -18.1370 C.3   401  ANP401      0.2570
     20  O2'       23.5860   52.7050  -19.3380 O.3   401  ANP401     -0.2130
     21  C1'       22.6990   51.7410  -17.1660 C.3   401  ANP401      0.3186
     22  N9        21.4410   51.2680  -17.0280 N.pl3 401  ANP401     -0.1439
     23  C8        20.4810   51.6650  -16.0800 C.3   401  ANP401      0.3377
     24  N7        19.3940   51.0020  -16.2660 N.2   401  ANP401     -0.2095
     25  C5        19.5670   50.1590  -17.3110 C.2   401  ANP401      0.2526
     26  C6        18.7540   49.2320  -17.9480 C.2   401  ANP401      0.4393
     27  N6        17.4800   49.0350  -17.5300 N.pl3 401  ANP401      0.2180
     28  N1        19.2700   48.4990  -19.0420 N.2   401  ANP401      0.0021
     29  C2        20.6010   48.7020  -19.4910 C.3   401  ANP401      0.5254
     30  N3        21.4210   49.6060  -18.8910 N.2   401  ANP401     -0.0055
     31  C4        20.8540   50.3180  -17.7920 C.2   401  ANP401      0.3518
@<TRIPOS>BOND
     1    29    28    1
     2    29    30    1
     3    20    19    1
     4    28    26    2
     5    30    31    2
     6    19    17    1
     7    19    21    1
     8    26    27    1
     9    26    25    1
    10    31    25    1
    11    31    22    1
    12    18    17    1
    13    25    24    2
    14    17    15    1
    15    21    22    1
    16    21    16    1
    17    22    23    1
    18    24    23    1
    19    15    16    1
    20    15    14    1
    21    14    13    1
    22    13     9    1
    23     9    12    1
    24     9    11    2
    25     9    10    1
    26    12     5    1
    27     8     5    1
    28     8     1    1
    29     5     7    2
    30     5     6    1
    31     4     1    2
    32     3     1    1
    33     1     2    1
