@<TRIPOS>MOLECULE
3etm_CDP_A_1.pdb
 25 26 0 0 0
SMALL
GASTEIGER

@<TRIPOS>ATOM
      1  O3B       51.9610   11.5270   30.6370 O.2   201  CDP201     -0.2221
      2  PB        51.5490   12.0710   31.9780 P.3   201  CDP201      0.5373
      3  O1B       52.3240   13.2800   32.4310 O.3   201  CDP201     -0.1143
      4  O2B       50.0740   12.2750   32.1240 O.3   201  CDP201     -0.1143
      5  O3A       51.8060   10.7860   32.9620 O.3   201  CDP201     -0.2261
      6  PA        53.0460   10.3830   33.9490 P.3   201  CDP201      0.2231
      7  O1A       52.4530   10.0430   35.2940 O.3   201  CDP201     -0.4370
      8  O2A       54.2300   11.2740   33.7890 O.2   201  CDP201     -0.5169
      9  O5'       53.5180    8.9940   33.3340 O.3   201  CDP201     -0.3111
     10  C5'       52.9100    8.9470   32.0900 C.3   201  CDP201      0.1813
     11  C4'       53.4560    8.0570   31.0290 C.3   201  CDP201      0.1799
     12  O4'       53.7390    6.7190   31.4400 O.3   201  CDP201     -0.3320
     13  C3'       52.0840    8.0200   30.3980 C.3   201  CDP201      0.2158
     14  O3'       51.9440    9.0010   29.3650 O.3   201  CDP201     -0.2175
     15  C2'       51.8220    6.5960   30.0030 C.3   201  CDP201      0.2319
     16  O2'       52.2200    6.4450   28.6410 O.3   201  CDP201     -0.2157
     17  C1'       52.7220    5.8260   30.9610 C.3   201  CDP201      0.2400
     18  N1        51.9740    5.2630   32.0920 N.am  201  CDP201     -0.1778
     19  C2        51.4020    3.9760   31.9790 C.1   201  CDP201      0.2756
     20  O2        51.5450    3.3190   30.9220 O.2   201  CDP201     -0.1925
     21  N3        50.7030    3.4560   33.0050 N.2   201  CDP201     -0.3024
     22  C4        50.5540    4.1700   34.1410 C.2   201  CDP201      0.2346
     23  N4        49.8570    3.6520   35.1810 N.pl3 201  CDP201     -0.0921
     24  C5        51.1070    5.4370   34.2670 C.2   201  CDP201      0.0687
     25  C6        51.8170    5.9770   33.2100 C.2   201  CDP201      0.0836
@<TRIPOS>BOND
     1    16    15    1
     2    14    13    1
     3    15    13    1
     4    15    17    1
     5    13    11    1
     6     1     2    2
     7    20    19    2
     8    17    12    1
     9    17    18    1
    10    11    12    1
    11    11    10    1
    12     2     4    1
    13     2     3    1
    14     2     5    1
    15    19    18   am
    16    19    21    2
    17    10     9    1
    18    18    25    1
    19     5     6    1
    20    21    22    2
    21    25    24    2
    22     9     6    1
    23     8     6    2
    24     6     7    1
    25    22    24    1
    26    22    23    1
