@<TRIPOS>MOLECULE
3etn_CMK_A_1.pdb
 36 38 0 0 0
SMALL
GASTEIGER

@<TRIPOS>ATOM
      1  N1C       67.8670   74.5170   29.0640 N.am  500  CMK500     -0.1778
      2  C2C       67.9290   75.4710   30.0030 C.1   500  CMK500      0.2756
      3  N3C       68.7440   75.3600   31.0650 N.2   500  CMK500     -0.3024
      4  C4C       69.5200   74.2740   31.2160 C.2   500  CMK500      0.2346
      5  C5C       69.4770   73.2700   30.2580 C.2   500  CMK500      0.0687
      6  C6C       68.6450   73.4260   29.1750 C.2   500  CMK500      0.0836
      7  O2C       67.2230   76.4790   29.8990 O.2   500  CMK500     -0.1925
      8  N4C       70.3170   74.1840   32.2960 N.pl3 500  CMK500     -0.0921
      9  C1'       66.9840   74.7000   27.9090 C.3   500  CMK500      0.2400
     10  C2'       67.7540   74.8970   26.6050 C.3   500  CMK500      0.2319
     11  O2'       68.1940   76.2370   26.3820 O.3   500  CMK500     -0.2157
     12  C3'       66.7640   74.4370   25.5590 C.3   500  CMK500      0.2158
     13  C4'       65.9670   73.3640   26.2760 C.3   500  CMK500      0.1799
     14  O4'       66.1860   73.5410   27.6870 O.3   500  CMK500     -0.3320
     15  O3'       65.8920   75.4940   25.1550 O.3   500  CMK500     -0.2175
     16  C5'       66.3670   71.9380   25.8860 C.3   500  CMK500      0.1813
     17  O5'       67.7850   71.7870   25.9380 O.3   500  CMK500     -0.3113
     18  PA        68.4520   70.4290   26.5200 P.3   500  CMK500      0.2162
     19  O1A       69.9270   70.7060   26.6280 O.2   500  CMK500     -0.5171
     20  O2A       67.7500   69.8830   27.7500 O.3   500  CMK500     -0.4372
     21  O6        67.4890   70.1140   23.3280 O.3   500  CMK500     -0.3228
     22  C2        68.4610   69.2970   23.9910 C.3   500  CMK500      0.2907
     23  O2        68.1860   69.2850   25.3640 O.3   500  CMK500     -0.2833
     24  C3        68.2520   67.8560   23.5350 C.3   500  CMK500      0.1039
     25  C4        68.1930   67.7360   22.0070 C.3   500  CMK500      0.1901
     26  O4        67.8610   66.4070   21.6370 O.3   500  CMK500     -0.2201
     27  C5        67.2260   68.7430   21.4220 C.3   500  CMK500      0.2118
     28  C6        67.6470   70.1150   21.9220 C.3   500  CMK500      0.1837
     29  C7        66.8110   71.2240   21.3250 C.3   500  CMK500      0.2143
     30  C1        69.8530   69.8160   23.6550 C.2   500  CMK500      0.4155
     31  O1X       70.0090   71.0610   23.6270 O.co2 500  CMK500     -0.2402
     32  O1Y       70.7530   69.0090   23.3120 O.co2 500  CMK500     -0.2402
     33  O5        65.8750   68.4140   21.7470 O.3   500  CMK500     -0.2177
     34  C8        66.9500   72.5440   22.1160 C.3   500  CMK500      0.2174
     35  O8        68.3190   72.8430   22.5060 O.3   500  CMK500     -0.2175
     36  O7        67.2970   71.4040   20.0050 O.3   500  CMK500     -0.2176
@<TRIPOS>BOND
     1    36    29    1
     2    29    28    1
     3    29    34    1
     4    27    33    1
     5    27    28    1
     6    27    25    1
     7    26    25    1
     8    28    21    1
     9    25    24    1
    10    34    35    1
    11    32    30   ar
    12    21    22    1
    13    24    22    1
    14    31    30   ar
    15    30    22    1
    16    22    23    1
    17    15    12    1
    18    23    18    1
    19    12    13    1
    20    12    10    1
    21    16    17    1
    22    16    13    1
    23    17    18    1
    24    13    14    1
    25    11    10    1
    26    18    19    2
    27    18    20    1
    28    10     9    1
    29    14     9    1
    30     9     1    1
    31     1     6    1
    32     1     2   am
    33     6     5    2
    34     7     2    2
    35     2     3    2
    36     5     4    1
    37     3     4    2
    38     4     8    1
