@<TRIPOS>MOLECULE
3etq_CMP_A_1.pdb
 22 25 0 0 0
SMALL
GASTEIGER

@<TRIPOS>ATOM
      1  P        -30.6050  -20.7490   33.5860 P.3     1  CMP1        0.2141
      2  O1P      -30.7660  -21.5880   32.3410 O.2     1  CMP1       -0.5172
      3  O2P      -31.3800  -19.4670   33.5790 O.3     1  CMP1       -0.4373
      4  O5'      -31.0230  -21.6570   34.8490 O.3     1  CMP1       -0.3114
      5  C5'      -30.2540  -22.8290   35.1440 C.3     1  CMP1        0.1812
      6  C4'      -28.8250  -22.3320   35.3320 C.3     1  CMP1        0.1793
      7  O4'      -27.8520  -23.3320   35.6180 O.3     1  CMP1       -0.3136
      8  C3'      -28.2830  -21.6760   34.0820 C.3     1  CMP1        0.1884
      9  O3'      -29.0290  -20.4900   33.8260 O.3     1  CMP1       -0.3111
     10  C2'      -26.8130  -21.5240   34.4310 C.3     1  CMP1        0.2541
     11  O2'      -26.6130  -20.3820   35.2720 O.3     1  CMP1       -0.2131
     12  C1'      -26.5740  -22.7910   35.2620 C.3     1  CMP1        0.3185
     13  N9       -25.8030  -23.7480   34.4370 N.pl3   1  CMP1       -0.1439
     14  C8       -26.1940  -24.3490   33.2940 C.3     1  CMP1        0.3377
     15  N7       -25.2000  -25.1240   32.7920 N.2     1  CMP1       -0.2095
     16  C5       -24.1400  -24.9990   33.6180 C.2     1  CMP1        0.2526
     17  C6       -22.7570  -25.5190   33.6860 C.2     1  CMP1        0.4393
     18  N6       -22.2690  -26.3420   32.7260 N.pl3   1  CMP1        0.2180
     19  N1       -21.9850  -25.1230   34.7220 N.2     1  CMP1        0.0021
     20  C2       -22.4300  -24.2840   35.6730 C.3     1  CMP1        0.5254
     21  N3       -23.6680  -23.7650   35.6710 N.2     1  CMP1       -0.0055
     22  C4       -24.5450  -24.0880   34.6940 C.2     1  CMP1        0.3518
@<TRIPOS>BOND
     1     2     1    2
     2    18    17    1
     3    15    14    1
     4    15    16    2
     5    14    13    1
     6     3     1    1
     7     1     9    1
     8     1     4    1
     9    16    17    1
    10    16    22    1
    11    17    19    2
    12     9     8    1
    13     8    10    1
    14     8     6    1
    15    10    12    1
    16    10    11    1
    17    13    22    1
    18    13    12    1
    19    22    21    2
    20    19    20    1
    21     4     5    1
    22     5     6    1
    23    12     7    1
    24     6     7    1
    25    21    20    1
