@<TRIPOS>MOLECULE
3etr_LUZ_C_1.pdb
 12 13 0 0 0
SMALL
GASTEIGER

@<TRIPOS>ATOM
      1  N1         8.6390  -20.0560   22.0770 N.2     1  LUZ1       -0.2505
      2  C2         8.4080  -21.3410   22.4600 C.1     1  LUZ1        0.3744
      3  C10        9.3130  -19.7820   20.9490 C.1     1  LUZ1        0.1334
      4  O2         7.7850  -21.5970   23.5180 O.2     1  LUZ1       -0.1738
      5  N3         8.8380  -22.3840   21.7360 N.2     1  LUZ1       -0.2300
      6  C4         9.5100  -22.1750   20.6000 C.1     1  LUZ1        0.2460
      7  O4         9.8440  -23.1840   19.9650 O.2     1  LUZ1       -0.2062
      8  C4A        9.7840  -20.8570   20.1630 C.2     1  LUZ1        0.2511
      9  N5        10.4700  -20.6130   19.0120 N.2     1  LUZ1       -0.2195
     10  C5A       10.6890  -19.3240   18.6480 C.2     1  LUZ1        0.1220
     11  C9A       10.2350  -18.2600   19.4600 C.2     1  LUZ1        0.1312
     12  N10        9.5440  -18.4920   20.6010 N.2     1  LUZ1       -0.1780
@<TRIPOS>BOND
     1    10     9    1
     2    10    11    2
     3     9     8    2
     4    11    12    1
     5     7     6    2
     6     8     6    1
     7     8     3    1
     8     6     5    2
     9    12     3    2
    10     3     1    2
    11     5     2    2
    12     1     2    2
    13     2     4    2
