@<TRIPOS>MOLECULE
3ets_4MU_A_1.pdb
 13 14 0 0 0
SMALL
GASTEIGER

@<TRIPOS>ATOM
      1  C5       -23.9990   36.0060   16.3130 C.ar  572  4MU572      0.0060
      2  C6       -23.0650   36.5480   15.4640 C.ar  572  4MU572      0.0422
      3  C7       -21.7160   36.5940   15.8100 C.ar  572  4MU572      0.1988
      4  C2       -22.5240   34.4590   19.9120 C.ar  572  4MU572      0.3456
      5  C3       -23.9260   34.4000   19.6510 C.ar  572  4MU572      0.0781
      6  C4       -24.4860   34.9070   18.4510 C.ar  572  4MU572     -0.0125
      7  O2       -22.0280   34.0090   20.9650 O.2   572  4MU572     -0.2445
      8  O1       -21.6070   34.9930   19.0350 O.2   572  4MU572     -0.4209
      9  CM4      -25.9580   34.9170   18.0170 C.3   572  4MU572      0.0313
     10  C4A      -23.5310   35.5050   17.5090 C.ar  572  4MU572      0.0311
     11  C8A      -22.0750   35.5210   17.8580 C.ar  572  4MU572      0.1516
     12  C8       -21.1960   36.0640   16.9670 C.ar  572  4MU572      0.0796
     13  O1'      -20.8690   37.1120   14.9630 O.3   572  4MU572     -0.2865
@<TRIPOS>BOND
     1    13     3    1
     2     2     3   ar
     3     2     1   ar
     4     3    12   ar
     5     1    10   ar
     6    12    11   ar
     7    10    11   ar
     8    10     6   ar
     9    11     8   ar
    10     9     6    1
    11     6     5   ar
    12     8     4   ar
    13     5     4   ar
    14     4     7    2
