@<TRIPOS>MOLECULE
3ett_NPO_A_1.pdb
 10 10 0 0 0
SMALL
GASTEIGER

@<TRIPOS>ATOM
      1  C1       -21.8450   34.8000   18.6810 C.ar  572  NPO572      0.1431
      2  C2       -22.9220   35.1030   17.8460 C.ar  572  NPO572      0.0274
      3  C3       -22.6880   35.6720   16.5840 C.ar  572  NPO572      0.0437
      4  C4       -21.3910   35.9230   16.1750 C.ar  572  NPO572      0.1958
      5  C5       -20.3100   35.5910   17.0000 C.ar  572  NPO572      0.0437
      6  C6       -20.5320   35.0230   18.2640 C.ar  572  NPO572      0.0274
      7  OH       -21.2150   36.4190   14.9430 O.3   572  NPO572     -0.2866
      8  N1       -22.0790   34.2760   19.9420 N.pl3 572  NPO572      0.0577
      9  O2       -23.2170   34.2410   20.4100 O.2   572  NPO572     -0.1261
     10  O3       -21.1060   33.9120   20.5700 O.2   572  NPO572     -0.1261
@<TRIPOS>BOND
     1     7     4    1
     2     4     3   ar
     3     4     5   ar
     4     3     2   ar
     5     5     6   ar
     6     2     1   ar
     7     6     1   ar
     8     1     8    1
     9     8     9    2
    10     8    10    2
