@<TRIPOS>MOLECULE
3eu1_HEM_A_1.pdb
 43 50 0 0 0
SMALL
GASTEIGER

@<TRIPOS>ATOM
      1  CHA        4.6020    3.2200   -5.4100 C.2   142  HEM142      0.0000
      2  CHB        0.2820    3.6250   -3.2900 C.2   142  HEM142      0.0000
      3  CHC       -1.8890    3.1480   -7.6440 C.2   142  HEM142      0.0000
      4  CHD        2.3140    1.8080   -9.5730 C.2   142  HEM142      0.0000
      5  C1A        3.6470    3.4710   -4.4630 C.2   142  HEM142      0.0000
      6  C2A        3.9240    3.9420   -3.1170 C.2   142  HEM142      0.0000
      7  C3A        2.7160    4.0650   -2.5160 C.2   142  HEM142      0.0000
      8  C4A        1.6670    3.6630   -3.4720 C.2   142  HEM142      0.0000
      9  CMA        2.4650    4.5390   -1.0570 C.3   142  HEM142      0.0000
     10  CAA        5.3910    4.2300   -2.5940 C.3   142  HEM142      0.0000
     11  CBA        5.6760    4.2180   -1.0710 C.3   142  HEM142      0.0000
     12  CGA        6.7130    3.2230   -0.5290 C.2   142  HEM142      0.0000
     13  O1A        7.0130    3.3040    0.6950 O.co2 142  HEM142      0.0000
     14  O2A        7.2520    2.3300   -1.2530 O.co2 142  HEM142      0.0000
     15  C1B       -0.6910    3.5240   -4.2900 C.ar  142  HEM142      0.0000
     16  C2B       -2.1380    3.5800   -4.1100 C.ar  142  HEM142      0.0000
     17  C3B       -2.7260    3.4430   -5.3150 C.ar  142  HEM142      0.0000
     18  C4B       -1.6820    3.3030   -6.2990 C.ar  142  HEM142      0.0000
     19  CMB       -2.8670    3.7640   -2.7610 C.3   142  HEM142      0.0000
     20  CAB       -4.2440    3.4540   -5.6490 C.2   142  HEM142      0.0000
     21  CBB       -5.0840    2.4660   -5.3150 C.2   142  HEM142      0.0000
     22  C1C       -0.9650    2.6680   -8.5400 C.2   142  HEM142      0.0000
     23  C2C       -1.2350    2.1570   -9.8650 C.2   142  HEM142      0.0000
     24  C3C       -0.0740    1.7880  -10.3980 C.2   142  HEM142      0.0000
     25  C4C        0.9700    2.0450   -9.4320 C.2   142  HEM142      0.0000
     26  CMC       -2.6280    2.0690  -10.5360 C.3   142  HEM142      0.0000
     27  CAC        0.1210    1.1910  -11.8070 C.2   142  HEM142      0.0000
     28  CBC       -0.6840    0.2210  -12.2700 C.2   142  HEM142      0.0000
     29  C1D        3.3100    2.1890   -8.6750 C.ar  142  HEM142      0.0000
     30  C2D        4.7260    2.3220   -9.0000 C.ar  142  HEM142      0.0000
     31  C3D        5.4440    2.7620   -7.6980 C.ar  142  HEM142      0.0000
     32  C4D        4.3800    2.8560   -6.7220 C.ar  142  HEM142      0.0000
     33  CMD        5.3530    2.0660  -10.3900 C.3   142  HEM142      0.0000
     34  CAD        6.9510    3.0660   -7.4310 C.3   142  HEM142      0.0000
     35  CBD        7.8310    1.8140   -7.5060 C.3   142  HEM142      0.0000
     36  CGD        8.4020    1.3930   -6.1620 C.2   142  HEM142      0.0000
     37  O1D        9.5810    0.9300   -6.1650 O.co2 142  HEM142      0.0000
     38  O2D        7.7110    1.4880   -5.1030 O.co2 142  HEM142      0.0000
     39  NA         2.2870    3.3030   -4.6510 N.2   142  HEM142      0.0000
     40  NB        -0.4620    3.3500   -5.6510 N.ar  142  HEM142      0.0000
     41  NC         0.3890    2.5790   -8.3060 N.2   142  HEM142      0.0000
     42  ND         3.1460    2.5020   -7.3150 N.ar  142  HEM142      0.0000
     43 FE          1.1890    2.5030   -6.3890 Fe    142  HEM142      0.0000
@<TRIPOS>BOND
     1    28    27    2
     2    27    24    1
     3    26    23    1
     4    24    23    2
     5    24    25    1
     6    33    30    1
     7    23    22    1
     8     4    25    1
     9     4    29    2
    10    25    41    2
    11    30    29   ar
    12    30    31   ar
    13    29    42   ar
    14    22    41    1
    15    22     3    2
    16    41    43    1
    17    31    34    1
    18    31    32   ar
    19     3    18    1
    20    35    34    1
    21    35    36    1
    22    42    32   ar
    23    42    43    1
    24    32     1    2
    25    43    40    1
    26    43    39    1
    27    18    40   ar
    28    18    17   ar
    29    37    36   ar
    30    36    38   ar
    31    40    15   ar
    32    20    21    2
    33    20    17    1
    34     1     5    1
    35    17    16   ar
    36    39     5    2
    37    39     8    1
    38     5     6    1
    39    15    16   ar
    40    15     2    1
    41    16    19    1
    42     8     2    2
    43     8     7    1
    44     6    10    1
    45     6     7    2
    46    10    11    1
    47     7     9    1
    48    14    12   ar
    49    11    12    1
    50    12    13   ar
