@<TRIPOS>MOLECULE
3eu5_GBO_B_1.pdb
 35 36 0 0 0
SMALL
GASTEIGER

@<TRIPOS>ATOM
      1  O2        54.7960  -43.0360    7.6110 O.3   429  GBO429     -0.1143
      2  P1        54.1570  -42.4060    6.2790 P.3   429  GBO429      0.5373
      3  O8        53.2850  -41.2350    6.8970 O.3   429  GBO429     -0.1143
      4  O1        55.1730  -42.0420    5.2720 O.2   429  GBO429     -0.2221
      5  O3        53.1120  -43.4850    5.7490 O.3   429  GBO429     -0.2261
      6  P2        52.7200  -43.7480    4.1950 P.3   429  GBO429      0.2233
      7  O4        51.7900  -44.8760    4.2770 O.3   429  GBO429     -0.4370
      8  O9        52.3230  -42.5370    3.4010 O.2   429  GBO429     -0.5169
      9  O5        54.1480  -44.3100    3.8110 O.3   429  GBO429     -0.3089
     10  C1        54.7050  -44.3900    2.5310 C.3   429  GBO429      0.1747
     11  C2        56.0020  -44.8640    2.6540 C.2   429  GBO429     -0.0024
     12  C3        56.7350  -45.2110    1.5480 C.2   429  GBO429     -0.0454
     13  C4        56.0920  -45.0460    0.1440 C.3   429  GBO429      0.0261
     14  C5        58.1630  -45.7420    1.6100 C.3   429  GBO429      0.0264
     15  C6        58.5050  -46.6000    2.8190 C.3   429  GBO429      0.0298
     16  C7        59.6240  -47.3620    2.5020 C.2   429  GBO429     -0.0326
     17  C8        60.2230  -48.3360    3.2690 C.2   429  GBO429     -0.0267
     18  C9        59.5950  -48.6740    4.6190 C.3   429  GBO429      0.0278
     19  C10       61.4440  -49.1260    2.7570 C.3   429  GBO429      0.1369
     20  N1        60.8170  -50.3980    2.4670 N.am  429  GBO429     -0.2009
     21  C11       61.3500  -51.5750    2.1920 C.2   429  GBO429      0.2417
     22  O6        62.5470  -51.8440    2.0930 O.2   429  GBO429     -0.2733
     23  C12       60.2710  -52.6760    1.9320 C.3   429  GBO429      0.0868
     24  C13       59.1960  -52.8970    3.0510 C.3   429  GBO429      0.0096
     25  C14       58.0660  -53.7910    2.5230 C.3   429  GBO429      0.0014
     26  C15       56.6770  -53.2640    2.8980 C.3   429  GBO429      0.0129
     27  C16       55.5780  -54.2660    2.4230 C.3   429  GBO429      0.0729
     28  S1        56.1400  -55.7060    1.3870 S.3   429  GBO429     -0.1369
     29  C17       54.4280  -56.1180    0.8780 C.3   429  GBO429      0.0848
     30  C18       53.7720  -54.7230    0.6540 C.3   429  GBO429      0.1509
     31  C19       54.4890  -53.6060    1.5000 C.3   429  GBO429      0.1500
     32  N2        55.1480  -52.7590    0.4650 N.2   429  GBO429     -0.1860
     33  C20       54.9170  -53.2450   -0.7490 C.1   429  GBO429      0.2386
     34  O7        55.3640  -52.7490   -1.7850 O.2   429  GBO429     -0.2023
     35  N3        54.1320  -54.3290   -0.7140 N.2   429  GBO429     -0.1859
@<TRIPOS>BOND
     1    34    33    2
     2    33    35    2
     3    33    32    2
     4    35    30    1
     5    13    12    1
     6    32    31    1
     7    30    29    1
     8    30    31    1
     9    29    28    1
    10    28    27    1
    11    31    27    1
    12    12    14    1
    13    12    11    2
    14    14    15    1
    15    23    21    1
    16    23    24    1
    17    22    21    2
    18    21    20   am
    19    27    26    1
    20    20    19    1
    21    16    15    1
    22    16    17    2
    23    25    26    1
    24    25    24    1
    25    10    11    1
    26    10     9    1
    27    19    17    1
    28    17    18    1
    29     8     6    2
    30     9     6    1
    31     6     7    1
    32     6     5    1
    33     4     2    2
    34     5     2    1
    35     2     3    1
    36     2     1    1
