@<TRIPOS>MOLECULE
3eu9_HIS_A_1.pdb
 10 10 0 0 0
SMALL
GASTEIGER

@<TRIPOS>ATOM
      1  N          4.8290  -42.3000  -36.1930 N.3   322  HIS322     -0.1241
      2  CA         3.7190  -43.2370  -36.2120 C.3   322  HIS322      0.1618
      3  C          4.2380  -44.6730  -36.2930 C.2   322  HIS322      0.2264
      4  O          4.1720  -45.3180  -37.3420 O.2   322  HIS322     -0.2867
      5  CB         2.8040  -42.9340  -37.4050 C.3   322  HIS322      0.0704
      6  CG         1.5150  -43.6910  -37.3820 C.2   322  HIS322      0.0649
      7  ND1        1.4530  -45.0610  -37.5240 N.2   322  HIS322     -0.2310
      8  CD2        0.2400  -43.2740  -37.2000 C.3   322  HIS322      0.1683
      9  CE1        0.1960  -45.4550  -37.4280 C.2   322  HIS322      0.1939
     10  NE2       -0.5610  -44.3900  -37.2310 N.2   322  HIS322     -0.2440
@<TRIPOS>BOND
     1     7     9    1
     2     7     6    2
     3     9    10    2
     4     5     6    1
     5     5     2    1
     6     6     8    1
     7     4     3    2
     8    10     8    1
     9     3     2    1
    10     2     1    1
