@<TRIPOS>MOLECULE
3eub_XAN_4_1.pdb
 11 12 0 0 0
SMALL
GASTEIGER

@<TRIPOS>ATOM
      1  N9       -46.6110   67.3650  -43.7670 N.2   7319  XAN7319    -0.1801
      2  C4       -47.9510   67.2960  -43.6760 C.1   7319  XAN7319     0.1305
      3  N3       -48.9310   66.7930  -44.4390 N.2   7319  XAN7319    -0.2508
      4  C2       -50.2320   66.8780  -44.0900 C.1   7319  XAN7319     0.3744
      5  O2       -51.0850   66.3910  -44.8760 O.2   7319  XAN7319    -0.1738
      6  N1       -50.6410   67.4660  -42.9410 N.2   7319  XAN7319    -0.2300
      7  C6       -49.7630   68.0060  -42.0650 C.1   7319  XAN7319     0.2457
      8  O6       -50.1360   68.5440  -40.9840 O.2   7319  XAN7319    -0.2062
      9  C5       -48.3120   67.9570  -42.4100 C.2   7319  XAN7319     0.2483
     10  N7       -47.1510   68.3680  -41.8330 N.2   7319  XAN7319    -0.2212
     11  C8       -46.1300   68.0090  -42.6650 C.3   7319  XAN7319     0.2633
@<TRIPOS>BOND
     1     5     4    2
     2     3     4    2
     3     3     2    2
     4     4     6    2
     5     1     2    2
     6     1    11    1
     7     2     9    1
     8     6     7    2
     9    11    10    1
    10     9     7    1
    11     9    10    2
    12     7     8    2
