@<TRIPOS>MOLECULE
3euf_BAU_A_1.pdb
 20 21 0 0 0
SMALL
GASTEIGER

@<TRIPOS>ATOM
      1  OAC       58.7390   71.6910  -12.0650 O.3   400  BAU400     -0.2176
      2  CAJ       57.2970   71.8990  -12.2320 C.3   400  BAU400      0.2141
      3  CAK       56.7260   73.0820  -11.3840 C.3   400  BAU400      0.1797
      4  OAO       56.5280   72.9770   -9.9480 O.3   400  BAU400     -0.3308
      5  CAM       56.7240   74.3270   -9.8540 C.3   400  BAU400      0.2555
      6  NAT       57.9510   74.7090   -9.4320 N.am  400  BAU400     -0.1756
      7  CAS       58.0090   76.0430   -9.7420 C.1   400  BAU400      0.2845
      8  OAB       56.9830   76.5250  -10.2970 O.2   400  BAU400     -0.1918
      9  NAN       59.0760   76.7450   -9.4240 N.2   400  BAU400     -0.2455
     10  CAR       60.1240   76.1170   -8.8590 C.1   400  BAU400      0.2137
     11  OAA       61.0890   76.8800   -8.6100 O.2   400  BAU400     -0.2088
     12  CAI       58.9610   73.9720   -8.8800 C.2   400  BAU400      0.0882
     13  CAQ       60.1110   74.7320   -8.5670 C.2   400  BAU400      0.0931
     14  CAL       61.2900   74.0220   -7.9260 C.3   400  BAU400      0.0669
     15  CG        62.3130   73.6110   -8.9780 C.ar  400  BAU400     -0.0170
     16  CD2       62.0090   72.6210   -9.9050 C.ar  400  BAU400     -0.0039
     17  CE2       62.9600   72.2590  -10.8570 C.ar  400  BAU400     -0.0003
     18  CZ        64.2280   72.8570  -10.8850 C.ar  400  BAU400     -0.0000
     19  CE1       64.5490   73.8440   -9.9570 C.ar  400  BAU400     -0.0003
     20  CD1       63.5890   74.2230   -9.0000 C.ar  400  BAU400     -0.0039
@<TRIPOS>BOND
     1     2     1    1
     2     2     3    1
     3     3     4    1
     4    18    17   ar
     5    18    19   ar
     6    17    16   ar
     7     8     7    2
     8    19    20   ar
     9     4     5    1
    10    16    15   ar
    11     5     6    1
    12     7     6   am
    13     7     9    2
    14     6    12    1
    15     9    10    2
    16    20    15   ar
    17    15    14    1
    18    12    13    2
    19    10    11    2
    20    10    13    1
    21    13    14    1
