@<TRIPOS>MOLECULE
3euj_AGS_A_1.pdb
 31 33 0 0 0
SMALL
GASTEIGER

@<TRIPOS>ATOM
      1  PG        20.4820   78.2670   31.1920 P.3   2001  AGS2001     0.4340
      2  S1G       21.3550   79.8480   31.3170 S.3   2001  AGS2001     0.0416
      3  O2G       21.4650   77.2920   30.5640 O.2   2001  AGS2001    -0.2423
      4  O3G       19.8360   77.8130   32.4360 O.3   2001  AGS2001    -0.1305
      5  PB        18.9660   78.3720   28.6730 P.3   2001  AGS2001     0.2262
      6  O1B       20.1240   77.7010   28.0320 O.2   2001  AGS2001    -0.5168
      7  O2B       18.6710   79.7540   28.2170 O.3   2001  AGS2001    -0.4369
      8  O3B       19.1570   78.4010   30.2660 O.3   2001  AGS2001    -0.2405
      9  PA        17.3760   76.2890   27.3930 P.3   2001  AGS2001     0.2189
     10  O1A       17.5330   76.5310   25.9540 O.2   2001  AGS2001    -0.5170
     11  O2A       18.1260   75.1960   28.0890 O.3   2001  AGS2001    -0.4371
     12  O3A       17.6580   77.6390   28.3100 O.3   2001  AGS2001    -0.2701
     13  O5'       15.8340   76.3320   27.6360 O.3   2001  AGS2001    -0.3112
     14  C5'       15.4250   75.9410   28.8710 C.3   2001  AGS2001     0.1813
     15  C4'       13.9330   76.0440   28.9700 C.3   2001  AGS2001     0.1821
     16  O4'       13.3420   75.2100   28.0420 O.3   2001  AGS2001    -0.3135
     17  C3'       13.4900   75.6120   30.3480 C.3   2001  AGS2001     0.2184
     18  O3'       12.7920   76.6460   31.0290 O.3   2001  AGS2001    -0.2174
     19  C2'       12.6710   74.3310   30.1650 C.3   2001  AGS2001     0.2570
     20  O2'       11.3410   74.3730   30.7700 O.3   2001  AGS2001    -0.2130
     21  C1'       12.6280   74.1760   28.6290 C.3   2001  AGS2001     0.3186
     22  N9        13.1450   72.8570   28.1320 N.pl3 2001  AGS2001    -0.1439
     23  C8        14.3980   72.3960   27.7260 C.3   2001  AGS2001     0.3377
     24  N7        14.5250   71.1300   27.3260 N.2   2001  AGS2001    -0.2095
     25  C5        13.2420   70.7110   27.4840 C.2   2001  AGS2001     0.2526
     26  C6        12.5810   69.4480   27.2690 C.2   2001  AGS2001     0.4393
     27  N6        13.3100   68.2880   26.7780 N.pl3 2001  AGS2001     0.2180
     28  N1        11.2240   69.3360   27.5300 N.2   2001  AGS2001     0.0021
     29  C2        10.4930   70.4380   28.0060 C.3   2001  AGS2001     0.5254
     30  N3        10.9950   71.6860   28.2550 N.2   2001  AGS2001    -0.0055
     31  C4        12.3720   71.7600   27.9860 C.2   2001  AGS2001     0.3518
@<TRIPOS>BOND
     1    10     9    2
     2    27    26    1
     3    26    25    1
     4    26    28    2
     5    24    25    2
     6    24    23    1
     7     9    13    1
     8     9    11    1
     9     9    12    1
    10    25    31    1
    11    28    29    1
    12    13    14    1
    13    23    22    1
    14    31    22    1
    15    31    30    2
    16    29    30    1
    17     6     5    2
    18    16    21    1
    19    16    15    1
    20    22    21    1
    21     7     5    1
    22    12     5    1
    23    21    19    1
    24     5     8    1
    25    14    15    1
    26    15    17    1
    27    19    17    1
    28    19    20    1
    29     8     1    1
    30    17    18    1
    31     3     1    2
    32     1     2    1
    33     1     4    1
