@<TRIPOS>MOLECULE
3euk_AGS_A_1.pdb
 31 33 0 0 0
SMALL
GASTEIGER

@<TRIPOS>ATOM
      1  PG       -44.0120   80.6370   31.8580 P.3   2001  AGS2001     0.4340
      2  S1G      -44.2310   80.4570   33.6340 S.3   2001  AGS2001     0.0416
      3  O2G      -43.0140   79.5910   31.4400 O.3   2001  AGS2001    -0.1305
      4  O3G      -45.2580   80.6360   31.0920 O.2   2001  AGS2001    -0.2423
      5  PB       -42.2670   82.9890   31.9200 P.3   2001  AGS2001     0.2262
      6  O1B      -40.9750   82.4260   31.4580 O.2   2001  AGS2001    -0.5168
      7  O2B      -42.4220   83.1570   33.3810 O.3   2001  AGS2001    -0.4369
      8  O3B      -43.4830   82.0970   31.4010 O.3   2001  AGS2001    -0.2405
      9  PA       -41.2560   85.3320   30.5800 P.3   2001  AGS2001     0.2189
     10  O1A      -41.1580   84.6210   29.2700 O.2   2001  AGS2001    -0.5170
     11  O2A      -40.0670   85.6590   31.3630 O.3   2001  AGS2001    -0.4371
     12  O3A      -42.3480   84.4510   31.4520 O.3   2001  AGS2001    -0.2701
     13  O5'      -42.1110   86.6750   30.5400 O.3   2001  AGS2001    -0.3112
     14  C5'      -43.4550   86.7030   30.1100 C.3   2001  AGS2001     0.1813
     15  C4'      -43.9140   88.1730   30.2090 C.3   2001  AGS2001     0.1821
     16  O4'      -43.1240   88.9720   29.3780 O.3   2001  AGS2001    -0.3135
     17  C3'      -45.3730   88.4110   29.7890 C.3   2001  AGS2001     0.2184
     18  O3'      -46.1430   88.8150   30.9140 O.3   2001  AGS2001    -0.2174
     19  C2'      -45.3410   89.4790   28.6900 C.3   2001  AGS2001     0.2570
     20  O2'      -46.1010   90.6870   28.9710 O.3   2001  AGS2001    -0.2130
     21  C1'      -43.8480   89.7570   28.4990 C.3   2001  AGS2001     0.3186
     22  N9       -43.4090   89.4640   27.1010 N.pl3 2001  AGS2001    -0.1439
     23  C8       -42.8990   88.3210   26.4770 C.3   2001  AGS2001     0.3377
     24  N7       -42.5840   88.3760   25.1810 N.2   2001  AGS2001    -0.2095
     25  C5       -42.9250   89.6770   24.9130 C.2   2001  AGS2001     0.2526
     26  C6       -42.8590   90.4990   23.7280 C.2   2001  AGS2001     0.4393
     27  N6       -42.3750   89.9540   22.4650 N.pl3 2001  AGS2001     0.2180
     28  N1       -43.2880   91.8280   23.7860 N.2   2001  AGS2001     0.0021
     29  C2       -43.7590   92.3870   24.9800 C.3   2001  AGS2001     0.5254
     30  N3       -43.8670   91.7260   26.1740 N.2   2001  AGS2001    -0.0055
     31  C4       -43.4210   90.3770   26.0880 C.2   2001  AGS2001     0.3518
@<TRIPOS>BOND
     1    27    26    1
     2    26    28    2
     3    26    25    1
     4    28    29    1
     5    25    24    2
     6    25    31    1
     7    29    30    1
     8    24    23    1
     9    31    30    2
    10    31    22    1
    11    23    22    1
    12    22    21    1
    13    21    19    1
    14    21    16    1
    15    19    20    1
    16    19    17    1
    17    10     9    2
    18    16    15    1
    19    17    15    1
    20    17    18    1
    21    14    15    1
    22    14    13    1
    23    13     9    1
    24     9    11    1
    25     9    12    1
    26     4     1    2
    27     8     1    1
    28     8     5    1
    29     3     1    1
    30    12     5    1
    31     6     5    2
    32     1     2    1
    33     5     7    1
