@<TRIPOS>MOLECULE
3eut_DCR_A_1.pdb
 22 21 0 0 0
SMALL
GASTEIGER

@<TRIPOS>ATOM
      1  O1        31.6240    4.0700   -6.1540 O.co2   1  DCR1       -0.2457
      2  C1        31.7060    3.3650   -5.1120 C.2     1  DCR1        0.3649
      3  O2        30.7320    2.7380   -4.6320 O.co2   1  DCR1       -0.2457
      4  C2        33.0410    3.2930   -4.3990 C.3     1  DCR1        0.1141
      5  C3        33.4510    1.8680   -4.0180 C.3     1  DCR1        0.0118
      6  C4        34.8810    1.7670   -3.4660 C.3     1  DCR1        0.0006
      7  C5        35.9260    2.4260   -4.3640 C.3     1  DCR1        0.0000
      8  C6        37.3370    1.8620   -4.1960 C.3     1  DCR1        0.0000
      9  C7        38.3880    2.8480   -4.7100 C.3     1  DCR1        0.0000
     10  C8        39.8320    2.3880   -4.5170 C.3     1  DCR1        0.0000
     11  C9        40.4640    3.1310   -3.3450 C.3     1  DCR1        0.0000
     12  C10       41.9140    2.7380   -3.0920 C.3     1  DCR1        0.0000
     13  C11       42.2970    3.0770   -1.6550 C.3     1  DCR1        0.0000
     14  C12       43.7730    3.4270   -1.5330 C.3     1  DCR1        0.0000
     15  C13       44.5500    2.3100   -0.8590 C.3     1  DCR1        0.0000
     16  C14       45.6110    2.7930    0.1270 C.3     1  DCR1        0.0000
     17  C15       46.2580    1.5840    0.7940 C.3     1  DCR1        0.0000
     18  C16       47.6770    1.2740    0.3170 C.3     1  DCR1        0.0000
     19  C17       47.8200   -0.1380   -0.2590 C.3     1  DCR1        0.0000
     20  C18       47.4380   -1.2660    0.6930 C.3     1  DCR1        0.0000
     21  C19       47.8950   -2.5960    0.1160 C.3     1  DCR1        0.0000
     22  C20       46.8270   -3.6610    0.1990 C.3     1  DCR1        0.0000
@<TRIPOS>BOND
     1     1     2   ar
     2     2     3   ar
     3     2     4    1
     4     9    10    1
     5     9     8    1
     6    10    11    1
     7     4     5    1
     8     7     8    1
     9     7     6    1
    10     5     6    1
    11    11    12    1
    12    12    13    1
    13    13    14    1
    14    14    15    1
    15    15    16    1
    16    19    18    1
    17    19    20    1
    18    21    22    1
    19    21    20    1
    20    16    17    1
    21    18    17    1
