@<TRIPOS>MOLECULE
3euv_GBO_B_1.pdb
 35 36 0 0 0
SMALL
GASTEIGER

@<TRIPOS>ATOM
      1  O2        54.0620  -42.5760    1.4980 O.3   429  GBO429     -0.1143
      2  P1        53.3380  -41.9110    0.1780 P.3   429  GBO429      0.5373
      3  O8        52.2250  -40.7580    0.6900 O.3   429  GBO429     -0.1143
      4  O1        54.3610  -41.3070   -0.7470 O.2   429  GBO429     -0.2221
      5  O3        52.4330  -43.1110   -0.4100 O.3   429  GBO429     -0.2261
      6  P2        52.0640  -43.1430   -1.9190 P.3   429  GBO429      0.2233
      7  O4        51.3500  -44.3810   -2.2850 O.2   429  GBO429     -0.5169
      8  O9        51.4010  -41.8560   -2.2540 O.3   429  GBO429     -0.4370
      9  O5        53.5550  -43.2850   -2.4140 O.3   429  GBO429     -0.3089
     10  C1        53.7970  -44.0880   -3.4600 C.3   429  GBO429      0.1747
     11  C2        55.1440  -44.2880   -3.5630 C.2   429  GBO429     -0.0024
     12  C3        55.7610  -44.5440   -4.7770 C.2   429  GBO429     -0.0454
     13  C4        54.9070  -44.5930   -6.0840 C.3   429  GBO429      0.0261
     14  C5        57.2980  -44.7890   -4.8440 C.3   429  GBO429      0.0264
     15  C6        57.9810  -45.2830   -3.5280 C.3   429  GBO429      0.0298
     16  C7        58.6960  -46.4890   -3.5950 C.2   429  GBO429     -0.0326
     17  C8        58.6510  -47.3550   -2.5120 C.2   429  GBO429     -0.0267
     18  C9        57.7680  -47.0440   -1.3030 C.3   429  GBO429      0.0278
     19  C10       59.3210  -48.6780   -2.4880 C.3   429  GBO429      0.1369
     20  N1        60.7110  -48.9030   -2.9290 N.am  429  GBO429     -0.2009
     21  C11       60.8950  -50.1790   -3.3730 C.2   429  GBO429      0.2417
     22  O6        59.9360  -50.9830   -3.4170 O.2   429  GBO429     -0.2733
     23  C12       62.3330  -50.6460   -3.8310 C.3   429  GBO429      0.0868
     24  C13       62.3730  -51.7190   -4.9600 C.3   429  GBO429      0.0096
     25  C14       63.5270  -52.6950   -4.8500 C.3   429  GBO429      0.0014
     26  C15       62.9860  -54.1040   -5.0570 C.3   429  GBO429      0.0129
     27  C16       63.3750  -55.0150   -3.8640 C.3   429  GBO429      0.0729
     28  S1        62.8390  -56.7650   -3.9610 S.3   429  GBO429     -0.1369
     29  C17       63.0900  -57.1660   -2.2160 C.3   429  GBO429      0.0848
     30  C18       62.6500  -55.8310   -1.5400 C.3   429  GBO429      0.1509
     31  C19       62.7520  -54.5900   -2.5000 C.3   429  GBO429      0.1500
     32  N2        61.3380  -54.0640   -2.5210 N.2   429  GBO429     -0.1860
     33  C20       60.5330  -54.7930   -1.7130 C.1   429  GBO429      0.2386
     34  O7        59.3280  -54.5610   -1.5330 O.2   429  GBO429     -0.2023
     35  N3        61.2060  -55.8200   -1.1500 N.2   429  GBO429     -0.1859
@<TRIPOS>BOND
     1    13    12    1
     2    26    25    1
     3    26    27    1
     4    24    25    1
     5    24    23    1
     6    14    12    1
     7    14    15    1
     8    12    11    2
     9    28    27    1
    10    28    29    1
    11    27    31    1
    12    23    21    1
    13    16    15    1
    14    16    17    2
    15    11    10    1
    16    10     9    1
    17    22    21    2
    18    21    20   am
    19    20    19    1
    20    32    31    1
    21    32    33    2
    22    17    19    1
    23    17    18    1
    24    31    30    1
    25     9     6    1
    26     7     6    2
    27     8     6    1
    28    29    30    1
    29     6     5    1
    30    33    34    2
    31    33    35    2
    32    30    35    1
    33     4     2    2
    34     5     2    1
    35     2     3    1
    36     2     1    1
