@<TRIPOS>MOLECULE
3evb_SAH_A_1.pdb
 26 28 0 0 0
SMALL
GASTEIGER

@<TRIPOS>ATOM
      1  N         24.5140   30.0470  -26.8420 N.3   901  SAH901     -0.1208
      2  CA        25.5680   31.0590  -27.0010 C.3   901  SAH901      0.1952
      3  CB        26.3370   30.8130  -28.3010 C.3   901  SAH901      0.0422
      4  CG        27.2000   29.5550  -28.1940 C.3   901  SAH901      0.0597
      5  SD        28.3110   29.3310  -29.6290 S.3   901  SAH901     -0.1375
      6  C         24.9410   32.4530  -27.0530 C.2   901  SAH901      0.3819
      7  O         25.7160   33.4050  -27.2780 O.co2 901  SAH901     -0.2441
      8  OXT       23.7070   32.5340  -26.8570 O.co2 901  SAH901     -0.2441
      9  C5'       29.1450   27.7840  -29.1230 C.3   901  SAH901      0.0899
     10  C4'       30.3150   28.0360  -28.1720 C.3   901  SAH901      0.1630
     11  O4'       30.8050   26.7710  -27.7020 O.3   901  SAH901     -0.3153
     12  C3'       31.4800   28.7200  -28.8940 C.3   901  SAH901      0.2168
     13  O3'       31.8140   29.9460  -28.2380 O.3   901  SAH901     -0.2175
     14  C2'       32.6230   27.7140  -28.7460 C.3   901  SAH901      0.2569
     15  O2'       33.8460   28.4150  -28.5040 O.3   901  SAH901     -0.2130
     16  C1'       32.2010   26.9910  -27.4670 C.3   901  SAH901      0.3185
     17  N9        32.8740   25.6780  -27.3490 N.pl3 901  SAH901     -0.1439
     18  C8        33.0930   24.8220  -28.3430 C.3   901  SAH901      0.3377
     19  N7        33.6910   23.7310  -27.8670 N.2   901  SAH901     -0.2095
     20  C5        33.8560   23.8970  -26.5580 C.2   901  SAH901      0.2526
     21  C6        34.4000   23.1190  -25.5440 C.2   901  SAH901      0.4393
     22  N6        34.9360   21.9320  -25.8200 N.pl3 901  SAH901      0.2180
     23  N1        34.3950   23.5920  -24.2920 N.2   901  SAH901      0.0021
     24  C2        33.8880   24.7810  -24.0110 C.3   901  SAH901      0.5254
     25  N3        33.3660   25.5490  -24.9490 N.2   901  SAH901     -0.0055
     26  C4        33.3340   25.1390  -26.2250 C.2   901  SAH901      0.3518
@<TRIPOS>BOND
     1     5     9    1
     2     5     4    1
     3     9    10    1
     4    12    14    1
     5    12    13    1
     6    12    10    1
     7    14    15    1
     8    14    16    1
     9    18    19    1
    10    18    17    1
    11     3     4    1
    12     3     2    1
    13    10    11    1
    14    19    20    2
    15    11    16    1
    16    16    17    1
    17    17    26    1
    18     7     6   ar
    19     6     2    1
    20     6     8   ar
    21     2     1    1
    22    20    26    1
    23    20    21    1
    24    26    25    2
    25    22    21    1
    26    21    23    2
    27    25    24    1
    28    23    24    1
