@<TRIPOS>MOLECULE
3evc_SAH_A_1.pdb
 26 28 0 0 0
SMALL
GASTEIGER

@<TRIPOS>ATOM
      1  N         24.3630   30.1350  -26.9310 N.3   901  SAH901     -0.1208
      2  CA        25.4150   31.1580  -27.0270 C.3   901  SAH901      0.1952
      3  CB        26.2150   30.9490  -28.3140 C.3   901  SAH901      0.0422
      4  CG        27.0610   29.6780  -28.2230 C.3   901  SAH901      0.0597
      5  SD        28.1120   29.4130  -29.6970 S.3   901  SAH901     -0.1375
      6  C         24.7760   32.5480  -27.0530 C.2   901  SAH901      0.3819
      7  O         25.5470   33.5210  -27.2050 O.co2 901  SAH901     -0.2441
      8  OXT       23.5370   32.6070  -26.9060 O.co2 901  SAH901     -0.2441
      9  C5'       29.0540   27.9480  -29.1380 C.3   901  SAH901      0.0899
     10  C4'       30.1970   28.2960  -28.1820 C.3   901  SAH901      0.1630
     11  O4'       30.7260   27.0620  -27.6710 O.3   901  SAH901     -0.3153
     12  C3'       31.3440   29.0030  -28.9110 C.3   901  SAH901      0.2168
     13  O3'       31.7490   30.1670  -28.1870 O.3   901  SAH901     -0.2175
     14  C2'       32.4560   27.9540  -28.8930 C.3   901  SAH901      0.2569
     15  O2'       33.7240   28.6080  -28.7830 O.3   901  SAH901     -0.2130
     16  C1'       32.1420   27.2600  -27.5680 C.3   901  SAH901      0.3185
     17  N9        32.8020   25.9390  -27.4840 N.pl3 901  SAH901     -0.1439
     18  C8        33.0150   25.1060  -28.5000 C.3   901  SAH901      0.3377
     19  N7        33.5760   23.9860  -28.0490 N.2   901  SAH901     -0.2095
     20  C5        33.7250   24.1060  -26.7340 C.2   901  SAH901      0.2526
     21  C6        34.2330   23.2820  -25.7380 C.2   901  SAH901      0.4393
     22  N6        34.7450   22.0930  -26.0420 N.pl3 901  SAH901      0.2180
     23  N1        34.2240   23.7180  -24.4700 N.2   901  SAH901      0.0021
     24  C2        33.7460   24.9110  -24.1620 C.3   901  SAH901      0.5254
     25  N3        33.2580   25.7220  -25.0840 N.2   901  SAH901     -0.0055
     26  C4        33.2320   25.3520  -26.3700 C.2   901  SAH901      0.3518
@<TRIPOS>BOND
     1     5     9    1
     2     5     4    1
     3     9    10    1
     4    12    14    1
     5    12    13    1
     6    12    10    1
     7    14    15    1
     8    14    16    1
     9    18    19    1
    10    18    17    1
    11     3     4    1
    12     3     2    1
    13    10    11    1
    14    19    20    2
    15    11    16    1
    16    16    17    1
    17    17    26    1
    18     7     6   ar
    19     6     2    1
    20     6     8   ar
    21     2     1    1
    22    20    26    1
    23    20    21    1
    24    26    25    2
    25    22    21    1
    26    21    23    2
    27    25    24    1
    28    23    24    1
