@<TRIPOS>MOLECULE
3evc_GTP_A_1.pdb
 28 30 0 0 0
SMALL
GASTEIGER

@<TRIPOS>ATOM
      1  O3B       27.9010   30.0440  -39.7580 O.3   902  GTP902     -0.1143
      2  PB        28.2980   28.4930  -39.9260 P.3   902  GTP902      0.5373
      3  O1B       29.3070   28.1620  -38.7160 O.3   902  GTP902     -0.1143
      4  O2B       27.1200   27.5970  -39.9510 O.2   902  GTP902     -0.2221
      5  O3A       29.1820   28.4080  -41.2690 O.3   902  GTP902     -0.2261
      6  PA        28.4870   28.4730  -42.7200 P.3   902  GTP902      0.2231
      7  O1A       29.4050   29.4650  -43.5940 O.2   902  GTP902     -0.5169
      8  O2A       27.0820   28.9360  -42.6590 O.3   902  GTP902     -0.4370
      9  O5'       28.6500   27.0160  -43.3840 O.3   902  GTP902     -0.3111
     10  C5'       27.6360   26.0250  -43.2270 C.3   902  GTP902      0.1813
     11  C4'       27.7570   24.9880  -44.3210 C.3   902  GTP902      0.1799
     12  O4'       27.3640   25.5760  -45.5890 O.3   902  GTP902     -0.3326
     13  C3'       29.1690   24.4780  -44.5600 C.3   902  GTP902      0.2158
     14  O3'       29.4860   23.4180  -43.6670 O.3   902  GTP902     -0.2175
     15  C2'       29.1130   24.0160  -46.0100 C.3   902  GTP902      0.2310
     16  O2'       28.5440   22.7290  -46.1510 O.3   902  GTP902     -0.2158
     17  C1'       28.1850   25.0680  -46.6280 C.3   902  GTP902      0.2293
     18  N9        28.8810   26.1940  -47.2460 N.pl3 902  GTP902     -0.2354
     19  C8        29.6100   27.1740  -46.6120 C.3   902  GTP902      0.2246
     20  N7        30.1010   28.0620  -47.4350 N.2   902  GTP902     -0.2322
     21  C5        29.6760   27.6410  -48.6880 C.2   902  GTP902      0.2182
     22  C6        29.8970   28.2060  -49.9730 C.1   902  GTP902      0.2372
     23  O6        30.5420   29.2200  -50.2670 O.2   902  GTP902     -0.2069
     24  N1        29.2770   27.4620  -50.9720 N.2   902  GTP902     -0.2485
     25  C2        28.5440   26.3180  -50.7670 C.1   902  GTP902      0.2531
     26  N2        28.0190   25.7430  -51.8600 N.pl3 902  GTP902     -0.0226
     27  N3        28.3380   25.7780  -49.5760 N.2   902  GTP902     -0.3074
     28  C4        28.9260   26.4880  -48.5900 C.2   902  GTP902      0.2300
@<TRIPOS>BOND
     1    26    25    1
     2    24    25    2
     3    24    22    2
     4    25    27    2
     5    23    22    2
     6    22    21    1
     7    27    28    2
     8    21    28    1
     9    21    20    2
    10    28    18    1
    11    20    19    1
    12    18    17    1
    13    18    19    1
    14    17    15    1
    15    17    12    1
    16    16    15    1
    17    15    13    1
    18    12    11    1
    19    13    11    1
    20    13    14    1
    21    11    10    1
    22     7     6    2
    23     9    10    1
    24     9     6    1
    25     6     8    1
    26     6     5    1
    27     5     2    1
    28     4     2    2
    29     2     1    1
    30     2     3    1
