@<TRIPOS>MOLECULE
3evd_SAH_A_1.pdb
 26 28 0 0 0
SMALL
GASTEIGER

@<TRIPOS>ATOM
      1  N         24.6350   29.9310  -26.8380 N.3   903  SAH903     -0.1208
      2  CA        25.7010   30.9380  -26.9580 C.3   903  SAH903      0.1952
      3  CB        26.4960   30.7010  -28.2450 C.3   903  SAH903      0.0422
      4  CG        27.3300   29.4220  -28.1530 C.3   903  SAH903      0.0597
      5  SD        28.4010   29.1640  -29.6150 S.3   903  SAH903     -0.1375
      6  C         25.0820   32.3340  -26.9960 C.2   903  SAH903      0.3819
      7  O         25.8660   33.2960  -27.1320 O.co2 903  SAH903     -0.2441
      8  OXT       23.8390   32.4160  -26.8600 O.co2 903  SAH903     -0.2441
      9  C5'       29.3630   27.7150  -29.0500 C.3   903  SAH903      0.0899
     10  C4'       30.4810   28.0760  -28.0700 C.3   903  SAH903      0.1630
     11  O4'       31.0150   26.8430  -27.5630 O.3   903  SAH903     -0.3153
     12  C3'       31.6360   28.8150  -28.7550 C.3   903  SAH903      0.2168
     13  O3'       32.0060   29.9660  -27.9910 O.3   903  SAH903     -0.2175
     14  C2'       32.7660   27.7850  -28.7330 C.3   903  SAH903      0.2569
     15  O2'       34.0160   28.4600  -28.5620 O.3   903  SAH903     -0.2130
     16  C1'       32.4280   27.0500  -27.4370 C.3   903  SAH903      0.3185
     17  N9        33.0830   25.7260  -27.3650 N.pl3 903  SAH903     -0.1439
     18  C8        33.2930   24.8940  -28.3790 C.3   903  SAH903      0.3377
     19  N7        33.8520   23.7700  -27.9260 N.2   903  SAH903     -0.2095
     20  C5        34.0020   23.8900  -26.6180 C.2   903  SAH903      0.2526
     21  C6        34.5010   23.0650  -25.6110 C.2   903  SAH903      0.4393
     22  N6        34.9960   21.8660  -25.9130 N.pl3 903  SAH903      0.2180
     23  N1        34.4880   23.4980  -24.3500 N.2   903  SAH903      0.0021
     24  C2        34.0120   24.6970  -24.0400 C.3   903  SAH903      0.5254
     25  N3        33.5320   25.5080  -24.9660 N.2   903  SAH903     -0.0055
     26  C4        33.5130   25.1390  -26.2460 C.2   903  SAH903      0.3518
@<TRIPOS>BOND
     1     5     9    1
     2     5     4    1
     3     9    10    1
     4    12    14    1
     5    12    10    1
     6    12    13    1
     7    14    15    1
     8    14    16    1
     9    18    19    1
    10    18    17    1
    11     3     4    1
    12     3     2    1
    13    10    11    1
    14    19    20    2
    15    11    16    1
    16    16    17    1
    17    17    26    1
    18     7     6   ar
    19     6     2    1
    20     6     8   ar
    21     2     1    1
    22    20    26    1
    23    20    21    1
    24    26    25    2
    25    22    21    1
    26    21    23    2
    27    25    24    1
    28    23    24    1
