@<TRIPOS>MOLECULE
3evd_GTP_A_1.pdb
 32 34 0 0 0
SMALL
GASTEIGER

@<TRIPOS>ATOM
      1  PG        27.9710   30.7380  -39.5880 P.3   901  GTP901      0.5373
      2  O1G       26.6240   31.5970  -39.3930 O.3   901  GTP901     -0.1143
      3  O2G       28.9720   31.2320  -38.4290 O.3   901  GTP901     -0.1143
      4  O3G       28.5450   30.9060  -40.9410 O.2   901  GTP901     -0.2221
      5  O3B       27.5810   29.2110  -39.2650 O.3   901  GTP901     -0.2258
      6  PB        28.5580   27.9930  -39.6620 P.3   901  GTP901      0.2277
      7  O1B       29.7460   28.0240  -38.5750 O.3   901  GTP901     -0.4368
      8  O2B       27.8460   26.6950  -39.6910 O.2   901  GTP901     -0.5168
      9  O3A       29.2460   28.3410  -41.0790 O.3   901  GTP901     -0.2700
     10  PA        28.4870   28.0480  -42.4730 P.3   901  GTP901      0.2189
     11  O1A       29.3830   28.7670  -43.6040 O.2   901  GTP901     -0.5170
     12  O2A       27.0980   28.5630  -42.4560 O.3   901  GTP901     -0.4371
     13  O5'       28.5910   26.4690  -42.7920 O.3   901  GTP901     -0.3112
     14  C5'       27.4640   25.7480  -43.3330 C.3   901  GTP901      0.1813
     15  C4'       27.8970   24.7890  -44.4400 C.3   901  GTP901      0.1799
     16  O4'       27.7520   25.4000  -45.7460 O.3   901  GTP901     -0.3326
     17  C3'       29.3310   24.2900  -44.4150 C.3   901  GTP901      0.2158
     18  O3'       29.4800   23.2070  -43.5090 O.3   901  GTP901     -0.2175
     19  C2'       29.5660   23.8440  -45.8600 C.3   901  GTP901      0.2310
     20  O2'       29.1700   22.5110  -46.1110 O.3   901  GTP901     -0.2158
     21  C1'       28.6860   24.8210  -46.6470 C.3   901  GTP901      0.2293
     22  N9        29.4030   25.8960  -47.3310 N.pl3 901  GTP901     -0.2354
     23  C8        30.0590   26.9590  -46.7530 C.3   901  GTP901      0.2246
     24  N7        30.5660   27.7830  -47.6290 N.2   901  GTP901     -0.2322
     25  C5        30.2370   27.2320  -48.8580 C.2   901  GTP901      0.2182
     26  C6        30.5070   27.6910  -50.1740 C.1   901  GTP901      0.2372
     27  O6        31.1040   28.7150  -50.5240 O.2   901  GTP901     -0.2069
     28  N1        29.9970   26.8230  -51.1330 N.2   901  GTP901     -0.2485
     29  C2        29.3120   25.6640  -50.8640 C.1   901  GTP901      0.2531
     30  N2        28.9060   24.9570  -51.9260 N.pl3 901  GTP901     -0.0226
     31  N3        29.0470   25.2260  -49.6420 N.2   901  GTP901     -0.3074
     32  C4        29.5340   26.0570  -48.6940 C.2   901  GTP901      0.2300
@<TRIPOS>BOND
     1    30    29    1
     2    28    29    2
     3    28    26    2
     4    29    31    2
     5    27    26    2
     6    26    25    1
     7    31    32    2
     8    25    32    1
     9    25    24    2
    10    32    22    1
    11    24    23    1
    12    22    23    1
    13    22    21    1
    14    21    19    1
    15    21    16    1
    16    20    19    1
    17    19    17    1
    18    16    15    1
    19    15    17    1
    20    15    14    1
    21    17    18    1
    22    11    10    2
    23    14    13    1
    24    13    10    1
    25    10    12    1
    26    10     9    1
    27     9     6    1
    28     4     1    2
    29     8     6    2
    30     6     5    1
    31     6     7    1
    32     1     2    1
    33     1     5    1
    34     1     3    1
