@<TRIPOS>MOLECULE
3eve_SAH_A_1.pdb
 26 28 0 0 0
SMALL
GASTEIGER

@<TRIPOS>ATOM
      1  N         24.2860   30.1430  -26.9520 N.3   901  SAH901     -0.1208
      2  CA        25.3430   31.1620  -27.0370 C.3   901  SAH901      0.1952
      3  CB        26.1500   30.9600  -28.3210 C.3   901  SAH901      0.0422
      4  CG        27.0320   29.7150  -28.2150 C.3   901  SAH901      0.0597
      5  SD        28.1020   29.4800  -29.6810 S.3   901  SAH901     -0.1375
      6  C         24.7140   32.5560  -27.0680 C.2   901  SAH901      0.3819
      7  O         25.4870   33.5170  -27.2740 O.co2 901  SAH901     -0.2441
      8  OXT       23.4810   32.6300  -26.8780 O.co2 901  SAH901     -0.2441
      9  C5'       29.0470   28.0140  -29.1290 C.3   901  SAH901      0.0899
     10  C4'       30.1780   28.3650  -28.1610 C.3   901  SAH901      0.1630
     11  O4'       30.7070   27.1290  -27.6530 O.3   901  SAH901     -0.3153
     12  C3'       31.3230   29.0780  -28.8870 C.3   901  SAH901      0.2168
     13  O3'       31.7350   30.2350  -28.1550 O.3   901  SAH901     -0.2175
     14  C2'       32.4330   28.0260  -28.8820 C.3   901  SAH901      0.2569
     15  O2'       33.7010   28.6770  -28.7690 O.3   901  SAH901     -0.2130
     16  C1'       32.1240   27.3220  -27.5620 C.3   901  SAH901      0.3185
     17  N9        32.7800   25.9970  -27.4910 N.pl3 901  SAH901     -0.1439
     18  C8        33.0030   25.1790  -28.5170 C.3   901  SAH901      0.3377
     19  N7        33.5620   24.0530  -28.0780 N.2   901  SAH901     -0.2095
     20  C5        33.6980   24.1590  -26.7590 C.2   901  SAH901      0.2526
     21  C6        34.2000   23.3240  -25.7700 C.2   901  SAH901      0.4393
     22  N6        34.7300   22.1480  -26.0910 N.pl3 901  SAH901      0.2180
     23  N1        34.1740   23.7410  -24.4950 N.2   901  SAH901      0.0021
     24  C2        33.6890   24.9260  -24.1730 C.3   901  SAH901      0.5254
     25  N3        33.2090   25.7500  -25.0890 N.2   901  SAH901     -0.0055
     26  C4        33.1990   25.3970  -26.3820 C.2   901  SAH901      0.3518
@<TRIPOS>BOND
     1     5     9    1
     2     5     4    1
     3     9    10    1
     4    12    14    1
     5    12    10    1
     6    12    13    1
     7    14    15    1
     8    14    16    1
     9    18    19    1
    10    18    17    1
    11     3     4    1
    12     3     2    1
    13    10    11    1
    14    19    20    2
    15    11    16    1
    16    16    17    1
    17    17    26    1
    18     7     6   ar
    19     6     2    1
    20     6     8   ar
    21     2     1    1
    22    20    26    1
    23    20    21    1
    24    26    25    2
    25    22    21    1
    26    21    23    2
    27    25    24    1
    28    23    24    1
