@<TRIPOS>MOLECULE
3eve_G3A_A_1.pdb
 50 55 0 0 0
SMALL
GASTEIGER

@<TRIPOS>ATOM
      1  O36       30.3780   29.3300  -50.2170 O.2   902  G3A902     -0.2069
      2  C36       29.7830   28.2850  -49.9260 C.1   902  G3A902      0.2372
      3  N31       29.2410   27.4890  -50.9330 N.2   902  G3A902     -0.2485
      4  C32       28.5640   26.3100  -50.7300 C.1   902  G3A902      0.2531
      5  N32       28.1140   25.6800  -51.8290 N.pl3 902  G3A902     -0.0226
      6  N33       28.3430   25.7840  -49.5360 N.2   902  G3A902     -0.3074
      7  C35       29.5510   27.7290  -48.6380 C.2   902  G3A902      0.2182
      8  C34       28.8580   26.5410  -48.5450 C.2   902  G3A902      0.2300
      9  N37       29.9090   28.1920  -47.3780 N.2   902  G3A902     -0.2322
     10  C38       29.4320   27.2940  -46.5560 C.3   902  G3A902      0.2246
     11  N39       28.7780   26.2670  -47.2010 N.pl3 902  G3A902     -0.2354
     12  C41       28.1200   25.1070  -46.6020 C.3   902  G3A902      0.2293
     13  O44       27.2930   25.5550  -45.5390 O.3   902  G3A902     -0.3326
     14  C42       29.0880   24.0720  -46.0270 C.3   902  G3A902      0.2310
     15  O42       28.5450   22.7770  -46.1830 O.3   902  G3A902     -0.2158
     16  C43       29.1620   24.5140  -44.5700 C.3   902  G3A902      0.2158
     17  O43       29.5500   23.4560  -43.7030 O.3   902  G3A902     -0.2175
     18  C44       27.7320   24.9540  -44.2920 C.3   902  G3A902      0.1799
     19  C45       27.5830   25.9710  -43.1890 C.3   902  G3A902      0.1813
     20  O45       28.3830   27.1160  -43.4700 O.3   902  G3A902     -0.3112
     21  PA        28.7110   28.1600  -42.2900 P.3   902  G3A902      0.2189
     22  O1A       29.5950   29.3330  -42.9470 O.2   902  G3A902     -0.5170
     23  O2A       27.4850   28.6780  -41.6450 O.3   902  G3A902     -0.4371
     24  O1        29.6310   27.3780  -41.2240 O.3   902  G3A902     -0.2701
     25  PB        31.2340   27.5020  -41.2300 P.3   902  G3A902      0.2237
     26  O2B       31.7330   26.4470  -40.1240 O.3   902  G3A902     -0.4369
     27  O3B       31.7000   28.8770  -40.9470 O.2   902  G3A902     -0.5168
     28  O3A       31.7140   26.9430  -42.6620 O.3   902  G3A902     -0.2701
     29  PG        32.7620   25.7320  -42.8370 P.3   902  G3A902      0.2189
     30  O1G       31.7390   24.5010  -43.0080 O.2   902  G3A902     -0.5170
     31  O2G       33.4530   25.8050  -41.5290 O.3   902  G3A902     -0.4371
     32  O25       33.4290   26.2450  -44.2070 O.3   902  G3A902     -0.3112
     33  C25       34.5290   27.1530  -44.1660 C.3   902  G3A902      0.1813
     34  C24       34.5620   27.9950  -45.4090 C.3   902  G3A902      0.1821
     35  C23       33.2410   28.6480  -45.7990 C.3   902  G3A902      0.2184
     36  O23       33.0470   29.9000  -45.1450 O.3   902  G3A902     -0.2174
     37  C22       33.3880   28.8160  -47.3000 C.3   902  G3A902      0.2570
     38  O22       34.1770   29.9410  -47.6370 O.3   902  G3A902     -0.2130
     39  O24       34.8450   27.1050  -46.5170 O.3   902  G3A902     -0.3135
     40  C21       34.1590   27.5400  -47.6790 C.3   902  G3A902      0.3186
     41  N19       33.2970   26.4670  -48.1810 N.pl3 902  G3A902     -0.1439
     42  C14       32.9190   26.2210  -49.4870 C.2   902  G3A902      0.3518
     43  N13       33.2610   26.9030  -50.6070 N.2   902  G3A902     -0.0055
     44  C12       32.6900   26.3650  -51.7060 C.3   902  G3A902      0.5254
     45  N11       31.8810   25.2900  -51.7900 N.2   902  G3A902      0.0021
     46  C18       32.6820   25.4950  -47.4240 C.3   902  G3A902      0.3377
     47  N17       31.9440   24.6670  -48.1220 N.2   902  G3A902     -0.2095
     48  C15       32.0920   25.1060  -49.4280 C.2   902  G3A902      0.2526
     49  C16       31.5620   24.6240  -50.6480 C.2   902  G3A902      0.4393
     50  N16       30.7820   23.5410  -50.7210 N.pl3 902  G3A902      0.2180
@<TRIPOS>BOND
     1     5     4    1
     2    45    44    1
     3    45    49    2
     4    44    43    1
     5     3     4    2
     6     3     2    2
     7     4     6    2
     8    50    49    1
     9    49    48    1
    10    43    42    2
    11     1     2    2
    12     2     7    1
    13     6     8    2
    14    42    48    1
    15    42    41    1
    16    48    47    2
    17     7     8    1
    18     7     9    2
    19     8    11    1
    20    41    40    1
    21    41    46    1
    22    47    46    1
    23    40    37    1
    24    40    39    1
    25    38    37    1
    26     9    10    1
    27    37    35    1
    28    11    12    1
    29    11    10    1
    30    12    14    1
    31    12    13    1
    32    39    34    1
    33    15    14    1
    34    14    16    1
    35    35    34    1
    36    35    36    1
    37    13    18    1
    38    34    33    1
    39    16    18    1
    40    16    17    1
    41    18    19    1
    42    32    33    1
    43    32    29    1
    44    20    19    1
    45    20    21    1
    46    30    29    2
    47    22    21    2
    48    29    28    1
    49    29    31    1
    50    28    25    1
    51    21    23    1
    52    21    24    1
    53    25    24    1
    54    25    27    2
    55    25    26    1
