@<TRIPOS>MOLECULE
3evf_SAH_A_1.pdb
 26 28 0 0 0
SMALL
GASTEIGER

@<TRIPOS>ATOM
      1  N         24.6500   29.9210  -26.8440 N.3   901  SAH901     -0.1208
      2  CA        25.7120   30.9350  -26.9330 C.3   901  SAH901      0.1952
      3  CB        26.5280   30.7210  -28.2100 C.3   901  SAH901      0.0422
      4  CG        27.3130   29.4100  -28.1410 C.3   901  SAH901      0.0597
      5  SD        28.4150   29.1320  -29.5750 S.3   901  SAH901     -0.1375
      6  C         25.0730   32.3250  -26.9530 C.2   901  SAH901      0.3819
      7  O         25.8500   33.2960  -27.0860 O.co2 901  SAH901     -0.2441
      8  OXT       23.8310   32.3860  -26.8380 O.co2 901  SAH901     -0.2441
      9  C5'       29.3510   27.6770  -28.9790 C.3   901  SAH901      0.0899
     10  C4'       30.4600   28.0270  -27.9850 C.3   901  SAH901      0.1630
     11  O4'       30.9830   26.7970  -27.4560 O.3   901  SAH901     -0.3153
     12  C3'       31.6320   28.7580  -28.6480 C.3   901  SAH901      0.2168
     13  O3'       31.9890   29.9180  -27.8910 O.3   901  SAH901     -0.2175
     14  C2'       32.7590   27.7260  -28.5920 C.3   901  SAH901      0.2569
     15  O2'       34.0040   28.4090  -28.4200 O.3   901  SAH901     -0.2130
     16  C1'       32.3950   27.0000  -27.2980 C.3   901  SAH901      0.3185
     17  N9        33.0540   25.6780  -27.2010 N.pl3 901  SAH901     -0.1439
     18  C8        33.2860   24.8370  -28.2070 C.3   901  SAH901      0.3377
     19  N7        33.8580   23.7300  -27.7390 N.2   901  SAH901     -0.2095
     20  C5        33.9890   23.8600  -26.4220 C.2   901  SAH901      0.2526
     21  C6        34.4910   23.0540  -25.4100 C.2   901  SAH901      0.4393
     22  N6        35.0210   21.8650  -25.6860 N.pl3 901  SAH901      0.2180
     23  N1        34.4500   23.4990  -24.1470 N.2   901  SAH901      0.0021
     24  C2        33.9500   24.6910  -23.8590 C.3   901  SAH901      0.5254
     25  N3        33.4700   25.4850  -24.7950 N.2   901  SAH901     -0.0055
     26  C4        33.4720   25.1020  -26.0810 C.2   901  SAH901      0.3518
@<TRIPOS>BOND
     1     5     9    1
     2     5     4    1
     3     9    10    1
     4    12    14    1
     5    12    10    1
     6    12    13    1
     7    14    15    1
     8    14    16    1
     9     3     4    1
    10     3     2    1
    11    18    19    1
    12    18    17    1
    13    10    11    1
    14    19    20    2
    15    11    16    1
    16    16    17    1
    17    17    26    1
    18     7     6   ar
    19     6     2    1
    20     6     8   ar
    21     2     1    1
    22    20    26    1
    23    20    21    1
    24    26    25    2
    25    22    21    1
    26    21    23    2
    27    25    24    1
    28    23    24    1
