@<TRIPOS>MOLECULE
3evf_GTA_A_1.pdb
 26 28 0 0 0
SMALL
GASTEIGER

@<TRIPOS>ATOM
      1  N2        28.7050   25.0730  -51.7510 N.pl3 902  GTA902     -0.0226
      2  O6        31.1070   28.6800  -50.2540 O.2   902  GTA902     -0.2115
      3  C6        30.4680   27.6690  -49.9320 C.1   902  GTA902      0.2145
      4  C5        30.2030   27.1680  -48.6310 C.3   902  GTA902      0.2475
      5  N7        30.5630   27.6460  -47.3840 N.3   902  GTA902     -0.2343
      6  C7        31.3560   28.8600  -47.0870 C.3   902  GTA902      0.0924
      7  C8        30.0600   26.8130  -46.5200 C.3   902  GTA902      0.1735
      8  N9        29.3640   25.7920  -47.1330 N.pl3 902  GTA902     -0.2454
      9  C4        29.4630   26.0130  -48.5000 C.2   902  GTA902      0.2086
     10  N3        28.9250   25.2430  -49.4670 N.2   902  GTA902     -0.3118
     11  C2        29.1750   25.7190  -50.6750 C.1   902  GTA902      0.2525
     12  N1        29.9010   26.8610  -50.9130 N.2   902  GTA902     -0.2526
     13  O3A       29.8650   23.0910  -43.4800 O.3   902  GTA902     -0.2175
     14  C1A       28.6450   24.6940  -46.4910 C.3   902  GTA902      0.2287
     15  C2A       29.5500   23.6480  -45.8340 C.3   902  GTA902      0.2310
     16  C3A       29.5830   24.1440  -44.3940 C.3   902  GTA902      0.2158
     17  C4A       28.1700   24.6700  -44.1940 C.3   902  GTA902      0.1799
     18  C5A       28.0400   25.7420  -43.1410 C.3   902  GTA902      0.1813
     19  O4A       27.8160   25.2410  -45.4820 O.3   902  GTA902     -0.3326
     20  O2A       28.9680   22.3680  -45.9670 O.3   902  GTA902     -0.2158
     21  P1        28.6640   28.2950  -42.9070 P.3   902  GTA902      0.2174
     22  O11       29.3820   29.2700  -43.9680 O.2   902  GTA902     -0.5170
     23  O12       27.2240   28.6020  -42.7620 O.3   902  GTA902     -0.4371
     24  O13       29.4730   28.4810  -41.5280 O.3   902  GTA902     -0.2900
     25  O15       28.9620   26.7950  -43.4090 O.3   902  GTA902     -0.3112
     26  P2        28.7830   28.1060  -40.1220 P.3   902  GTA902      0.1565
@<TRIPOS>BOND
     1     1    11    1
     2    12    11    2
     3    12     3    2
     4    11    10    2
     5     2     3    2
     6     3     4    1
     7    10     9    2
     8     4     9    1
     9     4     5    1
    10     9     8    1
    11     5     6    1
    12     5     7    1
    13     8     7    1
    14     8    14    1
    15    14    15    1
    16    14    19    1
    17    20    15    1
    18    15    16    1
    19    19    17    1
    20    16    17    1
    21    16    13    1
    22    17    18    1
    23    22    21    2
    24    25    18    1
    25    25    21    1
    26    21    23    1
    27    21    24    1
    28    24    26    1
