@<TRIPOS>MOLECULE
3evg_SAH_A_1.pdb
 26 28 0 0 0
SMALL
GASTEIGER

@<TRIPOS>ATOM
      1  N        -91.2610   65.5860  -38.6640 N.3   901  SAH901     -0.1208
      2  CA       -91.1260   64.1260  -38.8060 C.3   901  SAH901      0.1952
      3  CB       -90.9660   63.5030  -37.4240 C.3   901  SAH901      0.0422
      4  CG       -89.5170   63.0550  -37.2300 C.3   901  SAH901      0.0597
      5  SD       -89.1640   62.3740  -35.5670 S.3   901  SAH901     -0.1375
      6  C        -92.3800   63.5780  -39.4650 C.2   901  SAH901      0.3819
      7  O        -93.4000   64.2780  -39.4000 O.co2 901  SAH901     -0.2441
      8  OXT      -92.2910   62.4510  -40.0150 O.co2 901  SAH901     -0.2441
      9  C5'      -87.4760   63.0470  -35.3470 C.3   901  SAH901      0.0899
     10  C4'      -86.3620   62.3080  -36.1080 C.3   901  SAH901      0.1630
     11  O4'      -85.1040   62.9200  -35.7640 O.3   901  SAH901     -0.3153
     12  C3'      -86.2370   60.8450  -35.6630 C.3   901  SAH901      0.2168
     13  O3'      -86.6800   59.9850  -36.7180 O.3   901  SAH901     -0.2175
     14  C2'      -84.7280   60.6430  -35.4590 C.3   901  SAH901      0.2569
     15  O2'      -84.3150   59.5140  -36.2350 O.3   901  SAH901     -0.2130
     16  C1'      -84.1390   61.9050  -36.0970 C.3   901  SAH901      0.3185
     17  N9       -82.8490   62.2660  -35.4560 N.pl3 901  SAH901     -0.1439
     18  C8       -82.5870   62.2590  -34.1540 C.3   901  SAH901      0.3377
     19  N7       -81.3590   62.7280  -33.9450 N.2   901  SAH901     -0.2095
     20  C5       -80.8300   63.0340  -35.1360 C.2   901  SAH901      0.2526
     21  C6       -79.6210   63.5660  -35.5360 C.2   901  SAH901      0.4393
     22  N6       -78.6660   63.8340  -34.6590 N.pl3 901  SAH901      0.2180
     23  N1       -79.4170   63.7770  -36.8560 N.2   901  SAH901      0.0021
     24  C2       -80.3400   63.4790  -37.7390 C.3   901  SAH901      0.5254
     25  N3       -81.5090   62.9640  -37.3890 N.2   901  SAH901     -0.0055
     26  C4       -81.7740   62.7370  -36.0950 C.2   901  SAH901      0.3518
@<TRIPOS>BOND
     1     8     6   ar
     2     6     7   ar
     3     6     2    1
     4     2     1    1
     5     2     3    1
     6    24    25    1
     7    24    23    1
     8     3     4    1
     9    25    26    2
    10     4     5    1
    11    23    21    2
    12    13    12    1
    13    15    14    1
    14    10    11    1
    15    10    12    1
    16    10     9    1
    17    16    11    1
    18    16    14    1
    19    16    17    1
    20    26    17    1
    21    26    20    1
    22    12    14    1
    23     5     9    1
    24    21    20    1
    25    21    22    1
    26    17    18    1
    27    20    19    2
    28    18    19    1
