@<TRIPOS>MOLECULE
3evm_YYY_A_1.pdb
 24 25 0 0 0
SMALL
GASTEIGER

@<TRIPOS>ATOM
      1  O3B       52.4100   13.3590   32.4230 O.3   201  YYY201     -0.1143
      2  PB        51.5750   12.0680   32.0030 P.3   201  YYY201      0.5373
      3  O1B       50.0920   12.3720   32.1650 O.3   201  YYY201     -0.1143
      4  O2B       52.0310   11.5830   30.6470 O.2   201  YYY201     -0.2221
      5  O3A       51.7880   10.8950   33.1110 O.3   201  YYY201     -0.2261
      6  PA        53.0710   10.3990   33.9880 P.3   201  YYY201      0.2231
      7  O1A       52.4890    9.9440   35.3190 O.3   201  YYY201     -0.4370
      8  O2A       54.1950   11.3790   33.9780 O.2   201  YYY201     -0.5169
      9  O5'       53.4450    9.0540   33.1930 O.3   201  YYY201     -0.3111
     10  C5'       54.3470    9.0310   32.0990 C.3   201  YYY201      0.1812
     11  C4'       53.8050    8.0130   31.1080 C.3   201  YYY201      0.1773
     12  O4'       53.8650    6.7020   31.6830 O.3   201  YYY201     -0.3339
     13  C3'       52.3300    8.2210   30.7540 C.3   201  YYY201      0.1857
     14  O3'       52.1270    9.0740   29.6290 O.3   201  YYY201     -0.2203
     15  C2'       51.8720    6.8300   30.3760 C.3   201  YYY201      0.0874
     16  C1'       52.8060    5.9080   31.1520 C.3   201  YYY201      0.2090
     17  N1        52.0740    5.3340   32.2930 N.am  201  YYY201     -0.1802
     18  C2        51.4550    4.0720   32.1920 C.1   201  YYY201      0.2756
     19  O2        51.5420    3.3890   31.1340 O.2   201  YYY201     -0.1925
     20  N3        50.7610    3.6040   33.2560 N.2   201  YYY201     -0.3024
     21  C4        50.6520    4.3180   34.3970 C.2   201  YYY201      0.2346
     22  N4        49.9620    3.7960   35.4540 N.pl3 201  YYY201     -0.0921
     23  C5        51.2470    5.5680   34.4960 C.2   201  YYY201      0.0687
     24  C6        51.9520    6.0690   33.4100 C.2   201  YYY201      0.0835
@<TRIPOS>BOND
     1    14    13    1
     2    15    13    1
     3    15    16    1
     4     4     2    2
     5    13    11    1
     6    11    12    1
     7    11    10    1
     8    19    18    2
     9    16    12    1
    10    16    17    1
    11     2     3    1
    12     2     1    1
    13     2     5    1
    14    10     9    1
    15    18    17   am
    16    18    20    2
    17    17    24    1
    18     5     6    1
    19     9     6    1
    20    20    21    2
    21    24    23    2
    22     8     6    2
    23     6     7    1
    24    21    23    1
    25    21    22    1
