@<TRIPOS>MOLECULE
3evo_TYD_A_1.pdb
 25 26 0 0 0
SMALL
GASTEIGER

@<TRIPOS>ATOM
      1  PA        52.3250    9.6080   -9.0110 P.3   160  TYD160      0.2231
      2  O1A       52.0360    8.1540   -9.0200 O.3   160  TYD160     -0.4370
      3  O2A       52.3820   10.3830  -10.2870 O.2   160  TYD160     -0.5169
      4  O3A       51.2950   10.3800   -8.0180 O.3   160  TYD160     -0.2261
      5  PB        50.0840    9.9310   -7.0380 P.3   160  TYD160      0.5373
      6  O1B       50.7010    9.8310   -5.6890 O.3   160  TYD160     -0.1143
      7  O2B       49.1280   11.0830   -7.2080 O.3   160  TYD160     -0.1143
      8  O3B       49.5360    8.6210   -7.5540 O.2   160  TYD160     -0.2221
      9  O5'       53.7280    9.8570   -8.2960 O.3   160  TYD160     -0.3111
     10  C5'       54.0910    9.0480   -7.1830 C.3   160  TYD160      0.1812
     11  C4'       54.7270    9.9170   -6.1210 C.3   160  TYD160      0.1773
     12  O4'       55.9470   10.4660   -6.6340 O.3   160  TYD160     -0.3339
     13  C3'       53.8980   11.1430   -5.7610 C.3   160  TYD160      0.1857
     14  O3'       52.9160   10.8660   -4.7450 O.3   160  TYD160     -0.2203
     15  C2'       54.9450   12.1300   -5.2570 C.3   160  TYD160      0.0874
     16  C1'       56.1840   11.7570   -6.0800 C.3   160  TYD160      0.2090
     17  N1        56.3420   12.7130   -7.1810 N.am  160  TYD160     -0.1794
     18  C2        57.2890   13.7430   -7.0730 C.1   160  TYD160      0.2844
     19  O2        57.9900   13.8030   -6.0660 O.2   160  TYD160     -0.1918
     20  N3        57.4500   14.6420   -8.0550 N.2   160  TYD160     -0.2455
     21  C4        56.7050   14.6000   -9.1570 C.1   160  TYD160      0.2134
     22  O4        56.8820   15.4530  -10.0660 O.2   160  TYD160     -0.2088
     23  C5        55.6880   13.5300   -9.3050 C.2   160  TYD160      0.0891
     24  C5M       54.8340   13.4340  -10.5420 C.3   160  TYD160      0.0462
     25  C6        55.5550   12.6050   -8.2730 C.2   160  TYD160      0.0877
@<TRIPOS>BOND
     1    24    23    1
     2     3     1    2
     3    22    21    2
     4    23    21    1
     5    23    25    2
     6    21    20    2
     7     2     1    1
     8     1     9    1
     9     1     4    1
    10     9    10    1
    11    25    17    1
    12    20    18    2
    13     4     5    1
    14     8     5    2
    15     7     5    1
    16    10    11    1
    17    17    18   am
    18    17    16    1
    19    18    19    2
    20     5     6    1
    21    12    11    1
    22    12    16    1
    23    11    13    1
    24    16    15    1
    25    13    15    1
    26    13    14    1
