@<TRIPOS>MOLECULE
3evq_THP_A_1.pdb
 25 26 0 0 0
SMALL
GASTEIGER

@<TRIPOS>ATOM
      1  P2        17.9400   10.7860    4.9300 P.3   150  THP150      0.5327
      2  O4P       16.6970   11.5710    5.2980 O.3   150  THP150     -0.1145
      3  O5P       17.8550    9.3030    5.2240 O.2   150  THP150     -0.2224
      4  O6P       19.2400   11.4050    5.3240 O.3   150  THP150     -0.1145
      5  P1        21.2110   14.2400    0.9780 P.3   150  THP150      0.5326
      6  O1P       22.1950   14.7930   -0.0210 O.2   150  THP150     -0.2224
      7  O2P       21.7710   13.1100    1.8110 O.3   150  THP150     -0.1145
      8  O3P       20.5030   15.2800    1.8060 O.3   150  THP150     -0.1145
      9  O5'       17.9860   10.8200    3.3250 O.3   150  THP150     -0.2675
     10  C5'       17.8740   12.0490    2.6080 C.3   150  THP150      0.1857
     11  C4'       18.8690   12.0000    1.4550 C.3   150  THP150      0.1748
     12  O4'       18.5510   10.8580    0.6700 O.3   150  THP150     -0.3340
     13  C3'       18.7860   13.2140    0.5330 C.3   150  THP150      0.1600
     14  O3'       20.0910   13.5510    0.0450 O.3   150  THP150     -0.2700
     15  C2'       17.9850   12.7320   -0.6510 C.3   150  THP150      0.0847
     16  C1'       18.1550   11.2180   -0.6460 C.3   150  THP150      0.2089
     17  N1        16.8670   10.6080   -1.0040 N.am  150  THP150     -0.1794
     18  C2        16.5860   10.4230   -2.3830 C.1   150  THP150      0.2844
     19  O2        17.4630   10.7160   -3.2140 O.2   150  THP150     -0.1918
     20  N3        15.4180    9.9220   -2.8100 N.2   150  THP150     -0.2455
     21  C4        14.4430    9.6490   -1.9270 C.1   150  THP150      0.2134
     22  O4        13.3620    9.1890   -2.3190 O.2   150  THP150     -0.2088
     23  C5        14.6920    9.8450   -0.4730 C.2   150  THP150      0.0891
     24  C5M       13.6380    9.4920    0.5400 C.3   150  THP150      0.0462
     25  C6        15.9300   10.3440   -0.0840 C.2   150  THP150      0.0877
@<TRIPOS>BOND
     1    19    18    2
     2    20    18    2
     3    20    21    2
     4    18    17   am
     5    22    21    2
     6    21    23    1
     7    17    16    1
     8    17    25    1
     9    15    16    1
    10    15    13    1
    11    16    12    1
    12    23    25    2
    13    23    24    1
    14     6     5    2
    15    14    13    1
    16    14     5    1
    17    13    11    1
    18    12    11    1
    19     5     8    1
    20     5     7    1
    21    11    10    1
    22    10     9    1
    23     9     1    1
    24     1     3    2
    25     1     2    1
    26     1     4    1
