@<TRIPOS>MOLECULE
3evw_TYD_A_1.pdb
 25 26 0 0 0
SMALL
GASTEIGER

@<TRIPOS>ATOM
      1  PA       -11.3150   16.1190   17.7810 P.3   138  TYD138      0.2231
      2  O1A      -10.7520   16.0260   19.1900 O.3   138  TYD138     -0.4370
      3  O2A      -11.5190   17.4620   17.1200 O.2   138  TYD138     -0.5169
      4  O3A      -10.4330   15.2030   16.7750 O.3   138  TYD138     -0.2261
      5  PB        -9.1220   14.3890   17.2700 P.3   138  TYD138      0.5373
      6  O1B       -9.4910   12.9350   17.0870 O.3   138  TYD138     -0.1143
      7  O2B       -8.9420   14.7540   18.7280 O.3   138  TYD138     -0.1143
      8  O3B       -8.1030   14.9620   16.3050 O.2   138  TYD138     -0.2221
      9  O5'      -12.6930   15.3090   17.6570 O.3   138  TYD138     -0.3111
     10  C5'      -12.7840   14.0170   18.2520 C.3   138  TYD138      0.1812
     11  C4'      -13.4460   13.1160   17.2100 C.3   138  TYD138      0.1773
     12  O4'      -14.7450   13.6270   16.9140 O.3   138  TYD138     -0.3339
     13  C3'      -12.7300   13.1080   15.8620 C.3   138  TYD138      0.1857
     14  O3'      -11.7650   12.0510   15.8040 O.3   138  TYD138     -0.2203
     15  C2'      -13.8360   12.9210   14.8280 C.3   138  TYD138      0.0874
     16  C1'      -15.0750   13.4410   15.5420 C.3   138  TYD138      0.2090
     17  N1       -15.4300   14.7400   15.0010 N.am  138  TYD138     -0.1794
     18  C2       -16.4910   14.8240   14.0730 C.1   138  TYD138      0.2844
     19  O2       -17.0960   13.7840   13.7430 O.2   138  TYD138     -0.1918
     20  N3       -16.8700   15.9870   13.5400 N.2   138  TYD138     -0.2455
     21  C4       -16.2440   17.1130   13.8820 C.1   138  TYD138      0.2134
     22  O4       -16.5930   18.2140   13.3880 O.2   138  TYD138     -0.2088
     23  C5       -15.1270   17.0570   14.8570 C.2   138  TYD138      0.0891
     24  C5M      -14.4350   18.3460   15.2210 C.3   138  TYD138      0.0462
     25  C6       -14.7650   15.8280   15.4080 C.2   138  TYD138      0.0877
@<TRIPOS>BOND
     1    22    21    2
     2    20    21    2
     3    20    18    2
     4    19    18    2
     5    21    23    1
     6    18    17   am
     7    15    16    1
     8    15    13    1
     9    23    24    1
    10    23    25    2
    11    17    25    1
    12    17    16    1
    13    16    12    1
    14    14    13    1
    15    13    11    1
    16     8     5    2
    17     4     5    1
    18     4     1    1
    19    12    11    1
    20     6     5    1
    21     3     1    2
    22    11    10    1
    23     5     7    1
    24     9     1    1
    25     9    10    1
    26     1     2    1
