@<TRIPOS>MOLECULE
3ew2_BTN_A_1.pdb
 16 17 0 0 0
SMALL
GASTEIGER

@<TRIPOS>ATOM
      1  C11        1.3300   83.2500   24.1990 C.2   400  BTN400      0.3649
      2  O11        1.1350   84.4600   24.4440 O.co2 400  BTN400     -0.2457
      3  O12        0.8730   82.7640   23.1420 O.co2 400  BTN400     -0.2457
      4  C10        2.1070   82.3880   25.1650 C.3   400  BTN400      0.1141
      5  C9         3.2270   83.2100   25.7920 C.3   400  BTN400      0.0118
      6  C8         4.5190   83.0680   24.9960 C.3   400  BTN400      0.0015
      7  C7         5.6630   83.8120   25.6760 C.3   400  BTN400      0.0129
      8  C2         6.7450   84.1840   24.6690 C.3   400  BTN400      0.0729
      9  S1         7.4220   82.7940   24.0380 S.3   400  BTN400     -0.1369
     10  C6         8.9960   83.6350   23.7290 C.3   400  BTN400      0.0848
     11  C5         9.1700   84.7920   24.6970 C.3   400  BTN400      0.1509
     12  N1         9.9520   84.3590   25.8400 N.2   400  BTN400     -0.1859
     13  C3         9.2280   84.3340   26.9510 C.1   400  BTN400      0.2386
     14  O3         9.7110   83.9420   28.2160 O.2   400  BTN400     -0.2023
     15  N2         7.9860   84.7280   26.7050 N.2   400  BTN400     -0.1860
     16  C4         7.8030   85.0800   25.3090 C.3   400  BTN400      0.1500
@<TRIPOS>BOND
     1     3     1   ar
     2    10     9    1
     3    10    11    1
     4     9     8    1
     5     1     2   ar
     6     1     4    1
     7     8    16    1
     8     8     7    1
     9    11    16    1
    10    11    12    1
    11     6     7    1
    12     6     5    1
    13     4     5    1
    14    16    15    1
    15    12    13    2
    16    15    13    2
    17    13    14    2
