@<TRIPOS>MOLECULE
3ew5_1GP_A_1.pdb
 10 9 0 0 0
SMALL
GASTEIGER

@<TRIPOS>ATOM
      1  C3        64.9220   33.3160   37.3340 C.3     9  1GP9        0.2174
      2  O3        64.6720   33.9680   35.0230 O.3     9  1GP9       -0.2176
      3  C2        63.9500   33.6300   36.1910 C.3     9  1GP9        0.2147
      4  O2        65.5620   32.0790   37.0680 O.3     9  1GP9       -0.2175
      5  C1        62.8870   34.6970   36.5330 C.3     9  1GP9        0.1892
      6  O1P       61.6040   34.0990   36.3270 O.3     9  1GP9       -0.2674
      7  O2P       60.6720   36.1060   35.1200 O.2     9  1GP9       -0.2224
      8  O3P       59.5150   35.2700   37.2150 O.3     9  1GP9       -0.1145
      9  O4P       59.2630   34.0310   35.1200 O.3     9  1GP9       -0.1145
     10  P         60.2320   34.8920   35.9300 P.3     9  1GP9        0.5327
@<TRIPOS>BOND
     1     2     3    1
     2     7    10    2
     3     9    10    1
     4    10     6    1
     5    10     8    1
     6     3     5    1
     7     3     1    1
     8     6     5    1
     9     4     1    1
