@<TRIPOS>MOLECULE
3ew8_B3N_A_1.pdb
 22 22 0 0 0
SMALL
GASTEIGER

@<TRIPOS>ATOM
      1  O23       -0.6650   44.5430    0.3420 O.2   501  B3N501     -0.2684
      2  C13       -0.0800   44.8390    1.0920 C.2   501  B3N501      0.2648
      3  C14       -0.2250   46.2860    1.5870 C.ar  501  B3N501      0.0551
      4  C15        0.6320   46.8190    2.6280 C.ar  501  B3N501      0.0058
      5  C16        0.4810   48.1960    3.0650 C.ar  501  B3N501      0.0147
      6  C17       -0.5190   49.0800    2.4780 C.ar  501  B3N501      0.0479
      7  N20       -0.6710   50.4700    2.9000 N.pl3 501  B3N501     -0.3041
      8  C22       -1.6830   51.3550    2.3030 C.3   501  B3N501      0.1122
      9  C21        0.1690   51.0910    3.9260 C.3   501  B3N501      0.1122
     10  C18       -1.3880   48.5080    1.4160 C.ar  501  B3N501      0.0147
     11  C19       -1.2270   47.1570    1.0010 C.ar  501  B3N501      0.0058
     12  N12        0.8460   44.0310    1.6760 N.am  501  B3N501     -0.2017
     13  C10        1.2010   42.6220    1.3770 C.3   501  B3N501      0.1155
     14  C9         0.5810   41.5360    2.2780 C.3   501  B3N501      0.0234
     15  C8         1.5070   40.3160    2.4280 C.3   501  B3N501      0.0018
     16  C7         1.0820   39.0960    1.6270 C.3   501  B3N501      0.0006
     17  C6         1.7880   37.8200    2.0820 C.3   501  B3N501      0.0097
     18  C5         0.7520   36.8290    2.6170 C.3   501  B3N501      0.0904
     19  C1         1.1180   35.3520    2.4140 C.2   501  B3N501      0.2838
     20  O2         0.5610   34.4820    3.0730 O.2   501  B3N501     -0.2698
     21  N3         2.0400   35.0230    1.5170 N.am  501  B3N501      0.0385
     22  O4         2.3460   33.8480    1.3390 O.2   501  B3N501     -0.1531
@<TRIPOS>BOND
     1     1     2    2
     2    11    10   ar
     3    11     3   ar
     4     2     3    1
     5     2    12   am
     6    22    21    2
     7    13    12    1
     8    13    14    1
     9    10     6   ar
    10    21    19    1
    11     3     4   ar
    12    16    17    1
    13    16    15    1
    14    17    18    1
    15    14    15    1
    16     8     7    1
    17    19    18    1
    18    19    20    2
    19     6     7    1
    20     6     5   ar
    21     4     5   ar
    22     7     9    1
