@<TRIPOS>MOLECULE
3ew9_ANP_A_1.pdb
 31 33 0 0 0
SMALL
GASTEIGER

@<TRIPOS>ATOM
      1  PG        25.4020   58.4910  -10.0840 P.3   401  ANP401      0.4884
      2  O1G       25.8060   58.3710   -8.7310 O.3   401  ANP401     -0.1240
      3  O2G       23.9250   58.4000  -10.1720 O.3   401  ANP401     -0.1240
      4  O3G       25.8330   59.7630  -10.5820 O.2   401  ANP401     -0.2331
      5  PB        25.8290   55.7390  -10.7720 P.3   401  ANP401      0.4669
      6  O1B       24.8800   55.4930   -9.6530 O.3   401  ANP401     -0.1253
      7  O2B       27.1030   55.1510  -10.4200 O.2   401  ANP401     -0.2351
      8  N3B       26.0810   57.2800  -11.0000 N.3   401  ANP401     -0.0163
      9  PA        24.0450   54.0780  -12.2810 P.3   401  ANP401      0.2220
     10  O1A       24.1760   52.9640  -11.2360 O.3   401  ANP401     -0.4370
     11  O2A       22.7870   54.8380  -12.0550 O.2   401  ANP401     -0.5170
     12  O3A       25.3220   55.0800  -12.1710 O.3   401  ANP401     -0.2360
     13  O5'       24.0110   53.3960  -13.7870 O.3   401  ANP401     -0.3111
     14  C5'       23.9690   54.2480  -15.0500 C.3   401  ANP401      0.1813
     15  C4'       24.0400   53.4650  -16.1470 C.3   401  ANP401      0.1821
     16  O4'       23.2400   52.2350  -15.9400 O.3   401  ANP401     -0.3135
     17  C3'       23.2840   54.1750  -17.3210 C.3   401  ANP401      0.2184
     18  O3'       23.8640   55.3260  -17.7970 O.3   401  ANP401     -0.2174
     19  C2'       22.6590   53.0390  -18.1750 C.3   401  ANP401      0.2570
     20  O2'       23.5380   52.7710  -19.4030 O.3   401  ANP401     -0.2130
     21  C1'       22.6700   51.8320  -17.2150 C.3   401  ANP401      0.3186
     22  N9        21.4110   51.3840  -17.0760 N.pl3 401  ANP401     -0.1439
     23  C8        20.4520   51.8100  -16.1430 C.3   401  ANP401      0.3377
     24  N7        19.3580   51.1540  -16.3290 N.2   401  ANP401     -0.2095
     25  C5        19.5320   50.2900  -17.3610 C.2   401  ANP401      0.2526
     26  C6        18.7190   49.3630  -17.9880 C.2   401  ANP401      0.4393
     27  N6        17.4510   49.1870  -17.5760 N.pl3 401  ANP401      0.2180
     28  N1        19.2320   48.6080  -19.0630 N.2   401  ANP401      0.0021
     29  C2        20.5700   48.7880  -19.5080 C.3   401  ANP401      0.5254
     30  N3        21.3930   49.6950  -18.9130 N.2   401  ANP401     -0.0055
     31  C4        20.8230   50.4280  -17.8320 C.2   401  ANP401      0.3518
@<TRIPOS>BOND
     1    29    28    1
     2    29    30    1
     3    20    19    1
     4    28    26    2
     5    30    31    2
     6    19    17    1
     7    19    21    1
     8    26    27    1
     9    26    25    1
    10    31    25    1
    11    31    22    1
    12    18    17    1
    13    25    24    2
    14    17    15    1
    15    21    22    1
    16    21    16    1
    17    22    23    1
    18    24    23    1
    19    15    16    1
    20    15    14    1
    21    14    13    1
    22    13     9    1
    23     9    12    1
    24     9    11    2
    25     9    10    1
    26    12     5    1
    27     8     5    1
    28     8     1    1
    29     5     7    2
    30     5     6    1
    31     4     1    2
    32     3     1    1
    33     1     2    1
