@<TRIPOS>MOLECULE
3ewa_ANP_A_1.pdb
 31 33 0 0 0
SMALL
GASTEIGER

@<TRIPOS>ATOM
      1  PG        25.2400   58.4340   -9.9380 P.3   401  ANP401      0.4884
      2  O1G       26.3690   58.5650   -9.0720 O.3   401  ANP401     -0.1240
      3  O2G       24.0730   58.0510   -9.0970 O.3   401  ANP401     -0.1240
      4  O3G       25.1210   59.7300  -10.5450 O.2   401  ANP401     -0.2331
      5  PB        25.7800   55.7360  -10.8070 P.3   401  ANP401      0.4669
      6  O1B       25.1690   55.3210   -9.5240 O.3   401  ANP401     -0.1253
      7  O2B       27.2000   55.4480  -10.6340 O.2   401  ANP401     -0.2351
      8  N3B       25.7070   57.3000  -11.0590 N.3   401  ANP401     -0.0163
      9  PA        24.0110   54.0530  -12.2480 P.3   401  ANP401      0.2220
     10  O1A       24.0770   52.8940  -11.2500 O.3   401  ANP401     -0.4370
     11  O2A       22.8110   54.8900  -12.0000 O.2   401  ANP401     -0.5170
     12  O3A       25.3320   54.9450  -12.1200 O.3   401  ANP401     -0.2360
     13  O5'       23.9880   53.4120  -13.7690 O.3   401  ANP401     -0.3111
     14  C5'       23.7280   54.2410  -15.0140 C.3   401  ANP401      0.1813
     15  C4'       23.8980   53.4620  -16.0980 C.3   401  ANP401      0.1821
     16  O4'       23.1550   52.1860  -15.9220 O.3   401  ANP401     -0.3135
     17  C3'       23.1700   54.1130  -17.3120 C.3   401  ANP401      0.2184
     18  O3'       23.6990   55.3020  -17.7670 O.3   401  ANP401     -0.2174
     19  C2'       22.6810   52.9270  -18.1920 C.3   401  ANP401      0.2570
     20  O2'       23.7250   52.6770  -19.2860 O.3   401  ANP401     -0.2130
     21  C1'       22.6750   51.7400  -17.2210 C.3   401  ANP401      0.3186
     22  N9        21.4000   51.2890  -17.1240 N.pl3 401  ANP401     -0.1439
     23  C8        20.4080   51.7250  -16.2310 C.3   401  ANP401      0.3377
     24  N7        19.3140   51.0630  -16.4460 N.2   401  ANP401     -0.2095
     25  C5        19.5220   50.1870  -17.4580 C.2   401  ANP401      0.2526
     26  C6        18.7250   49.2430  -18.1020 C.2   401  ANP401      0.4393
     27  N6        17.4350   49.0650  -17.7350 N.pl3 401  ANP401      0.2180
     28  N1        19.2760   48.4800  -19.1450 N.2   401  ANP401      0.0021
     29  C2        20.6260   48.6570  -19.5450 C.3   401  ANP401      0.5254
     30  N3        21.4320   49.5710  -18.9370 N.2   401  ANP401     -0.0055
     31  C4        20.8300   50.3200  -17.8870 C.2   401  ANP401      0.3518
@<TRIPOS>BOND
     1    29    28    1
     2    29    30    1
     3    20    19    1
     4    28    26    2
     5    30    31    2
     6    19    17    1
     7    19    21    1
     8    26    27    1
     9    26    25    1
    10    31    25    1
    11    31    22    1
    12    18    17    1
    13    25    24    2
    14    17    15    1
    15    21    22    1
    16    21    16    1
    17    22    23    1
    18    24    23    1
    19    15    16    1
    20    15    14    1
    21    14    13    1
    22    13     9    1
    23     9    12    1
    24     9    11    2
    25     9    10    1
    26    12     5    1
    27     8     5    1
    28     8     1    1
    29     5     7    2
    30     5     6    1
    31     4     1    2
    32     1     3    1
    33     1     2    1
