@<TRIPOS>MOLECULE
3ewc_MCF_A_1.pdb
 21 23 0 0 0
SMALL
GASTEIGER

@<TRIPOS>ATOM
      1  O8        -8.5720   25.3470  -11.9680 O.3   373  MCF373     -0.2148
      2  C8        -7.2380   25.2030  -12.5040 C.3   373  MCF373      0.2160
      3  C7        -7.0260   23.9890  -13.4160 C.3   373  MCF373      0.1324
      4  N6        -7.5600   22.7840  -12.7820 N.3   373  MCF373     -0.1639
      5  C5        -7.0020   22.1630  -11.7120 C.3   373  MCF373      0.3566
      6  N4        -6.1950   22.6390  -10.8310 N.2   373  MCF373     -0.0431
      7  C10       -5.7160   23.9210  -10.7050 C.2   373  MCF373      0.3392
      8  C9        -6.2370   25.0970  -11.4450 C.2   373  MCF373      0.1710
      9  N1        -5.5130   26.1050  -10.9690 N.2   373  MCF373     -0.2182
     10  C2        -4.6640   25.6360  -10.0140 C.3   373  MCF373      0.3373
     11  N3        -4.7800   24.3160   -9.8320 N.pl3 373  MCF373     -0.1444
     12  C1S       -3.9490   23.6200   -8.8190 C.3   373  MCF373      0.3185
     13  C2S       -4.4260   22.2450   -8.4020 C.3   373  MCF373      0.2569
     14  O2S       -5.2880   22.4130   -7.2720 O.3   373  MCF373     -0.2130
     15  O4S       -2.5760   23.5090   -9.2240 O.3   373  MCF373     -0.3153
     16  C4S       -2.1300   22.1900   -8.9420 C.3   373  MCF373      0.1630
     17  C3S       -3.1320   21.5820   -7.9700 C.3   373  MCF373      0.2168
     18  O3S       -2.9080   21.9950   -6.6060 O.3   373  MCF373     -0.2175
     19  C5S       -1.7430   21.3560  -10.1550 C.3   373  MCF373      0.0899
     20  S5S       -0.4360   20.2860   -9.6220 S.3   373  MCF373     -0.1367
     21  C6S       -1.0440   18.6650   -9.3520 C.3   373  MCF373      0.0693
@<TRIPOS>BOND
     1     3     4    1
     2     3     2    1
     3     4     5    1
     4     2     1    1
     5     2     8    1
     6     5     6    1
     7     8     9    2
     8     8     7    1
     9     9    10    1
    10     6     7    2
    11     7    11    1
    12    19    20    1
    13    19    16    1
    14    10    11    1
    15    11    12    1
    16    20    21    1
    17    15    16    1
    18    15    12    1
    19    16    17    1
    20    12    13    1
    21    13    17    1
    22    13    14    1
    23    17    18    1
