@<TRIPOS>MOLECULE
3ewd_MCF_A_1.pdb
 21 23 0 0 0
SMALL
GASTEIGER

@<TRIPOS>ATOM
      1  O8        -9.5280   -1.6190  -25.0260 O.3   372  MCF372     -0.2148
      2  C8        -9.1400   -2.9800  -25.0870 C.3   372  MCF372      0.2160
      3  C7        -7.9350   -3.1450  -25.9970 C.3   372  MCF372      0.1324
      4  N6        -8.2340   -2.5630  -27.2840 N.3   372  MCF372     -0.1639
      5  C5        -9.0140   -3.1410  -28.1820 C.3   372  MCF372      0.3566
      6  N4        -9.9830   -3.9560  -28.0340 N.2   372  MCF372     -0.0431
      7  C10      -10.4510   -4.4990  -26.8540 C.2   372  MCF372      0.3392
      8  C9       -10.1040   -4.0300  -25.5160 C.2   372  MCF372      0.1710
      9  N1       -10.8060   -4.8880  -24.7030 N.2   372  MCF372     -0.2182
     10  C2       -11.5020   -5.7570  -25.4730 C.3   372  MCF372      0.3373
     11  N3       -11.3150   -5.5000  -26.7740 N.pl3 372  MCF372     -0.1444
     12  C1S      -11.9000   -6.2910  -27.8780 C.3   372  MCF372      0.3185
     13  C2S      -11.1420   -7.6330  -27.7660 C.3   372  MCF372      0.2569
     14  O2S       -9.8450   -7.6370  -28.3290 O.3   372  MCF372     -0.2130
     15  O4S      -13.2780   -6.6670  -27.6860 O.3   372  MCF372     -0.3153
     16  C4S      -13.1530   -8.0030  -27.8830 C.3   372  MCF372      0.1630
     17  C3S      -12.0100   -8.6520  -28.4400 C.3   372  MCF372      0.2168
     18  O3S      -11.7790   -8.3940  -29.8210 O.3   372  MCF372     -0.2175
     19  C5S      -14.2830   -8.8130  -27.3750 C.3   372  MCF372      0.0899
     20  S5S      -13.6500   -8.9460  -25.7750 S.3   372  MCF372     -0.1367
     21  C6S      -14.5830  -10.2810  -25.0380 C.3   372  MCF372      0.0693
@<TRIPOS>BOND
     1    18    17    1
     2    17    16    1
     3    17    13    1
     4    14    13    1
     5     5     6    1
     6     5     4    1
     7     6     7    2
     8    16    15    1
     9    16    19    1
    10    12    13    1
    11    12    15    1
    12    12    11    1
    13    19    20    1
    14     4     3    1
    15     7    11    1
    16     7     8    1
    17    11    10    1
    18     3     2    1
    19    20    21    1
    20     8     2    1
    21     8     9    2
    22    10     9    1
    23     2     1    1
