@<TRIPOS>MOLECULE
3ewf_III_I_1.pdb
 48 48 0 0 0
SMALL
GASTEIGER

@<TRIPOS>ATOM
      1  C         43.8260  -12.3640  -19.6700 C.2     1  ACE1        0.2423
      2  O         43.3110  -11.8030  -20.6420 O.2     1  ACE1       -0.2733
      3  CH3       45.2650  -12.7970  -19.6430 C.3     1  ACE1        0.0964
      4  N         43.1580  -12.6360  -18.5580 N.am    2  ARG2       -0.1978
      5  CA        41.7490  -12.3000  -18.4000 C.3     2  ARG2        0.1728
      6  C         41.6200  -10.8330  -17.9870 C.2     2  ARG2        0.2616
      7  O         42.4220  -10.3420  -17.1940 O.2     2  ARG2       -0.2715
      8  CB        41.1510  -13.2180  -17.3400 C.3     2  ARG2        0.0348
      9  CG        39.6520  -13.2250  -17.2860 C.3     2  ARG2        0.0492
     10  CD        39.2070  -14.4040  -16.4620 C.3     2  ARG2        0.2205
     11  NE        39.7830  -15.6370  -16.9870 N.pl3   2  ARG2       -0.0865
     12  CZ        39.2470  -16.8380  -16.8090 C.cat   2  ARG2        0.5346
     13  NH1       38.1220  -16.9600  -16.1130 N.pl3   2  ARG2        0.1354
     14  NH2       39.8250  -17.9160  -17.3320 N.pl3   2  ARG2        0.1354
     15  N         40.6210  -10.1350  -18.5200 N.am    3  HIS3       -0.1959
     16  CA        40.4330   -8.7210  -18.1960 C.3     3  HIS3        0.1784
     17  C         39.8220   -8.4580  -16.8100 C.2     3  HIS3        0.2620
     18  O         39.1130   -9.2990  -16.2430 O.2     3  HIS3       -0.2715
     19  CB        39.5560   -8.0160  -19.2540 C.3     3  HIS3        0.0745
     20  CG        40.0970   -8.0780  -20.6530 C.2     3  HIS3        0.0653
     21  ND1       41.4370   -7.9340  -20.9490 N.2     3  HIS3       -0.2310
     22  CD2       39.4660   -8.2410  -21.8440 C.3     3  HIS3        0.1683
     23  CE1       41.6080   -8.0070  -22.2590 C.2     3  HIS3        0.1939
     24  NE2       40.4290   -8.1920  -22.8250 N.2     3  HIS3       -0.2440
     25  OH        44.9580   -7.4420  -10.5230 O.2     4  LYS4       -0.2733
     26  CH        44.7810   -8.3310  -11.3620 C.2     4  LYS4        0.2419
     27  CH3       45.8920   -9.2270  -11.8320 C.3     4  LYS4        0.0964
     28  NZ        43.5970   -8.5740  -11.9240 N.am    4  LYS4       -0.2054
     29  CE        42.3220   -8.0480  -11.4310 C.3     4  LYS4        0.1151
     30  CD        41.2850   -7.8670  -12.5390 C.3     4  LYS4        0.0235
     31  CG        41.8010   -6.9570  -13.6430 C.3     4  LYS4        0.0041
     32  CB        40.6860   -6.0860  -14.2040 C.3     4  LYS4        0.0312
     33  CA        39.5980   -6.8270  -14.9890 C.3     4  LYS4        0.1728
     34  N         40.1220   -7.2760  -16.2750 N.am    4  LYS4       -0.1963
     35  C         38.4640   -5.8600  -15.3470 C.2     4  LYS4        0.2616
     36  O         38.5640   -5.1530  -16.3450 O.2     4  LYS4       -0.2715
     37  OH        28.5930   -3.6520  -15.0840 O.2     5  LYS5       -0.2733
     38  CH        28.7620   -4.7210  -14.4780 C.2     5  LYS5        0.2419
     39  CH3       27.5980   -5.5220  -13.9310 C.3     5  LYS5        0.0964
     40  NZ        29.9680   -5.2550  -14.2560 N.am    5  LYS5       -0.2054
     41  CE        31.2290   -4.6290  -14.6410 C.3     5  LYS5        0.1151
     42  CD        32.4240   -5.4160  -14.1780 C.3     5  LYS5        0.0235
     43  CG        33.7070   -4.8090  -14.7190 C.3     5  LYS5        0.0040
     44  CB        34.9600   -5.5500  -14.2600 C.3     5  LYS5        0.0298
     45  CA        36.2540   -4.9500  -14.8250 C.3     5  LYS5        0.1596
     46  N         37.3970   -5.8300  -14.5470 N.am    5  LYS5       -0.1977
     47  C         36.4320   -3.5320  -14.2730 C.2     5  LYS5        0.2287
     48  O         36.0210   -2.5560  -14.8990 O.2     5  LYS5       -0.2864
@<TRIPOS>BOND
     1    24    23    2
     2    24    22    1
     3    23    21    1
     4    22    20    1
     5    21    20    2
     6    20    19    1
     7     2     1    2
     8     1     3    1
     9     1     4   am
    10    19    16    1
    11     4     5    1
    12    15    16    1
    13    15     6   am
    14     5     6    1
    15     5     8    1
    16    16    17    1
    17     6     7    2
    18     8     9    1
    19    14    12    1
    20     9    10    1
    21    11    12    2
    22    11    10    1
    23    17    34   am
    24    17    18    2
    25    12    13    1
    26    36    35    2
    27    34    33    1
    28    35    33    1
    29    35    46   am
    30    37    38    2
    31    33    32    1
    32    48    47    2
    33    45    46    1
    34    45    47    1
    35    45    44    1
    36    43    44    1
    37    43    42    1
    38    41    40    1
    39    41    42    1
    40    38    40   am
    41    38    39    1
    42    32    31    1
    43    31    30    1
    44    30    29    1
    45    28    29    1
    46    28    26   am
    47    27    26    1
    48    26    25    2
