@<TRIPOS>MOLECULE
3ewf_MCM_I_1.pdb
 13 14 0 0 0
SMALL
GASTEIGER

@<TRIPOS>ATOM
      1  N         37.1060   -3.4220  -13.1350 N.pl3   6  MCM6       -0.1280
      2  CA        37.3340   -2.4180  -12.1670 C.ar    6  MCM6        0.0921
      3  C2        37.3010   -2.5760  -10.7530 C.ar    6  MCM6        0.0556
      4  C3        37.5650   -1.5160   -9.8480 C.ar    6  MCM6        0.1497
      5  C4        37.7890   -0.7290   -7.6150 C.ar    6  MCM6        0.3456
      6  C5        38.1240    0.6480   -8.1000 C.ar    6  MCM6        0.0781
      7  C6        38.1720    0.9110   -9.4520 C.ar    6  MCM6       -0.0125
      8  C7        37.8780   -0.2110  -10.3980 C.ar    6  MCM6        0.0310
      9  C8        37.9060   -0.0390  -11.8230 C.ar    6  MCM6        0.0041
     10  C9        37.6370   -1.1260  -12.6890 C.ar    6  MCM6        0.0182
     11  C10       38.5190    2.3070   -9.9300 C.3     6  MCM6        0.0313
     12  O1        37.5190   -1.7700   -8.4840 O.2     6  MCM6       -0.4210
     13  O2        37.7620   -0.9220   -6.3980 O.2     6  MCM6       -0.2445
@<TRIPOS>BOND
     1     1     2    1
     2    10     2   ar
     3    10     9   ar
     4     2     3   ar
     5     9     8   ar
     6     3     4   ar
     7     8     4   ar
     8     8     7   ar
     9    11     7    1
    10     4    12   ar
    11     7     6   ar
    12    12     5   ar
    13     6     5   ar
    14     5    13    2
