@<TRIPOS>MOLECULE
3ewh_K11_A_1.pdb
 39 44 0 0 0
SMALL
GASTEIGER

@<TRIPOS>ATOM
      1  C38       16.8160   -8.1090    1.3340 C.3     1  K111        0.1494
      2  N37       15.8220   -8.7540    2.2110 N.pl3   1  K111       -0.1602
      3  C35       15.8620   -8.6010    3.5410 C.1     1  K111        0.1653
      4  N30       16.7330   -7.7290    4.0900 N.2     1  K111       -0.3362
      5  N34       15.0370   -9.3280    4.3250 N.2     1  K111       -0.1686
      6  C33       15.0690   -9.1880    5.6480 C.2     1  K111        0.1144
      7  C32       15.9610   -8.2850    6.2320 C.2     1  K111        0.0547
      8  C31       16.8120   -7.5250    5.4230 C.2     1  K111        0.1502
      9  C24       17.7600   -6.6090    5.9360 C.ar    1  K111        0.0841
     10  C25       18.8230   -6.2300    5.1060 C.ar    1  K111        0.0089
     11  C26       19.7820   -5.3390    5.5830 C.ar    1  K111        0.0210
     12  C27       19.6830   -4.8440    6.8790 C.ar    1  K111        0.1021
     13  N28       18.6790   -5.2100    7.6710 N.ar    1  K111       -0.2098
     14  C29       17.7220   -6.0710    7.2430 C.ar    1  K111        0.2321
     15  O36       16.6970   -6.4260    8.0760 O.3     1  K111       -0.4360
     16  C20       16.4890   -5.8270    9.2910 C.ar    1  K111        0.1472
     17  C21       15.7870   -4.6190    9.3570 C.ar    1  K111        0.0389
     18  C22       15.5420   -4.0150   10.5940 C.ar    1  K111        0.0205
     19  C13       16.9120   -6.4520   10.4710 C.ar    1  K111        0.0359
     20  C18       17.6040   -7.6720   10.4210 C.ar    1  K111        0.0031
     21  C17       18.0360   -8.2900   11.5930 C.ar    1  K111        0.0001
     22  C16       17.7780   -7.6890   12.8270 C.ar    1  K111        0.0000
     23  C15       17.0980   -6.4710   12.8880 C.ar    1  K111        0.0014
     24  C14       16.6600   -5.8480   11.7130 C.ar    1  K111        0.0190
     25  C23       15.9600   -4.6320   11.7770 C.ar    1  K111        0.0837
     26  N19       15.7480   -4.0550   12.9760 N.pl3   1  K111       -0.1254
     27  C12       14.5950   -3.5640   13.4570 C.1     1  K111        0.2247
     28  N5        13.4230   -3.4250   12.8230 N.2     1  K111       -0.3241
     29  C7        12.5670   -2.8950   13.7070 C.ar    1  K111        0.1753
     30  C8        11.2210   -2.5280   13.6320 C.ar    1  K111        0.0396
     31  C9        10.5850   -1.9860   14.7570 C.ar    1  K111        0.0742
     32  C39        9.1150   -1.5770   14.6740 C.3     1  K111        0.4187
     33  F2         8.9350   -0.8550   13.5730 F       1  K111       -0.1659
     34  F3         8.7540   -0.8690   15.7530 F       1  K111       -0.1659
     35  F1         8.3730   -2.6640   14.6040 F       1  K111       -0.1659
     36  C10       11.2860   -1.8160   15.9530 C.ar    1  K111        0.0067
     37  C11       12.6270   -2.1860   16.0300 C.ar    1  K111        0.0357
     38  C6        13.2590   -2.7210   14.9080 C.ar    1  K111        0.1754
     39  N4        14.5040   -3.1400   14.7160 N.2     1  K111       -0.3241
@<TRIPOS>BOND
     1     1     2    1
     2     2     3    1
     3     3     4    2
     4     3     5    2
     5     4     8    2
     6     5     6    1
     7    10    11   ar
     8    10     9   ar
     9     8     9    1
    10     8     7    1
    11    11    12   ar
    12     6     7    2
    13     9    14   ar
    14    12    13   ar
    15    14    13   ar
    16    14    15    1
    17    15    16    1
    18    16    17   ar
    19    16    19   ar
    20    17    18   ar
    21    20    19   ar
    22    20    21   ar
    23    19    24   ar
    24    18    25   ar
    25    21    22   ar
    26    24    25   ar
    27    24    23   ar
    28    25    26    1
    29    28    27    2
    30    28    29    2
    31    22    23   ar
    32    26    27    1
    33    27    39    2
    34    33    32    1
    35    30    29   ar
    36    30    31   ar
    37    29    38   ar
    38    35    32    1
    39    32    31    1
    40    32    34    1
    41    39    38    2
    42    31    36   ar
    43    38    37   ar
    44    36    37   ar
