@<TRIPOS>MOLECULE
3ewj_INN_A_1.pdb
 29 28 0 0 0
SMALL
GASTEIGER

@<TRIPOS>ATOM
      1  C0         5.9530    9.7320   23.8530 C.3     4  INN4        0.0603
      2  C          6.7370   11.0420   23.9950 C.2     4  INN4        0.0873
      3  O          7.8820   11.1920   23.5010 O.2     4  INN4       -0.5395
      4  N          6.1910   11.9410   24.8010 N.am    4  INN4       -0.2030
      5  O4         6.9090   13.1260   24.7830 O.3     4  INN4       -0.4026
      6  C4         5.8230    7.4310   24.6900 C.2     4  INN4        0.2417
      7  O1         4.6240    7.4580   24.9000 O.2     4  INN4       -0.2733
      8  CA         6.5980    8.7190   24.8820 C.3     4  INN4        0.0845
      9  CB         6.5690    9.1910   26.3960 C.3     4  INN4        0.0095
     10  C1         7.2720    8.2360   27.3820 C.3     4  INN4        0.0005
     11  C2         8.7440    7.8560   27.0060 C.3     4  INN4        0.0000
     12  C3         7.2520    8.8330   28.7920 C.3     4  INN4        0.0000
     13  N1         6.5310    6.3770   24.2830 N.am    4  INN4       -0.1978
     14  C5         5.9410    5.0680   23.9950 C.3     4  INN4        0.1726
     15  C6         6.1480    4.8660   22.4520 C.3     4  INN4        0.0270
     16  C7         5.5750    6.0820   21.6690 C.3     4  INN4        0.0022
     17  C8         7.6810    4.7620   22.1510 C.3     4  INN4        0.0022
     18  C9         5.4190    3.5640   21.9940 C.3     4  INN4        0.0022
     19  C10        6.3850    3.8700   24.8360 C.2     4  INN4        0.2616
     20  O2         7.5910    3.5340   24.8280 O.2     4  INN4       -0.2715
     21  N2         5.3710    3.2510   25.5380 N.am    4  INN4       -0.1963
     22  C11        5.5250    2.0650   26.3980 C.3     4  INN4        0.1728
     23  C13        4.8220    0.9930   25.5920 C.2     4  INN4        0.2613
     24  O3         3.6100    0.9740   25.6070 O.2     4  INN4       -0.2715
     25  C12        4.9150    2.1880   27.8200 C.3     4  INN4        0.0334
     26  N4         4.9590   -1.3820   21.6790 N.3     4  INN4       -0.1294
     27  C15        4.5640   -0.3800   22.6760 C.3     4  INN4        0.1327
     28  C14        4.8870   -0.9040   24.0950 C.3     4  INN4        0.1356
     29  N3         5.5410    0.1230   24.8790 N.am    4  INN4       -0.2024
@<TRIPOS>BOND
     1    16    15    1
     2    26    27    1
     3    18    15    1
     4    17    15    1
     5    15    14    1
     6    27    28    1
     7     3     2    2
     8     1     2    1
     9     1     8    1
    10     2     4   am
    11    14    13    1
    12    14    19    1
    13    28    29    1
    14    13     6   am
    15     6     8    1
    16     6     7    2
    17     5     4    1
    18    20    19    2
    19    19    21   am
    20    29    23   am
    21     8     9    1
    22    21    22    1
    23    23    24    2
    24    23    22    1
    25     9    10    1
    26    22    25    1
    27    11    10    1
    28    10    12    1
