@<TRIPOS>MOLECULE
3ewj_642_B_1.pdb
 35 40 0 0 0
SMALL
GASTEIGER

@<TRIPOS>ATOM
      1  C1        48.3220   34.1510   39.5790 C.3     1  6421        0.1189
      2  C2        48.3980   32.6310   39.5670 C.3     1  6421        0.1059
      3  C3        48.3980   33.4070   38.2620 C.3     1  6421        0.0284
      4  C4        49.4750   34.9150   40.1700 C.2     1  6421        0.3654
      5  O1        50.6700   34.3040   39.9480 O.co2   1  6421       -0.2456
      6  O2        49.4350   35.9670   40.8560 O.co2   1  6421       -0.2456
      7  C5        47.1830   31.8040   39.8720 C.1     1  6421        0.1247
      8  N1        47.5150   30.6990   40.5540 N.2     1  6421       -0.2038
      9  O3        46.0630   32.1100   39.5240 O.2     1  6421       -0.2271
     10  C6        48.9610   30.6530   40.8380 C.3     1  6421        0.1377
     11  C7        49.5960   31.7490   39.9430 C.3     1  6421        0.0457
     12  C8        49.1120   30.9790   42.3220 C.ar    1  6421        0.0009
     13  C9        50.1630   30.4550   43.0890 C.ar    1  6421        0.0007
     14  C10       50.2390   30.7420   44.4530 C.ar    1  6421        0.0367
     15  C11       49.2570   31.5740   45.0810 C.ar    1  6421        0.1390
     16  C12       48.2280   32.1270   44.3000 C.ar    1  6421        0.0367
     17  C13       48.1490   31.8260   42.9370 C.ar    1  6421        0.0007
     18  O4        49.2970   31.8520   46.4360 O.3     1  6421       -0.4706
     19  C14       50.2610   31.1670   47.2500 C.3     1  6421        0.2321
     20  C15       49.8780   29.6820   47.4790 C.2     1  6421        0.0259
     21  N2        49.1090   26.9690   47.9050 N.2     1  6421       -0.4059
     22  C16       48.1960   27.9230   47.5620 C.2     1  6421        0.1308
     23  C17       48.5380   29.3010   47.3140 C.2     1  6421        0.0314
     24  C18       50.3850   27.3250   48.0150 C.2     1  6421        0.1131
     25  C19       50.8130   28.6620   47.8330 C.2     1  6421        0.0253
     26  C20       52.2000   28.9310   48.0070 C.2     1  6421        0.0017
     27  C21       53.1150   27.9380   48.3400 C.2     1  6421       -0.0041
     28  C22       52.7110   26.6380   48.4990 C.2     1  6421       -0.0187
     29  C23       51.3400   26.3560   48.3600 C.3     1  6421        0.0849
     30  C24       46.7990   27.5130   47.3460 C.ar    1  6421        0.0296
     31  C25       46.4000   26.1670   47.3220 C.ar    1  6421        0.0025
     32  C26       45.0380   25.8520   47.0900 C.ar    1  6421        0.0001
     33  C27       44.0980   26.8570   46.8400 C.ar    1  6421        0.0000
     34  C28       44.4950   28.1810   46.8370 C.ar    1  6421        0.0001
     35  C29       45.8260   28.5170   47.0930 C.ar    1  6421        0.0025
@<TRIPOS>BOND
     1     3     2    1
     2     3     1    1
     3     9     7    2
     4     2     1    1
     5     2     7    1
     6     2    11    1
     7     1     4    1
     8     7     8    2
     9    11    10    1
    10     5     4   ar
    11     4     6   ar
    12     8    10    1
    13    10    12    1
    14    12    17   ar
    15    12    13   ar
    16    17    16   ar
    17    13    14   ar
    18    16    15   ar
    19    14    15   ar
    20    15    18    1
    21    18    19    1
    22    34    33   ar
    23    34    35   ar
    24    33    32   ar
    25    32    31   ar
    26    35    30   ar
    27    19    20    1
    28    23    20    2
    29    23    22    1
    30    31    30   ar
    31    30    22    1
    32    20    25    1
    33    22    21    2
    34    25    26    2
    35    25    24    1
    36    21    24    2
    37    26    27    1
    38    24    29    1
    39    27    28    2
    40    29    28    1
