@<TRIPOS>MOLECULE
3ewp_APR_A_1.pdb
 36 39 0 0 0
SMALL
GASTEIGER

@<TRIPOS>ATOM
      1  N1        41.0870   13.8820   -6.8190 N.2   175  APR175      0.0021
      2  C2        40.8750   12.5690   -6.5800 C.3   175  APR175      0.5254
      3  N3        41.9190   11.7070   -6.5160 N.2   175  APR175     -0.0055
      4  C4        43.1870   12.1420   -6.6850 C.2   175  APR175      0.3518
      5  C5        43.4760   13.5710   -6.9530 C.2   175  APR175      0.2526
      6  C6        42.3030   14.4650   -7.0010 C.2   175  APR175      0.4393
      7  N6        42.4700   15.8020   -7.2510 N.pl3 175  APR175      0.2180
      8  N7        44.8140   13.6980   -7.0840 N.2   175  APR175     -0.2095
      9  C8        45.3640   12.4630   -6.9220 C.3   175  APR175      0.3377
     10  N9        44.3700   11.5440   -6.7010 N.pl3 175  APR175     -0.1439
     11  C1'       44.4840   10.0830   -6.4580 C.3   175  APR175      0.3186
     12  C2'       45.3560    9.3330   -7.4570 C.3   175  APR175      0.2570
     13  O2'       44.5840    9.0350   -8.6220 O.3   175  APR175     -0.2130
     14  C3'       45.8630    8.1320   -6.6430 C.3   175  APR175      0.2184
     15  O3'       44.8030    7.2160   -6.3420 O.3   175  APR175     -0.2174
     16  O4'       45.0300    9.8580   -5.1600 O.3   175  APR175     -0.3135
     17  C4'       46.1720    9.1020   -5.4990 C.3   175  APR175      0.1821
     18  C5'       47.2640    9.0540   -4.4410 C.3   175  APR175      0.1813
     19  O5'       48.1960    9.7220   -5.2870 O.3   175  APR175     -0.3112
     20  PA        49.0200   11.0060   -4.7690 P.3   175  APR175      0.2189
     21  O1A       48.0250   12.0710   -4.4280 O.3   175  APR175     -0.4371
     22  O2A       50.1220   11.3900   -5.7030 O.2   175  APR175     -0.5170
     23  O3A       49.6460   10.2940   -3.4480 O.3   175  APR175     -0.2703
     24  PB        51.0720    9.4950   -3.1490 P.3   175  APR175      0.2189
     25  O1B       50.9260    8.7870   -1.8470 O.3   175  APR175     -0.4371
     26  O2B       51.5300    8.7410   -4.3490 O.2   175  APR175     -0.5170
     27  O5D       52.1020   10.7290   -2.9510 O.3   175  APR175     -0.3112
     28  C5D       52.3880   11.3560   -1.7210 C.3   175  APR175      0.1813
     29  O4D       52.0130   13.5410   -3.0570 O.3   175  APR175     -0.3237
     30  O1D       52.4160   15.8230   -2.9340 O.3   175  APR175     -0.1869
     31  C1D       51.5260   14.7930   -2.5380 C.3   175  APR175      0.3023
     32  O2D       51.7150   15.9110   -0.2760 O.3   175  APR175     -0.2148
     33  C2D       51.6460   14.6810   -0.9930 C.3   175  APR175      0.2433
     34  O3D       54.0230   14.5620   -1.0570 O.3   175  APR175     -0.2175
     35  C3D       52.8350   13.7650   -0.7440 C.3   175  APR175      0.2168
     36  C4D       52.2030   12.8460   -1.7870 C.3   175  APR175      0.1807
@<TRIPOS>BOND
     1    13    12    1
     2    12    14    1
     3    12    11    1
     4     7     6    1
     5     8     5    2
     6     8     9    1
     7     6     5    1
     8     6     1    2
     9     5     4    1
    10     9    10    1
    11     1     2    1
    12    10     4    1
    13    10    11    1
    14     4     3    2
    15    14    15    1
    16    14    17    1
    17     2     3    1
    18    11    16    1
    19    22    20    2
    20    17    16    1
    21    17    18    1
    22    19    20    1
    23    19    18    1
    24    20    21    1
    25    20    23    1
    26    26    24    2
    27    23    24    1
    28    24    27    1
    29    24    25    1
    30    29    31    1
    31    29    36    1
    32    27    28    1
    33    30    31    1
    34    31    33    1
    35    36    28    1
    36    36    35    1
    37    34    35    1
    38    33    35    1
    39    33    32    1
