@<TRIPOS>MOLECULE
3ewr_APR_A_1.pdb
 36 39 0 0 0
SMALL
GASTEIGER

@<TRIPOS>ATOM
      1  N1        14.0690   -3.2840    9.6370 N.2   169  APR169      0.0021
      2  C2        13.0580   -2.3800    9.7450 C.3   169  APR169      0.5254
      3  N3        12.2910   -2.2380   10.8510 N.2   169  APR169     -0.0055
      4  C4        12.5050   -3.0070   11.9650 C.2   169  APR169      0.3518
      5  C5        13.5800   -4.0280   11.9150 C.2   169  APR169      0.2526
      6  C6        14.3710   -4.1330   10.6570 C.2   169  APR169      0.4393
      7  N6        15.3770   -5.0440   10.5600 N.pl3 169  APR169      0.2180
      8  N7        13.6130   -4.6550   13.1140 N.2   169  APR169     -0.2095
      9  C8        12.6370   -4.1280   13.8720 C.3   169  APR169      0.3377
     10  N9        11.9670   -3.1580   13.1900 N.pl3 169  APR169     -0.1439
     11  C1'       10.8720   -2.4780   13.9300 C.3   169  APR169      0.3186
     12  C2'        9.4400   -2.9050   13.6550 C.3   169  APR169      0.2570
     13  O2'        9.0490   -4.2650   13.9610 O.3   169  APR169     -0.2130
     14  C3'        8.7410   -1.9110   14.5480 C.3   169  APR169      0.2184
     15  O3'        7.6680   -1.4900   13.7210 O.3   169  APR169     -0.2174
     16  O4'       10.9000   -1.0470   14.0270 O.3   169  APR169     -0.3135
     17  C4'        9.7100   -0.7310   14.7530 C.3   169  APR169      0.1821
     18  C5'       10.0030   -0.4150   16.2290 C.3   169  APR169      0.1813
     19  O5'       10.5770   -1.5580   16.9060 O.3   169  APR169     -0.3112
     20  PA        11.9070   -1.5680   17.8310 P.3   169  APR169      0.2189
     21  O1A       13.1710   -1.3730   17.0060 O.2   169  APR169     -0.5170
     22  O2A       11.8930   -2.8360   18.6570 O.3   169  APR169     -0.4371
     23  O3A       11.8100   -0.2480   18.7710 O.3   169  APR169     -0.2703
     24  PB        11.0740    0.0750   20.1890 P.3   169  APR169      0.2189
     25  O1B       10.9460    1.5870   20.1880 O.2   169  APR169     -0.5170
     26  O2B        9.9250   -0.8660   20.3560 O.3   169  APR169     -0.4371
     27  O5D       12.1870   -0.3330   21.2380 O.3   169  APR169     -0.3112
     28  C5D       13.4360    0.4040   21.2310 C.3   169  APR169      0.1813
     29  O4D       14.9220   -1.4850   20.8060 O.3   169  APR169     -0.3237
     30  O1D       17.0890   -2.2490   20.6980 O.3   169  APR169     -0.1869
     31  C1D       16.2120   -1.2180   20.2280 C.3   169  APR169      0.3023
     32  O2D       18.0650    0.2780   20.8970 O.3   169  APR169     -0.2148
     33  C2D       16.6470    0.1770   20.7100 C.3   169  APR169      0.2433
     34  O3D       16.4820   -0.1990   23.1420 O.3   169  APR169     -0.2175
     35  C3D       15.8410    0.3940   21.9930 C.3   169  APR169      0.2168
     36  C4D       14.5870   -0.4450   21.7490 C.3   169  APR169      0.1807
@<TRIPOS>BOND
     1     1     2    1
     2     1     6    2
     3     2     3    1
     4     7     6    1
     5     6     5    1
     6     3     4    2
     7     5     4    1
     8     5     8    2
     9     4    10    1
    10     8     9    1
    11    10     9    1
    12    10    11    1
    13    12    11    1
    14    12    13    1
    15    12    14    1
    16    15    14    1
    17    11    16    1
    18    16    17    1
    19    14    17    1
    20    17    18    1
    21    18    19    1
    22    19    20    1
    23    21    20    2
    24    20    22    1
    25    20    23    1
    26    23    24    1
    27    25    24    2
    28    24    26    1
    29    24    27    1
    30    31    30    1
    31    31    33    1
    32    31    29    1
    33    33    32    1
    34    33    35    1
    35    29    36    1
    36    28    27    1
    37    28    36    1
    38    36    35    1
    39    35    34    1
