@<TRIPOS>MOLECULE
3ews_ADP_A_1.pdb
 27 29 0 0 0
SMALL
GASTEIGER

@<TRIPOS>ATOM
      1  PB        34.3850   -5.2720   39.2160 P.3   602  ADP602      0.5373
      2  O1B       35.7860   -5.2890   39.7690 O.3   602  ADP602     -0.1143
      3  O2B       33.3390   -4.8600   40.2240 O.3   602  ADP602     -0.1143
      4  O3B       34.2620   -4.5820   37.8730 O.2   602  ADP602     -0.2221
      5  PA        32.7900   -7.6190   39.4230 P.3   602  ADP602      0.2231
      6  O1A       31.5980   -7.1220   38.6360 O.2   602  ADP602     -0.5169
      7  O2A       32.7670   -7.5800   40.9280 O.3   602  ADP602     -0.4370
      8  O3A       34.0640   -6.8060   38.8610 O.3   602  ADP602     -0.2261
      9  O5'       33.0710   -9.1250   38.9270 O.3   602  ADP602     -0.3111
     10  C5'       33.6790   -9.3590   37.6540 C.3   602  ADP602      0.1813
     11  C4'       33.1020  -10.6560   37.1180 C.3   602  ADP602      0.1821
     12  O4'       33.6300  -11.7550   37.8500 O.3   602  ADP602     -0.3135
     13  C3'       31.6030  -10.7080   37.3070 C.3   602  ADP602      0.2184
     14  O3'       31.0850  -11.3890   36.1650 O.3   602  ADP602     -0.2174
     15  C2'       31.3780  -11.5710   38.5300 C.3   602  ADP602      0.2570
     16  O2'       30.1630  -12.3260   38.4290 O.3   602  ADP602     -0.2130
     17  C1'       32.6020  -12.4680   38.5420 C.3   602  ADP602      0.3186
     18  N9        33.1030  -12.7460   39.9090 N.pl3 602  ADP602     -0.1439
     19  C8        33.2700  -11.8460   40.8950 C.3   602  ADP602      0.3377
     20  N7        33.7640  -12.4370   42.0130 N.2   602  ADP602     -0.2095
     21  C5        33.9260  -13.7470   41.7430 C.2   602  ADP602      0.2526
     22  C6        34.4050  -14.9450   42.4770 C.2   602  ADP602      0.4393
     23  N6        34.8300  -14.8620   43.7600 N.pl3 602  ADP602      0.2180
     24  N1        34.4110  -16.1260   41.8210 N.2   602  ADP602      0.0021
     25  C2        34.0000  -16.2220   40.5450 C.3   602  ADP602      0.5254
     26  N3        33.5520  -15.1820   39.8210 N.2   602  ADP602     -0.0055
     27  C4        33.4900  -13.9410   40.3530 C.2   602  ADP602      0.3518
@<TRIPOS>BOND
     1    14    13    1
     2    11    13    1
     3    11    10    1
     4    11    12    1
     5    13    15    1
     6    10     9    1
     7    12    17    1
     8     4     1    2
     9    16    15    1
    10    15    17    1
    11    17    18    1
    12     6     5    2
    13     8     1    1
    14     8     5    1
    15     9     5    1
    16     1     2    1
    17     1     3    1
    18     5     7    1
    19    26    27    2
    20    26    25    1
    21    18    27    1
    22    18    19    1
    23    27    21    1
    24    25    24    1
    25    19    20    1
    26    21    20    2
    27    21    22    1
    28    24    22    2
    29    22    23    1
