@<TRIPOS>MOLECULE
3ewu_UEP_A_1.pdb
 23 24 0 0 0
SMALL
GASTEIGER

@<TRIPOS>ATOM
      1  O3P        4.4410   11.1490   31.6010 O.3   482  UEP482     -0.1145
      2  P          3.5780   10.4770   30.5070 P.3   482  UEP482      0.5327
      3  O1P        2.2250   10.1850   31.1240 O.3   482  UEP482     -0.1145
      4  O2P        3.5680   11.1570   29.1380 O.2   482  UEP482     -0.2224
      5  O5'        4.3240    9.0570   30.4210 O.3   482  UEP482     -0.2675
      6  C5'        4.0340    8.1450   29.3270 C.3   482  UEP482      0.1859
      7  C4'        4.8590    6.8760   29.5220 C.3   482  UEP482      0.1801
      8  C3'        6.3120    7.1810   29.1700 C.3   482  UEP482      0.2158
      9  O3'        7.1450    6.3260   30.0150 O.3   482  UEP482     -0.2175
     10  C2'        6.4340    6.7210   27.7110 C.3   482  UEP482      0.2319
     11  O2'        7.8070    6.3100   27.5380 O.3   482  UEP482     -0.2157
     12  O4'        4.4240    5.8880   28.5720 O.3   482  UEP482     -0.3320
     13  C1'        5.4140    5.5560   27.6000 C.3   482  UEP482      0.2397
     14  N1         4.8350    5.4500   26.2420 N.am  482  UEP482     -0.1819
     15  C7         5.4510    3.1520   26.1450 C.3   482  UEP482      0.0431
     16  C8         4.6200    2.4890   27.2540 C.3   482  UEP482      0.0064
     17  C6         4.9010    4.3040   25.5230 C.2   482  UEP482      0.0554
     18  C5         4.4080    4.2220   24.2330 C.2   482  UEP482      0.1185
     19  C4         3.8230    5.3620   23.7120 C.1   482  UEP482      0.2179
     20  O4         3.3660    5.3550   22.5500 O.2   482  UEP482     -0.2085
     21  N3         3.7730    6.4890   24.4350 N.2   482  UEP482     -0.2452
     22  C2         4.2470    6.5670   25.6920 C.1   482  UEP482      0.2842
     23  O2         4.1890    7.6370   26.3090 O.2   482  UEP482     -0.1919
@<TRIPOS>BOND
     1    20    19    2
     2    19    18    1
     3    19    21    2
     4    18    17    2
     5    21    22    2
     6    17    15    1
     7    17    14    1
     8    22    14   am
     9    22    23    2
    10    15    16    1
    11    14    13    1
    12    11    10    1
    13    13    10    1
    14    13    12    1
    15    10     8    1
    16    12     7    1
    17     4     2    2
    18     8     7    1
    19     8     9    1
    20     6     7    1
    21     6     5    1
    22     5     2    1
    23     2     3    1
    24     2     1    1
