@<TRIPOS>MOLECULE
3eww_U1P_A_1.pdb
 23 24 0 0 0
SMALL
GASTEIGER

@<TRIPOS>ATOM
      1  O1P        2.1340   10.0510   30.9870 O.3   482  U1P482     -0.1145
      2  P          3.5430   10.3120   30.4470 P.3   482  U1P482      0.5327
      3  O2P        3.5450   10.9610   29.1140 O.2   482  U1P482     -0.2224
      4  O3P        4.3840   10.9340   31.5040 O.3   482  U1P482     -0.1145
      5  N1         4.7860    5.3750   26.1440 N.am  482  U1P482     -0.1804
      6  C2         4.1610    6.4820   25.5100 C.1   482  U1P482      0.2842
      7  O2         4.0510    7.5270   26.1980 O.2   482  U1P482     -0.1919
      8  N3         3.6910    6.3810   24.2680 N.2   482  U1P482     -0.2452
      9  C4         3.8020    5.2540   23.5640 C.1   482  U1P482      0.2179
     10  O4         3.2900    5.2420   22.4230 O.2   482  U1P482     -0.2085
     11  C6         4.8900    4.1900   25.4310 C.2   482  U1P482      0.0747
     12  C5         4.4260    4.1370   24.1240 C.2   482  U1P482      0.1200
     13  O5'        4.2480    8.8540   30.2510 O.3   482  U1P482     -0.2675
     14  C5'        3.8580    7.9880   29.1880 C.3   482  U1P482      0.1859
     15  C4'        4.7550    6.7710   29.3480 C.3   482  U1P482      0.1801
     16  C3'        6.2110    7.0010   29.0740 C.3   482  U1P482      0.2158
     17  O3'        6.8590    5.9920   29.9590 O.3   482  U1P482     -0.2175
     18  C2'        6.4110    6.6410   27.6080 C.3   482  U1P482      0.2319
     19  O2'        7.7580    6.1760   27.5280 O.3   482  U1P482     -0.2157
     20  O4'        4.3860    5.7940   28.3860 O.3   482  U1P482     -0.3320
     21  C1'        5.3710    5.5220   27.4440 C.3   482  U1P482      0.2398
     22  C7         5.3800    3.0210   26.0200 C.3   482  U1P482      0.1520
     23  N8         4.6260    2.5160   27.0130 N.3   482  U1P482     -0.1248
@<TRIPOS>BOND
     1    10     9    2
     2     9    12    1
     3     9     8    2
     4    12    11    2
     5     8     6    2
     6    11    22    1
     7    11     5    1
     8     6     5   am
     9     6     7    2
    10    22    23    1
    11     5    21    1
    12    21    18    1
    13    21    20    1
    14    19    18    1
    15    18    16    1
    16    20    15    1
    17    16    15    1
    18    16    17    1
    19     3     2    2
    20    14    15    1
    21    14    13    1
    22    13     2    1
    23     2     1    1
    24     2     4    1
