@<TRIPOS>MOLECULE
3ewx_BMP_A_1.pdb
 22 23 0 0 0
SMALL
GASTEIGER

@<TRIPOS>ATOM
      1  P         12.1620   13.4750   41.9610 P.3   481  BMP481      0.5327
      2  OP1       13.3230   12.7350   42.5720 O.3   481  BMP481     -0.1145
      3  OP2       12.5320   14.9190   41.6480 O.2   481  BMP481     -0.2224
      4  OP3       10.8910   13.3190   42.7430 O.3   481  BMP481     -0.1145
      5  O5'       11.7970   12.7820   40.5440 O.3   481  BMP481     -0.2675
      6  C5'       12.8550   12.4660   39.6510 C.3   481  BMP481      0.1859
      7  C4'       12.0770   11.9580   38.4310 C.3   481  BMP481      0.1801
      8  O4'       13.0030   11.7220   37.2600 O.3   481  BMP481     -0.3319
      9  C3'       11.4100   10.5930   38.6040 C.3   481  BMP481      0.2158
     10  O3'       10.1630   10.4940   37.8990 O.3   481  BMP481     -0.2175
     11  C2'       12.3590    9.5390   38.1040 C.3   481  BMP481      0.2320
     12  O2'       11.6920    8.4040   37.5780 O.3   481  BMP481     -0.2157
     13  C1'       13.1360   10.2760   37.0350 C.3   481  BMP481      0.2425
     14  N1        14.5510    9.9970   36.7670 N.am  481  BMP481     -0.1473
     15  C2        15.5170   10.2900   37.7080 C.1   481  BMP481      0.2863
     16  O2        15.1770   10.7800   38.8810 O.2   481  BMP481     -0.1918
     17  N3        16.8580   10.0880   37.4690 N.2   481  BMP481     -0.2489
     18  C4        17.2010    9.5930   36.2890 C.1   481  BMP481      0.2018
     19  O4        18.4290    9.4530   36.1230 O.2   481  BMP481     -0.2129
     20  C5        16.3190    9.2360   35.3090 C.3   481  BMP481      0.2213
     21  C6        14.9690    9.4690   35.6090 C.2   481  BMP481      0.2591
     22  O1        14.0470    9.1770   34.7580 O.2   481  BMP481     -0.2725
@<TRIPOS>BOND
     1    22    21    2
     2    20    21    1
     3    20    18    1
     4    21    14   am
     5    19    18    2
     6    18    17    2
     7    14    13    1
     8    14    15   am
     9    13     8    1
    10    13    11    1
    11     8     7    1
    12    17    15    2
    13    12    11    1
    14    15    16    2
    15    10     9    1
    16    11     9    1
    17     7     9    1
    18     7     6    1
    19     6     5    1
    20     5     1    1
    21     3     1    2
    22     1     2    1
    23     1     4    1
