@<TRIPOS>MOLECULE
3ewy_U5P_A_1.pdb
 21 22 0 0 0
SMALL
GASTEIGER

@<TRIPOS>ATOM
      1  N1        14.4110   10.0150   36.8080 N.am  481  U5P481     -0.1766
      2  C2        15.4240   10.3110   37.7160 C.1   481  U5P481      0.2845
      3  N3        16.7090   10.0750   37.4930 N.2   481  U5P481     -0.2452
      4  C4        17.1600    9.5060   36.2970 C.1   481  U5P481      0.2182
      5  C5        16.1990    9.1710   35.3660 C.2   481  U5P481      0.1242
      6  C6        14.8680    9.4010   35.6210 C.2   481  U5P481      0.0929
      7  O2        15.1470   10.8140   38.8380 O.2   481  U5P481     -0.1918
      8  O4        18.4010    9.3850   36.1260 O.2   481  U5P481     -0.2085
      9  C1'       13.0470   10.3840   36.9820 C.3   481  U5P481      0.2401
     10  C2'       12.3760    9.6260   38.1140 C.3   481  U5P481      0.2319
     11  O2'       11.7720    8.4430   37.6420 O.3   481  U5P481     -0.2157
     12  C3'       11.3730   10.6110   38.6200 C.3   481  U5P481      0.2158
     13  C4'       12.0240   11.9690   38.3720 C.3   481  U5P481      0.1801
     14  O3'       10.1700   10.4920   37.8480 O.3   481  U5P481     -0.2175
     15  O4'       12.9620   11.7860   37.2870 O.3   481  U5P481     -0.3320
     16  C5'       12.8190   12.4680   39.5920 C.3   481  U5P481      0.1859
     17  O5'       11.8120   12.8290   40.5390 O.3   481  U5P481     -0.2675
     18  P         12.1560   13.4980   41.9760 P.3   481  U5P481      0.5327
     19  O1P       10.8700   13.3730   42.7050 O.3   481  U5P481     -0.1145
     20  O2P       13.3240   12.7460   42.5490 O.3   481  U5P481     -0.1145
     21  O3P       12.5430   14.9410   41.6890 O.2   481  U5P481     -0.2224
@<TRIPOS>BOND
     1     5     6    2
     2     5     4    1
     3     6     1    1
     4     8     4    2
     5     4     3    2
     6     1     9    1
     7     1     2   am
     8     9    15    1
     9     9    10    1
    10    15    13    1
    11     3     2    2
    12    11    10    1
    13     2     7    2
    14    14    12    1
    15    10    12    1
    16    13    12    1
    17    13    16    1
    18    16    17    1
    19    17    18    1
    20    21    18    2
    21    18    20    1
    22    18    19    1
