@<TRIPOS>MOLECULE
3ewz_CNU_B_1.pdb
 23 24 0 0 0
SMALL
GASTEIGER

@<TRIPOS>ATOM
      1  O1P       -1.7230   -9.6130   29.7050 O.3   481  CNU481     -0.1145
      2  P         -3.0980   -9.9440   29.2130 P.3   481  CNU481      0.5327
      3  O2P       -3.8840  -10.7570   30.2110 O.3   481  CNU481     -0.1145
      4  O3P       -3.0810  -10.6190   27.8650 O.2   481  CNU481     -0.2224
      5  O5'       -3.9150   -8.5650   29.1770 O.3   481  CNU481     -0.2675
      6  C5'       -3.6570   -7.6480   28.1170 C.3   481  CNU481      0.1859
      7  C4'       -4.5760   -6.4680   28.4100 C.3   481  CNU481      0.1801
      8  O4'       -4.2670   -5.3050   27.4950 O.3   481  CNU481     -0.3320
      9  C3'       -6.0730   -6.8100   28.3000 C.3   481  CNU481      0.2158
     10  O3'       -6.8320   -6.0040   29.2080 O.3   481  CNU481     -0.2175
     11  C2'       -6.2990   -6.3200   26.8750 C.3   481  CNU481      0.2319
     12  O2'       -7.6610   -5.9890   26.6330 O.3   481  CNU481     -0.2157
     13  C1'       -5.4100   -5.1060   26.6400 C.3   481  CNU481      0.2401
     14  N1        -4.9380   -4.8370   25.2850 N.am  481  CNU481     -0.1760
     15  C2        -4.1890   -5.7700   24.5650 C.1   481  CNU481      0.2845
     16  O2        -3.9070   -6.9510   25.1190 O.2   481  CNU481     -0.1918
     17  N3        -3.7440   -5.5100   23.2960 N.2   481  CNU481     -0.2445
     18  C4        -4.0090   -4.3320   22.7240 C.1   481  CNU481      0.2273
     19  O4        -3.5580   -4.1150   21.5820 O.2   481  CNU481     -0.2078
     20  C6        -5.2220   -3.6740   24.7020 C.2   481  CNU481      0.1026
     21  C5        -4.7620   -3.3990   23.4180 C.2   481  CNU481      0.1789
     22  C52       -5.1310   -2.1000   22.9360 C.1   481  CNU481      0.1146
     23  N53       -5.4210   -1.0690   22.5290 N.1   481  CNU481     -0.1900
@<TRIPOS>BOND
     1    19    18    2
     2    23    22    3
     3    18    17    2
     4    18    21    1
     5    22    21    1
     6    17    15    2
     7    21    20    2
     8    15    16    2
     9    15    14   am
    10    20    14    1
    11    14    13    1
    12    12    11    1
    13    13    11    1
    14    13     8    1
    15    11     9    1
    16     8     7    1
    17     4     2    2
    18     6     7    1
    19     6     5    1
    20     9     7    1
    21     9    10    1
    22     5     2    1
    23     2     1    1
    24     2     3    1
