@<TRIPOS>MOLECULE
3ex1_6CN_B_1.pdb
 23 24 0 0 0
SMALL
GASTEIGER

@<TRIPOS>ATOM
      1  O3P       26.1240  -10.3120   12.8340 O.2   481  6CN481     -0.2224
      2  P         25.2100  -10.7800   13.9210 P.3   481  6CN481      0.5327
      3  O1P       25.7660  -11.6130   15.0410 O.3   481  6CN481     -0.1145
      4  O2P       23.8950  -11.3280   13.4300 O.3   481  6CN481     -0.1145
      5  O5'       24.8530   -9.4240   14.7160 O.3   481  6CN481     -0.2675
      6  C5'       24.0440   -8.3590   14.1630 C.3   481  6CN481      0.1859
      7  C4'       24.1270   -7.1890   15.1400 C.3   481  6CN481      0.1801
      8  C3'       23.3470   -7.4860   16.4150 C.3   481  6CN481      0.2158
      9  O3'       23.9880   -6.8360   17.5720 O.3   481  6CN481     -0.2175
     10  C2'       21.9660   -6.9520   16.1230 C.3   481  6CN481      0.2316
     11  O2'       21.3410   -6.5120   17.3320 O.3   481  6CN481     -0.2157
     12  O4'       23.5260   -6.0570   14.5050 O.3   481  6CN481     -0.3322
     13  C1'       22.2590   -5.8010   15.1600 C.3   481  6CN481      0.2369
     14  N1        21.2240   -5.4670   14.1330 N.am  481  6CN481     -0.1873
     15  C6        20.6620   -4.2710   14.1310 C.3   481  6CN481      0.1956
     16  C5        19.5830   -4.1040   13.3170 C.3   481  6CN481      0.1717
     17  C4        19.4500   -4.8670   12.2040 C.1   481  6CN481      0.1952
     18  O4        18.6120   -4.5310   11.3480 O.2   481  6CN481     -0.2133
     19  N3        19.9920   -6.0440   12.2180 N.2   481  6CN481     -0.2496
     20  C2        20.8740   -6.3970   13.1620 C.1   481  6CN481      0.2810
     21  O2        21.3610   -7.5290   13.1400 O.2   481  6CN481     -0.1922
     22  C7        21.6390   -3.3140   13.8800 C.1   481  6CN481      0.0945
     23  N8        22.4330   -2.5370   13.6770 N.1   481  6CN481     -0.1941
@<TRIPOS>BOND
     1    18    17    2
     2    17    19    2
     3    17    16    1
     4    19    20    2
     5     1     2    2
     6    21    20    2
     7    20    14   am
     8    16    15    1
     9     4     2    1
    10    23    22    3
    11    22    15    1
    12     2     5    1
    13     2     3    1
    14    15    14    1
    15    14    13    1
    16     6     5    1
    17     6     7    1
    18    12     7    1
    19    12    13    1
    20     7     8    1
    21    13    10    1
    22    10     8    1
    23    10    11    1
    24     8     9    1
