@<TRIPOS>MOLECULE
3ex1_U5P_A_1.pdb
 21 22 0 0 0
SMALL
GASTEIGER

@<TRIPOS>ATOM
      1  N1         4.5240    5.8740   25.9830 N.am  481  U5P481     -0.1766
      2  C2         3.7610    6.8630   25.3360 C.1   481  U5P481      0.2845
      3  N3         3.2700    6.6580   24.1100 N.2   481  U5P481     -0.2452
      4  C4         3.4770    5.5090   23.4740 C.1   481  U5P481      0.2182
      5  C5         4.1960    4.5230   24.0930 C.2   481  U5P481      0.1242
      6  C6         4.7010    4.7430   25.3400 C.2   481  U5P481      0.0929
      7  O2         3.5480    7.9480   25.8730 O.2   481  U5P481     -0.1918
      8  O4         2.9970    5.2820   22.3440 O.2   481  U5P481     -0.2085
      9  C1'        5.0780    5.9960   27.3530 C.3   481  U5P481      0.2401
     10  C2'        6.1330    7.0610   27.5510 C.3   481  U5P481      0.2319
     11  O2'        7.4940    6.6070   27.3590 O.3   481  U5P481     -0.2157
     12  C3'        5.9100    7.5250   28.9710 C.3   481  U5P481      0.2158
     13  C4'        4.4150    7.3880   29.1570 C.3   481  U5P481      0.1801
     14  O3'        6.6400    6.7330   29.9260 O.3   481  U5P481     -0.2175
     15  O4'        4.0360    6.2890   28.3120 O.3   481  U5P481     -0.3320
     16  C5'        3.6520    8.6680   28.8070 C.3   481  U5P481      0.1859
     17  O5'        3.6680    9.5220   29.9610 O.3   481  U5P481     -0.2675
     18  P          2.9360   10.9840   30.1240 P.3   481  U5P481      0.5327
     19  O1P        3.8850   11.6100   31.1160 O.3   481  U5P481     -0.1145
     20  O2P        2.9430   11.5520   28.7670 O.2   481  U5P481     -0.2224
     21  O3P        1.5940   10.5460   30.6910 O.3   481  U5P481     -0.1145
@<TRIPOS>BOND
     1     8     4    2
     2     4     5    1
     3     4     3    2
     4     5     6    2
     5     3     2    2
     6     2     7    2
     7     2     1   am
     8     6     1    1
     9     1     9    1
    10     9    10    1
    11     9    15    1
    12    11    10    1
    13    10    12    1
    14    15    13    1
    15    20    18    2
    16    16    13    1
    17    16    17    1
    18    12    13    1
    19    12    14    1
    20    17    18    1
    21    18    21    1
    22    18    19    1
