@<TRIPOS>MOLECULE
3ex2_6CN_A_1.pdb
 23 24 0 0 0
SMALL
GASTEIGER

@<TRIPOS>ATOM
      1  O3P        2.0620   10.3530   30.7510 O.3   481  6CN481     -0.1145
      2  P          3.4550   10.8210   30.3570 P.3   481  6CN481      0.5327
      3  O1P        4.3500   11.4250   31.4180 O.3   481  6CN481     -0.1145
      4  O2P        3.6230   11.3660   29.0050 O.2   481  6CN481     -0.2224
      5  O5'        4.1800    9.3710   30.1640 O.3   481  6CN481     -0.2675
      6  C5'        4.1640    8.5200   28.9640 C.3   481  6CN481      0.1859
      7  C4'        4.9100    7.2470   29.3530 C.3   481  6CN481      0.1801
      8  C3'        6.4110    7.4270   29.1250 C.3   481  6CN481      0.2158
      9  O3'        7.0990    6.5950   30.0930 O.3   481  6CN481     -0.2175
     10  C2'        6.6370    6.9300   27.7200 C.3   481  6CN481      0.2316
     11  O2'        7.9960    6.4890   27.4710 O.3   481  6CN481     -0.2157
     12  O4'        4.5140    6.1480   28.4790 O.3   481  6CN481     -0.3322
     13  C1'        5.5500    5.8720   27.4810 C.3   481  6CN481      0.2369
     14  N1         4.9870    5.8040   26.0840 N.am  481  6CN481     -0.1873
     15  C6         5.1450    4.6720   25.4360 C.3   481  6CN481      0.1956
     16  C5         4.7460    4.6360   24.1590 C.3   481  6CN481      0.1717
     17  C4         3.8740    5.5480   23.6310 C.1   481  6CN481      0.1952
     18  O4         3.3700    5.3780   22.5020 O.2   481  6CN481     -0.2133
     19  N3         3.6860    6.6700   24.2850 N.2   481  6CN481     -0.2496
     20  C2         4.2190    6.8450   25.4960 C.1   481  6CN481      0.2810
     21  O2         4.0050    7.9300   26.0480 O.2   481  6CN481     -0.1922
     22  C7         4.5500    3.6600   26.2510 C.1   481  6CN481      0.0945
     23  N8         4.0710    2.8520   26.9170 N.1   481  6CN481     -0.1941
@<TRIPOS>BOND
     1    18    17    2
     2    17    16    1
     3    17    19    2
     4    16    15    1
     5    19    20    2
     6    15    14    1
     7    15    22    1
     8    20    21    2
     9    20    14   am
    10    14    13    1
    11    22    23    3
    12    11    10    1
    13    13    10    1
    14    13    12    1
    15    10     8    1
    16    12     7    1
    17     6     7    1
    18     6     5    1
    19     4     2    2
    20     8     7    1
    21     8     9    1
    22     5     2    1
    23     2     1    1
    24     2     3    1
