@<TRIPOS>MOLECULE
3ex3_U5P_A_1.pdb
 21 22 0 0 0
SMALL
GASTEIGER

@<TRIPOS>ATOM
      1  N1         5.2610    7.9310   25.9600 N.am  481  U5P481     -0.1766
      2  C2         4.4150    8.8730   25.4940 C.1   481  U5P481      0.2845
      3  N3         3.8210    8.7070   24.2910 N.2   481  U5P481     -0.2452
      4  C4         3.9250    7.5570   23.5900 C.1   481  U5P481      0.2182
      5  C5         4.8030    6.5710   24.0840 C.2   481  U5P481      0.1242
      6  C6         5.4680    6.7710   25.3010 C.2   481  U5P481      0.0929
      7  O2         4.2600    9.9510   26.0770 O.2   481  U5P481     -0.1918
      8  O4         3.2650    7.4480   22.4660 O.2   481  U5P481     -0.2085
      9  C1'        5.8260    8.0840   27.3170 C.3   481  U5P481      0.2401
     10  C2'        6.7290    9.2630   27.5500 C.3   481  U5P481      0.2319
     11  O2'        8.0640    8.8270   27.4220 O.3   481  U5P481     -0.2157
     12  C3'        6.3830    9.5860   29.0190 C.3   481  U5P481      0.2158
     13  C4'        4.8910    9.3060   29.1230 C.3   481  U5P481      0.1801
     14  O3'        7.1540    8.8690   30.0840 O.3   481  U5P481     -0.2175
     15  O4'        4.6420    8.2800   28.0690 O.3   481  U5P481     -0.3320
     16  C5'        4.0790   10.6200   28.9110 C.3   481  U5P481      0.1859
     17  O5'        4.3130   11.4020   30.1080 O.3   481  U5P481     -0.2675
     18  P          3.5480   12.8280   30.2290 P.3   481  U5P481      0.5327
     19  O1P        2.1640   12.5540   30.7950 O.3   481  U5P481     -0.1145
     20  O2P        3.4760   13.5600   28.9000 O.2   481  U5P481     -0.2224
     21  O3P        4.3910   13.5850   31.2330 O.3   481  U5P481     -0.1145
@<TRIPOS>BOND
     1     8     4    2
     2     4     5    1
     3     4     3    2
     4     5     6    2
     5     3     2    2
     6     6     1    1
     7     2     1   am
     8     2     7    2
     9     1     9    1
    10     9    10    1
    11     9    15    1
    12    11    10    1
    13    10    12    1
    14    15    13    1
    15    20    18    2
    16    16    13    1
    17    16    17    1
    18    12    13    1
    19    12    14    1
    20    17    18    1
    21    18    19    1
    22    18    21    1
