@<TRIPOS>MOLECULE
3ex4_BMP_A_1.pdb
 22 23 0 0 0
SMALL
GASTEIGER

@<TRIPOS>ATOM
      1  P         12.2150   13.4680   42.1780 P.3   481  BMP481      0.5327
      2  OP1       13.3550   12.7210   42.8320 O.3   481  BMP481     -0.1145
      3  OP2       12.5610   14.9100   41.8510 O.2   481  BMP481     -0.2224
      4  OP3       10.9320   13.3490   42.9440 O.3   481  BMP481     -0.1145
      5  O5'       11.8430   12.7350   40.7910 O.3   481  BMP481     -0.2675
      6  C5'       12.8560   12.4590   39.8330 C.3   481  BMP481      0.1859
      7  C4'       12.1180   11.9910   38.5910 C.3   481  BMP481      0.1801
      8  O4'       13.0920   11.8630   37.4860 O.3   481  BMP481     -0.3319
      9  C3'       11.4710   10.5970   38.7080 C.3   481  BMP481      0.2158
     10  O3'       10.2510   10.5170   37.9660 O.3   481  BMP481     -0.2175
     11  C2'       12.5800    9.6630   38.2010 C.3   481  BMP481      0.2320
     12  O2'       11.9340    8.5060   37.6500 O.3   481  BMP481     -0.2157
     13  C1'       13.2550   10.4880   37.1300 C.3   481  BMP481      0.2425
     14  N1        14.6940   10.2230   36.9200 N.am  481  BMP481     -0.1473
     15  C2        15.5840   10.3510   37.9520 C.1   481  BMP481      0.2863
     16  O2        15.2290   10.6850   39.1200 O.2   481  BMP481     -0.1918
     17  N3        16.9220   10.1120   37.7260 N.2   481  BMP481     -0.2489
     18  C4        17.4480    9.7920   36.4970 C.1   481  BMP481      0.2018
     19  O4        18.6890    9.6740   36.3980 O.2   481  BMP481     -0.2129
     20  C5        16.5110    9.6630   35.4530 C.3   481  BMP481      0.2213
     21  C6        15.1410    9.9320   35.6650 C.2   481  BMP481      0.2591
     22  O1        14.3110    9.9430   34.7100 O.2   481  BMP481     -0.2725
@<TRIPOS>BOND
     1    22    21    2
     2    20    21    1
     3    20    18    1
     4    21    14   am
     5    19    18    2
     6    18    17    2
     7    14    13    1
     8    14    15   am
     9    13     8    1
    10    13    11    1
    11     8     7    1
    12    12    11    1
    13    17    15    2
    14    15    16    2
    15    10     9    1
    16    11     9    1
    17     7     9    1
    18     7     6    1
    19     6     5    1
    20     5     1    1
    21     3     1    2
    22     1     2    1
    23     1     4    1
