@<TRIPOS>MOLECULE
3ex6_U5P_B_1.pdb
 21 22 0 0 0
SMALL
GASTEIGER

@<TRIPOS>ATOM
      1  N1        21.0760   -5.1290   14.1590 N.am  482  U5P482     -0.1766
      2  C2        20.7830   -6.0370   13.1200 C.1   482  U5P482      0.2845
      3  N3        19.9380   -5.6700   12.1480 N.2   482  U5P482     -0.2452
      4  C4        19.3870   -4.4560   12.1750 C.1   482  U5P482      0.2182
      5  C5        19.6790   -3.5440   13.1610 C.2   482  U5P482      0.1242
      6  C6        20.5820   -3.9290   14.1170 C.2   482  U5P482      0.0929
      7  O2        21.2770   -7.1720   13.1030 O.2   482  U5P482     -0.1918
      8  O4        18.6730   -4.1650   11.2710 O.2   482  U5P482     -0.2085
      9  C1'       22.0880   -5.4670   15.1940 C.3   482  U5P482      0.2401
     10  C2'       21.8750   -6.7070   16.0510 C.3   482  U5P482      0.2319
     11  O2'       21.2760   -6.2440   17.2780 O.3   482  U5P482     -0.2157
     12  C3'       23.3270   -7.1630   16.2670 C.3   482  U5P482      0.2158
     13  C4'       24.0110   -6.8730   14.9220 C.3   482  U5P482      0.1801
     14  O3'       23.9490   -6.4020   17.3370 O.3   482  U5P482     -0.2175
     15  O4'       23.3020   -5.7120   14.4440 O.3   482  U5P482     -0.3320
     16  C5'       23.9060   -8.0760   13.9580 C.3   482  U5P482      0.1859
     17  O5'       24.8500   -8.9780   14.5500 O.3   482  U5P482     -0.2675
     18  P         25.1720  -10.3880   13.7920 P.3   482  U5P482      0.5327
     19  O1P       26.2050   -9.9850   12.7500 O.2   482  U5P482     -0.2224
     20  O2P       23.9040  -10.9100   13.2230 O.3   482  U5P482     -0.1145
     21  O3P       25.7490  -11.2280   14.8980 O.3   482  U5P482     -0.1145
@<TRIPOS>BOND
     1     8     4    2
     2     3     4    2
     3     3     2    2
     4     4     5    1
     5    19    18    2
     6     7     2    2
     7     2     1   am
     8     5     6    2
     9    20    18    1
    10    18    17    1
    11    18    21    1
    12    16    17    1
    13    16    13    1
    14     6     1    1
    15     1     9    1
    16    15    13    1
    17    15     9    1
    18    13    12    1
    19     9    10    1
    20    10    12    1
    21    10    11    1
    22    12    14    1
