@<TRIPOS>MOLECULE
3ex8_AIF_C_1.pdb
 23 23 0 0 0
SMALL
GASTEIGER

@<TRIPOS>ATOM
      1  C4        44.6430   51.7400   74.8720 C.1   381  AIF381      0.2192
      2  C5        43.8970   52.9040   74.8200 C.3   381  AIF381      0.2805
      3  C6        44.5030   54.1120   75.1500 C.2   381  AIF381      0.2402
      4  N1        45.8500   54.1860   75.5100 N.2   381  AIF381     -0.2901
      5  N3        45.9930   51.7750   75.2410 N.2   381  AIF381     -0.2351
      6  N5        42.5970   52.8410   74.5160 N.3   381  AIF381     -0.1042
      7  O2        47.7490   53.0270   75.9590 O.2   381  AIF381     -0.1745
      8  O4        44.1160   50.6510   74.6110 O.2   381  AIF381     -0.2114
      9  O1P       45.2130   56.7870   82.7200 O.3   381  AIF381     -0.1145
     10  P         44.3470   58.0690   82.2770 P.3   381  AIF381      0.5327
     11  O3P       45.0180   59.3200   83.0410 O.3   381  AIF381     -0.1145
     12  O2P       42.9170   57.9260   82.6300 O.2   381  AIF381     -0.2224
     13  O5'       44.5560   58.2330   80.6840 O.3   381  AIF381     -0.2674
     14  C5'       43.5390   57.8450   79.7500 C.3   381  AIF381      0.1892
     15  C4'       44.0110   57.9890   78.2990 C.3   381  AIF381      0.2150
     16  O4'       45.1540   57.1500   78.1080 O.3   381  AIF381     -0.2176
     17  C3'       42.9150   57.6660   77.2720 C.3   381  AIF381      0.2205
     18  O3'       41.9210   58.6960   77.2670 O.3   381  AIF381     -0.2171
     19  C2'       43.4640   57.5850   75.8440 C.3   381  AIF381      0.2256
     20  O2'       42.3980   57.4760   74.8990 O.3   381  AIF381     -0.2138
     21  C1'       44.3490   56.3480   75.6520 C.2   381  AIF381      0.1103
     22  N1'       43.7720   55.2170   75.3130 N.2   381  AIF381     -0.2172
     23  C2        46.5990   53.0000   75.5610 C.1   381  AIF381      0.3665
@<TRIPOS>BOND
     1     6     2    1
     2     8     1    2
     3     2     1    1
     4     2     3    1
     5     1     5    2
     6    20    19    1
     7     3    22    1
     8     3     4    2
     9     5    23    2
    10    22    21    2
    11     4    23    2
    12    23     7    2
    13    21    19    1
    14    19    17    1
    15    18    17    1
    16    17    15    1
    17    16    15    1
    18    15    14    1
    19    14    13    1
    20    13    10    1
    21    10    12    2
    22    10     9    1
    23    10    11    1
