@<TRIPOS>MOLECULE
3exb_III_B_1.pdb
 28 29 0 0 0
SMALL
GASTEIGER

@<TRIPOS>ATOM
      1  C2        30.7710   90.9890   45.3970 C.2   293  EXB293      0.0154
      2  C5        31.3360   91.3250   48.1440 C.3   293  EXB293      0.0726
      3  C4        30.1820   91.8730   47.5770 C.2   293  EXB293     -0.0197
      4  C3        29.9160   91.7080   46.2180 C.2   293  EXB293     -0.0029
      5  C6        32.1890   90.5980   47.3180 C.2   293  EXB293      0.0733
      6  C11       32.5450   89.4360   42.9010 C.3   293  EXB293      0.1082
      7  C10       33.3070   89.1610   44.1360 C.3   293  EXB293      0.1023
      8  N9        32.9460   89.6910   45.4540 N.pl3 293  EXB293     -0.2858
      9  C1        31.9300   90.4410   45.9510 C.2   293  EXB293      0.0629
     10  C8        33.7900   89.4080   46.4630 C.3   293  EXB293      0.2196
     11  N7        33.3450   89.9500   47.5940 N.2   293  EXB293     -0.2508
     12  C12       33.2490   89.4400   41.7460 C.2   293  EXB293      0.2436
     13  O         34.4740   89.2740   41.7640 O.2   293  EXB293     -0.2733
     14  N         32.5820   89.6470   40.6130 N.am  294  GLY294     -0.1954
     15  CA        33.1090   89.3580   39.4170 C.3   294  GLY294      0.2013
     16  C         32.5680   88.4080   38.6310 C.2   294  GLY294      0.2639
     17  O         31.5850   87.7790   39.0010 O.2   294  GLY294     -0.2714
     18  N         33.0990   88.1690   37.4340 N.am  295  ALA295     -0.1963
     19  CA        32.2170   87.7560   36.3520 C.3   295  ALA295      0.1728
     20  C         31.9020   86.2880   36.4380 C.2   295  ALA295      0.2616
     21  O         32.6690   85.5270   37.0120 O.2   295  ALA295     -0.2715
     22  CB        32.8360   88.0740   34.9910 C.3   295  ALA295      0.0334
     23  N         30.7630   85.8790   35.8650 N.am  296  ALA296     -0.1963
     24  CA        30.3440   84.4800   35.8630 C.3   296  ALA296      0.1745
     25  C         31.4050   83.5900   35.2860 C.2   296  ALA296      0.2806
     26  O         32.0440   83.9600   34.3080 O.2   296  ALA296     -0.2698
     27  CB        29.0940   84.3070   35.0030 C.3   296  ALA296      0.0334
     28  N         31.5900   82.4140   35.8850 N.am  297  NH2297     -0.0863
@<TRIPOS>BOND
     1    26    25    2
     2    22    19    1
     3    27    24    1
     4    25    24    1
     5    25    28   am
     6    24    23    1
     7    23    20   am
     8    19    20    1
     9    19    18    1
    10    20    21    2
    11    18    16   am
    12    16    17    2
    13    16    15    1
    14    15    14    1
    15    14    12   am
    16    12    13    2
    17    12     6    1
    18     6     7    1
    19     7     8    1
    20     1     9    2
    21     1     4    1
    22     8     9    1
    23     8    10    1
    24     9     5    1
    25     4     3    2
    26    10    11    1
    27     5    11    2
    28     5     2    1
    29     3     2    1
