@<TRIPOS>MOLECULE
3exb_HEM_A_1.pdb
 43 50 0 0 0
SMALL
GASTEIGER

@<TRIPOS>ATOM
      1  CHA       27.7850   93.5750   49.2430 C.2   300  HEM300      0.0000
      2  CHB       30.4990   93.5050   53.2800 C.2   300  HEM300      0.0000
      3  CHC       28.3290   89.3610   54.6280 C.2   300  HEM300      0.0000
      4  CHD       25.3920   89.5660   50.7660 C.2   300  HEM300      0.0000
      5  C1A       28.6820   93.9070   50.2310 C.2   300  HEM300      0.0000
      6  C2A       29.5390   95.0600   50.2040 C.2   300  HEM300      0.0000
      7  C3A       30.2830   95.0330   51.3160 C.2   300  HEM300      0.0000
      8  C4A       29.9320   93.8700   52.0740 C.2   300  HEM300      0.0000
      9  CMA       31.3590   96.0520   51.7460 C.3   300  HEM300      0.0000
     10  CAA       29.5530   96.1220   49.0900 C.3   300  HEM300      0.0000
     11  CBA       28.4030   97.1130   49.3210 C.3   300  HEM300      0.0000
     12  CGA       28.4670   98.1490   48.2220 C.2   300  HEM300      0.0000
     13  O1A       29.5470   98.7630   48.0780 O.co2 300  HEM300      0.0000
     14  O2A       27.4470   98.3290   47.4730 O.co2 300  HEM300      0.0000
     15  C1B       30.1980   92.3510   53.9630 C.ar  300  HEM300      0.0000
     16  C2B       30.8400   91.8730   55.1610 C.ar  300  HEM300      0.0000
     17  C3B       30.2500   90.7300   55.5150 C.ar  300  HEM300      0.0000
     18  C4B       29.1880   90.4480   54.5690 C.ar  300  HEM300      0.0000
     19  CMB       32.0130   92.5900   55.8490 C.3   300  HEM300      0.0000
     20  CAB       30.5580   89.8150   56.7120 C.2   300  HEM300      0.0000
     21  CBB       31.8330   89.6840   57.1840 C.2   300  HEM300      0.0000
     22  C1C       27.2750   89.0940   53.7630 C.2   300  HEM300      0.0000
     23  C2C       26.2400   88.0960   53.9360 C.2   300  HEM300      0.0000
     24  C3C       25.4270   88.1570   52.8600 C.2   300  HEM300      0.0000
     25  C4C       25.9140   89.1910   51.9840 C.2   300  HEM300      0.0000
     26  CMC       26.1060   87.1610   55.1480 C.3   300  HEM300      0.0000
     27  CAC       24.1540   87.3490   52.5590 C.2   300  HEM300      0.0000
     28  CBC       24.0230   86.0430   52.8420 C.2   300  HEM300      0.0000
     29  C1D       25.8740   90.5820   49.9720 C.ar  300  HEM300      0.0000
     30  C2D       25.4800   90.8030   48.5990 C.ar  300  HEM300      0.0000
     31  C3D       26.1910   92.0320   48.1320 C.ar  300  HEM300      0.0000
     32  C4D       26.9830   92.4690   49.2530 C.ar  300  HEM300      0.0000
     33  CMD       24.4940   89.9450   47.7780 C.3   300  HEM300      0.0000
     34  CAD       26.1300   92.6860   46.7520 C.3   300  HEM300      0.0000
     35  CBD       24.9740   93.6850   46.7410 C.3   300  HEM300      0.0000
     36  CGD       24.9520   94.4120   45.4190 C.2   300  HEM300      0.0000
     37  O1D       24.2980   95.4910   45.3560 O.co2 300  HEM300      0.0000
     38  O2D       25.5610   93.9490   44.4230 O.co2 300  HEM300      0.0000
     39  NA        28.9340   93.1940   51.3770 N.2   300  HEM300      0.0000
     40  NB        29.1800   91.4670   53.6360 N.ar  300  HEM300      0.0000
     41  NC        27.0160   89.7650   52.5770 N.2   300  HEM300      0.0000
     42  ND        26.7730   91.5930   50.3110 N.ar  300  HEM300      0.0000
     43 FE         28.0800   91.4240   51.9230 Fe    300  HEM300      0.0000
@<TRIPOS>BOND
     1    38    36   ar
     2    37    36   ar
     3    36    35    1
     4    35    34    1
     5    34    31    1
     6    14    12   ar
     7    33    30    1
     8    13    12   ar
     9    31    30   ar
    10    31    32   ar
    11    12    11    1
    12    30    29   ar
    13    10    11    1
    14    10     6    1
    15     1    32    2
    16     1     5    1
    17    32    42   ar
    18    29    42   ar
    19    29     4    2
    20     6     5    1
    21     6     7    2
    22     5    39    2
    23    42    43    1
    24     4    25    1
    25     7     9    1
    26     7     8    1
    27    39    43    1
    28    39     8    1
    29    43    41    1
    30    43    40    1
    31    25    41    2
    32    25    24    1
    33     8     2    2
    34    27    28    2
    35    27    24    1
    36    41    22    1
    37    24    23    2
    38     2    15    1
    39    40    15   ar
    40    40    18   ar
    41    22    23    1
    42    22     3    2
    43    23    26    1
    44    15    16   ar
    45    18     3    1
    46    18    17   ar
    47    16    17   ar
    48    16    19    1
    49    17    20    1
    50    20    21    2
