@<TRIPOS>MOLECULE
3exe_TPP_A_1.pdb
 26 27 0 0 0
SMALL
GASTEIGER

@<TRIPOS>ATOM
      1  N1'       26.6050   12.6150   54.4360 N.2   1005  TPP1005    -0.1861
      2  C2'       26.3440   12.0410   55.6670 C.1   1005  TPP1005     0.0663
      3  CM2       25.2810   10.9350   55.7880 C.3   1005  TPP1005     0.1291
      4  N3'       27.0800   12.4880   56.7440 N.2   1005  TPP1005    -0.3368
      5  C4'       28.0250   13.4570   56.5370 C.2   1005  TPP1005     0.2292
      6  N4'       28.7120   13.8370   57.6220 N.pl3 1005  TPP1005    -0.0925
      7  C5'       28.2570   14.0350   55.2640 C.2   1005  TPP1005     0.0654
      8  C6'       27.5430   13.5700   54.2000 C.2   1005  TPP1005     0.1115
      9  C7'       29.2830   15.1410   54.9980 C.3   1005  TPP1005     0.1237
     10  N3        28.6940   16.3390   55.5690 N.pl3 1005  TPP1005    -0.2970
     11  C2        28.8740   16.7600   56.8940 C.3   1005  TPP1005     0.1543
     12  S1        28.0180   18.1230   57.2400 S.3   1005  TPP1005    -0.0951
     13  C5        27.4060   18.1760   55.6820 C.2   1005  TPP1005     0.0164
     14  C4        27.8090   17.1630   54.8740 C.2   1005  TPP1005     0.0279
     15  CM4       27.3590   17.0080   53.4230 C.3   1005  TPP1005     0.0473
     16  C6        26.4390   19.2920   55.2730 C.3   1005  TPP1005     0.0661
     17  C7        25.2960   19.3670   56.2630 C.3   1005  TPP1005     0.1544
     18  O7        24.6490   20.6240   56.1290 O.3   1005  TPP1005    -0.3134
     19  PA        23.3920   21.0810   57.0380 P.3   1005  TPP1005     0.2230
     20  O1A       22.5170   19.9330   57.4500 O.3   1005  TPP1005    -0.4370
     21  O2A       22.7190   22.2410   56.3680 O.2   1005  TPP1005    -0.5169
     22  O3A       24.1080   21.5180   58.4260 O.3   1005  TPP1005    -0.2261
     23  PB        24.8510   22.8660   58.9090 P.3   1005  TPP1005     0.5373
     24  O1B       24.6950   23.9470   57.8490 O.2   1005  TPP1005    -0.2221
     25  O2B       24.1900   23.2310   60.2200 O.3   1005  TPP1005    -0.1143
     26  O3B       26.2820   22.5260   59.1690 O.3   1005  TPP1005    -0.1143
@<TRIPOS>BOND
     1    15    14    1
     2     8     1    1
     3     8     7    2
     4     1     2    2
     5    14    10    1
     6    14    13    2
     7     9     7    1
     8     9    10    1
     9     7     5    1
    10    16    13    1
    11    16    17    1
    12    10    11    1
    13     2     3    1
    14     2     4    2
    15    13    12    1
    16    18    17    1
    17    18    19    1
    18    21    19    2
    19     5     4    2
    20     5     6    1
    21    11    12    1
    22    19    20    1
    23    19    22    1
    24    24    23    2
    25    22    23    1
    26    23    26    1
    27    23    25    1
