@<TRIPOS>MOLECULE
3exf_TPP_A_1.pdb
 26 27 0 0 0
SMALL
GASTEIGER

@<TRIPOS>ATOM
      1  N1'      -14.6010   -2.3310   -6.6860 N.2   1003  TPP1003    -0.1861
      2  C2'      -15.1920   -2.4600   -7.9250 C.1   1003  TPP1003     0.0663
      3  CM2      -16.0820   -3.6090   -8.2100 C.3   1003  TPP1003     0.1291
      4  N3'      -14.9940   -1.5550   -8.9210 N.2   1003  TPP1003    -0.3368
      5  C4'      -14.1650   -0.4830   -8.6830 C.2   1003  TPP1003     0.2292
      6  N4'      -13.9830    0.4110   -9.6730 N.pl3 1003  TPP1003    -0.0925
      7  C5'      -13.5670   -0.3510   -7.4150 C.2   1003  TPP1003     0.0654
      8  C6'      -13.7860   -1.2720   -6.4250 C.2   1003  TPP1003     0.1115
      9  C7'      -12.6380    0.7790   -7.0830 C.3   1003  TPP1003     0.1237
     10  N3       -11.4280    0.4920   -7.8110 N.pl3 1003  TPP1003    -0.2970
     11  C2       -11.1540    1.0830   -9.0280 C.3   1003  TPP1003     0.1543
     12  S1        -9.7660    0.6080   -9.6790 S.3   1003  TPP1003    -0.0951
     13  C5        -9.4470   -0.3770   -8.4380 C.2   1003  TPP1003     0.0164
     14  C4       -10.4350   -0.3640   -7.4530 C.2   1003  TPP1003     0.0279
     15  CM4      -10.3760   -1.1810   -6.2030 C.3   1003  TPP1003     0.0473
     16  C6        -8.1350   -1.1350   -8.5130 C.3   1003  TPP1003     0.0661
     17  C7        -7.9540   -2.2350   -9.5550 C.3   1003  TPP1003     0.1544
     18  O7        -6.5480   -2.4540   -9.6790 O.3   1003  TPP1003    -0.3134
     19  PA        -5.8580   -3.4270  -10.7850 P.3   1003  TPP1003     0.2230
     20  O1A       -6.7200   -4.6130  -11.0810 O.2   1003  TPP1003    -0.5169
     21  O2A       -4.4680   -3.8120  -10.3720 O.3   1003  TPP1003    -0.4370
     22  O3A       -5.9560   -2.5820  -12.1550 O.3   1003  TPP1003    -0.2261
     23  PB        -4.9580   -1.3750  -12.5350 P.3   1003  TPP1003     0.5373
     24  O1B       -3.6010   -1.6930  -11.9530 O.3   1003  TPP1003    -0.1143
     25  O2B       -5.0170   -1.1610  -14.0350 O.2   1003  TPP1003    -0.2221
     26  O3B       -5.4030   -0.0790  -11.9280 O.3   1003  TPP1003    -0.1143
@<TRIPOS>BOND
     1    25    23    2
     2    23    22    1
     3    23    24    1
     4    23    26    1
     5    22    19    1
     6    20    19    2
     7    19    21    1
     8    19    18    1
     9    12    11    1
    10    12    13    1
    11    18    17    1
    12     6     5    1
    13    17    16    1
    14    11    10    1
    15     4     5    2
    16     4     2    2
    17     5     7    1
    18    16    13    1
    19    13    14    2
    20     3     2    1
    21     2     1    2
    22    10    14    1
    23    10     9    1
    24    14    15    1
    25     7     9    1
    26     7     8    2
    27     1     8    1
