@<TRIPOS>MOLECULE
3exh_TPP_A_1.pdb
 26 27 0 0 0
SMALL
GASTEIGER

@<TRIPOS>ATOM
      1  N1'      -35.5910   59.8340   18.2730 N.2   1502  TPP1502    -0.1861
      2  C2'      -36.3630   60.8080   17.7070 C.1   1502  TPP1502     0.0663
      3  CM2      -36.7100   60.7030   16.2260 C.3   1502  TPP1502     0.1291
      4  N3'      -36.7840   61.8670   18.5180 N.2   1502  TPP1502    -0.3368
      5  C4'      -36.4650   61.9530   19.8530 C.2   1502  TPP1502     0.2292
      6  N4'      -36.9290   62.9790   20.5490 N.pl3 1502  TPP1502    -0.0925
      7  C5'      -35.6930   60.9360   20.3950 C.2   1502  TPP1502     0.0654
      8  C6'      -35.2740   59.9100   19.5860 C.2   1502  TPP1502     0.1115
      9  C7'      -35.2610   60.8580   21.8430 C.3   1502  TPP1502     0.1237
     10  N3       -34.2330   61.8390   22.0630 N.pl3 1502  TPP1502    -0.2970
     11  C2       -34.6120   63.0970   22.5250 C.3   1502  TPP1502     0.1543
     12  S1       -33.3330   64.0530   22.7160 S.3   1502  TPP1502    -0.0951
     13  C5       -32.2600   62.9440   22.1900 C.2   1502  TPP1502     0.0164
     14  C4       -32.8600   61.7300   21.8470 C.2   1502  TPP1502     0.0279
     15  CM4      -32.0990   60.5320   21.3760 C.3   1502  TPP1502     0.0473
     16  C6       -30.8240   63.3900   22.1410 C.3   1502  TPP1502     0.0661
     17  C7       -30.7010   64.4200   21.0050 C.3   1502  TPP1502     0.1544
     18  O7       -29.5640   65.2280   21.2370 O.3   1502  TPP1502    -0.3134
     19  PA       -28.9320   66.4240   20.3610 P.3   1502  TPP1502     0.2230
     20  O1A      -29.5110   66.5620   18.9650 O.2   1502  TPP1502    -0.5169
     21  O2A      -27.4460   66.3520   20.3680 O.3   1502  TPP1502    -0.4370
     22  O3A      -29.5460   67.7490   21.0430 O.3   1502  TPP1502    -0.2261
     23  PB       -29.2770   68.2870   22.5540 P.3   1502  TPP1502     0.5373
     24  O1B      -27.8410   67.9890   22.8620 O.3   1502  TPP1502    -0.1143
     25  O2B      -29.4030   69.7950   22.4560 O.2   1502  TPP1502    -0.2221
     26  O3B      -30.2160   67.7140   23.5590 O.3   1502  TPP1502    -0.1143
@<TRIPOS>BOND
     1     3     2    1
     2     2     1    2
     3     2     4    2
     4     1     8    1
     5     4     5    2
     6    20    19    2
     7     8     7    2
     8     5     7    1
     9     5     6    1
    10    19    21    1
    11    19    22    1
    12    19    18    1
    13     7     9    1
    14    17    18    1
    15    17    16    1
    16    22    23    1
    17    15    14    1
    18     9    10    1
    19    14    10    1
    20    14    13    2
    21    10    11    1
    22    16    13    1
    23    13    12    1
    24    25    23    2
    25    11    12    1
    26    23    24    1
    27    23    26    1
