@<TRIPOS>MOLECULE
3exm_GP2_A_1.pdb
 28 30 0 0 0
SMALL
GASTEIGER

@<TRIPOS>ATOM
      1  O6        -6.5490   11.5370  -12.9990 O.2   401  GP2401     -0.2069
      2  C6        -7.1680   12.6420  -12.9830 C.1   401  GP2401      0.2372
      3  C5        -7.8150   13.1340  -14.1220 C.2   401  GP2401      0.2182
      4  N7        -7.9750   12.6720  -15.3910 N.2   401  GP2401     -0.2322
      5  C4        -8.4830   14.3470  -14.0290 C.2   401  GP2401      0.2300
      6  N3        -8.5150   15.0640  -12.8640 N.2   401  GP2401     -0.3074
      7  C2        -7.8770   14.5800  -11.7630 C.1   401  GP2401      0.2531
      8  N1        -7.2320   13.3850  -11.8400 N.2   401  GP2401     -0.2485
      9  N2        -7.9400   15.2850  -10.6060 N.pl3 401  GP2401     -0.0226
     10  N9        -9.0220   14.5930  -15.2280 N.pl3 401  GP2401     -0.2354
     11  C8        -8.7110   13.5830  -16.0700 C.3   401  GP2401      0.2246
     12  C1'       -9.8020   15.8110  -15.5240 C.3   401  GP2401      0.2293
     13  C2'       -8.9320   16.6970  -16.4060 C.3   401  GP2401      0.2310
     14  O2'       -8.5480   17.8720  -15.6880 O.3   401  GP2401     -0.2158
     15  C3'       -9.7910   17.0420  -17.5980 C.3   401  GP2401      0.2158
     16  O3'       -9.7410   18.4500  -17.8750 O.3   401  GP2401     -0.2175
     17  O4'      -11.0050   15.5350  -16.2360 O.3   401  GP2401     -0.3326
     18  C4'      -11.1860   16.5580  -17.2360 C.3   401  GP2401      0.1800
     19  C5'      -11.8530   15.9640  -18.4660 C.3   401  GP2401      0.1836
     20  O5'      -10.9370   15.0200  -19.0260 O.3   401  GP2401     -0.2897
     21  PA       -10.4960   15.0400  -20.5830 P.3   401  GP2401      0.3770
     22  O1A       -9.8310   16.3920  -20.8180 O.3   401  GP2401     -0.1394
     23  O2A       -9.5850   13.8590  -20.8520 O.2   401  GP2401     -0.2550
     24  C3A      -11.9270   15.1010  -21.3620 C.3   401  GP2401      0.1765
     25  PB       -13.3710   15.7590  -21.7590 P.3   401  GP2401      0.1295
     26  O1B      -14.3420   15.3420  -20.6460 O.3   401  GP2401     -0.3567
     27  O3B      -12.8590   17.1920  -21.7610 O.3   401  GP2401     -0.3567
     28  O2B      -13.9930   15.4250  -23.1230 O.2   401  GP2401     -0.4595
@<TRIPOS>BOND
     1    28    25    2
     2    27    25    1
     3    25    24    1
     4    25    26    1
     5    24    21    1
     6    23    21    2
     7    22    21    1
     8    21    20    1
     9    20    19    1
    10    19    18    1
    11    16    15    1
    12    15    18    1
    13    15    13    1
    14    18    17    1
    15    13    14    1
    16    13    12    1
    17    17    12    1
    18    11     4    1
    19    11    10    1
    20    12    10    1
    21     4     3    2
    22    10     5    1
    23     3     5    1
    24     3     2    1
    25     5     6    2
    26     1     2    2
    27     2     8    2
    28     6     7    2
    29     8     7    2
    30     7     9    1
