@<TRIPOS>MOLECULE
3exn_ACO_A_1.pdb
 29 28 0 0 0
SMALL
GASTEIGER

@<TRIPOS>ATOM
      1  O5B       11.3240    9.1300    7.9040 O.3   1001  ACO1001    -0.1143
      2  P1A       11.7250    7.7950    8.7900 P.3   1001  ACO1001     0.5373
      3  O1A       12.9510    8.1460    9.6330 O.3   1001  ACO1001    -0.1143
      4  O2A       11.5940    6.5810    7.8840 O.2   1001  ACO1001    -0.2221
      5  O3A       10.4320    7.7680    9.7810 O.3   1001  ACO1001    -0.2261
      6  P2A       10.2680    6.7660   11.0100 P.3   1001  ACO1001     0.2230
      7  O4A       10.3240    7.6530   12.2580 O.3   1001  ACO1001    -0.4370
      8  O5A       11.2690    5.6370   10.9650 O.2   1001  ACO1001    -0.5169
      9  O6A        8.7310    6.2670   10.6910 O.3   1001  ACO1001    -0.3137
     10  CBP        6.4880    6.7670   11.6040 C.3   1001  ACO1001     0.0645
     11  CCP        7.5970    7.1500   10.6070 C.3   1001  ACO1001     0.1519
     12  CDP        6.0030    5.3960   11.1700 C.3   1001  ACO1001     0.0056
     13  CEP        5.3120    7.7370   11.5410 C.3   1001  ACO1001     0.0056
     14  CAP        7.0650    6.7150   13.0450 C.3   1001  ACO1001     0.2312
     15  OAP        7.5370    8.0240   13.4590 O.3   1001  ACO1001    -0.2131
     16  C9P        6.0540    6.2820   14.0890 C.2   1001  ACO1001     0.2719
     17  O9P        5.9260    5.1100   14.4130 O.2   1001  ACO1001    -0.2706
     18  N8P        5.3340    7.2470   14.6560 N.am  1001  ACO1001    -0.2028
     19  C7P        4.3760    7.0000   15.7510 C.3   1001  ACO1001     0.1248
     20  C6P        3.2130    6.0880   15.3630 C.3   1001  ACO1001     0.1102
     21  C5P        2.4430    6.6550   14.1790 C.2   1001  ACO1001     0.2432
     22  O5P        2.1470    7.8670   14.1010 O.2   1001  ACO1001    -0.2733
     23  N4P        2.1190    5.7590   13.2340 N.am  1001  ACO1001    -0.2044
     24  C3P        1.3690    6.1400   12.0580 C.3   1001  ACO1001     0.1272
     25  C2P       -0.1160    5.9820   12.2720 C.3   1001  ACO1001     0.0883
     26  S1P       -1.0730    6.3920   10.8050 S.3   1001  ACO1001    -0.0753
     27  C         -0.8190    4.9280    9.9930 C.2   1001  ACO1001     0.1992
     28  O         -0.1360    4.0840   10.5120 O.2   1001  ACO1001    -0.2845
     29  CH3       -1.4430    4.6840    8.6320 C.3   1001  ACO1001     0.0845
@<TRIPOS>BOND
     1     4     2    2
     2     1     2    1
     3    29    27    1
     4     2     3    1
     5     2     5    1
     6     5     6    1
     7    27    28    2
     8    27    26    1
     9    11     9    1
    10    11    10    1
    11     9     6    1
    12    26    25    1
    13     8     6    2
    14     6     7    1
    15    12    10    1
    16    13    10    1
    17    10    14    1
    18    24    25    1
    19    24    23    1
    20    14    15    1
    21    14    16    1
    22    23    21   am
    23    16    17    2
    24    16    18   am
    25    22    21    2
    26    21    20    1
    27    18    19    1
    28    20    19    1
