@<TRIPOS>MOLECULE
3exo_5MS_A_1.pdb
 25 27 0 0 0
SMALL
GASTEIGER

@<TRIPOS>ATOM
      1  C         33.8520   40.5790    1.9270 C.ar  453  5MS453     -0.0049
      2  C1        34.2310   40.0940    0.6790 C.ar  453  5MS453      0.0007
      3  C2        34.6980   40.9550   -0.3120 C.ar  453  5MS453      0.0442
      4  C3        34.7990   42.3260   -0.0820 C.ar  453  5MS453      0.1844
      5  C4        34.4110   42.8130    1.1740 C.ar  453  5MS453      0.0621
      6  C5        33.9400   41.9600    2.1780 C.ar  453  5MS453      0.0902
      7  N         35.2390   43.1900   -1.0100 N.pl3 453  5MS453     -0.0096
      8  C6        34.5800   44.1400   -1.6950 C.2   453  5MS453      0.3450
      9  C7        35.2410   44.7520   -2.7700 C.3   453  5MS453      0.1663
     10  C8        34.5800   45.7460   -3.4990 C.2   453  5MS453      0.0705
     11  N9        33.3090   46.1020   -3.1600 N.2   453  5MS453     -0.2225
     12  C10       32.7360   45.4720   -2.1030 C.3   453  5MS453      0.3913
     13  N11       33.3130   44.5040   -1.3570 N.2   453  5MS453     -0.0366
     14  C12       35.1800   46.4710   -4.6810 C.ar  453  5MS453      0.0139
     15  C13       34.3540   47.0430   -5.6690 C.ar  453  5MS453      0.0012
     16  C14       34.8770   47.7220   -6.7780 C.ar  453  5MS453      0.0000
     17  C15       36.2620   47.8380   -6.9300 C.ar  453  5MS453      0.0000
     18  C16       37.1080   47.2750   -5.9660 C.ar  453  5MS453      0.0000
     19  C17       36.5690   46.6030   -4.8620 C.ar  453  5MS453      0.0012
     20  C18       33.3500   39.5810    2.9430 C.3   453  5MS453      0.0324
     21  N19       33.5600   42.4250    3.3950 N.pl3 453  5MS453     -0.1008
     22  S         33.5050   44.0500    3.9350 S.O2  453  5MS453      0.0750
     23  C20       32.2160   44.7370    3.0520 C.3   453  5MS453      0.2016
     24  O         32.9520   43.9950    5.5330 O.2   453  5MS453     -0.1528
     25  O21       34.9330   44.8860    3.5520 O.2   453  5MS453     -0.1528
@<TRIPOS>BOND
     1    17    16   ar
     2    17    18   ar
     3    16    15   ar
     4    18    19   ar
     5    15    14   ar
     6    19    14   ar
     7    14    10    1
     8    10    11    2
     9    10     9    1
    10    11    12    1
    11     9     8    1
    12    12    13    1
    13     8    13    2
    14     8     7    1
    15     7     4    1
    16     3     4   ar
    17     3     2   ar
    18     4     5   ar
    19     2     1   ar
    20     5     6   ar
    21     1     6   ar
    22     1    20    1
    23     6    21    1
    24    23    22    1
    25    21    22    1
    26    25    22    2
    27    22    24    2
