@<TRIPOS>MOLECULE
3exs_5RP_A_1.pdb
 14 13 0 0 0
SMALL
GASTEIGER

@<TRIPOS>ATOM
      1  C2        10.0180   51.1680   69.9960 C.3   501  5RP501      0.2486
      2  C3        10.7620   49.8540   70.1060 C.2   501  5RP501      0.2165
      3  C5        10.1880   48.5410   69.6240 C.3   501  5RP501      0.2439
      4  O13        8.8290   48.2690   69.9850 O.3   501  5RP501     -0.2122
      5  C6        11.1070   47.5600   70.3120 C.3   501  5RP501      0.2194
      6  O14       12.3070   47.5520   69.5500 O.3   501  5RP501     -0.2172
      7  C7        10.5700   46.1630   70.3680 C.3   501  5RP501      0.1896
      8  O8        10.9000   45.7710   71.6810 O.3   501  5RP501     -0.2674
      9  P9         9.9120   44.7180   72.3600 P.3   501  5RP501      0.5327
     10  O12        8.5440   45.0250   71.7800 O.2   501  5RP501     -0.2224
     11  O11       10.0130   45.0020   73.8550 O.3   501  5RP501     -0.1145
     12  O10       10.5010   43.4080   71.8640 O.3   501  5RP501     -0.1145
     13  O4        11.9020   49.8310   70.5720 O.2   501  5RP501     -0.2905
     14  O1        10.4120   51.7830   68.7670 O.3   501  5RP501     -0.2118
@<TRIPOS>BOND
     1    14     1    1
     2     6     5    1
     3     3     4    1
     4     3     2    1
     5     3     5    1
     6     1     2    1
     7     2    13    2
     8     5     7    1
     9     7     8    1
    10     8     9    1
    11    10     9    2
    12    12     9    1
    13     9    11    1
