@<TRIPOS>MOLECULE
3ey4_352_A_1.pdb
 21 22 0 0 0
SMALL
GASTEIGER

@<TRIPOS>ATOM
      1  C1        38.4080    1.8450  157.2190 C.3   601  352601      0.1500
      2  C2        38.8110    2.8430  156.0880 C.3   601  352601      0.0350
      3  C3        40.3910    1.2450  151.6810 C.ar  601  352601     -0.0003
      4  C4        41.2210    2.3520  151.4360 C.ar  601  352601      0.0294
      5  C5        42.5370    2.3420  151.8990 C.ar  601  352601      0.1401
      6  C6        43.0360    1.2250  152.6490 C.ar  601  352601      0.0294
      7  C7        42.1880    0.0960  152.8680 C.ar  601  352601     -0.0003
      8  C8        40.8510    0.0950  152.3680 C.ar  601  352601     -0.0024
      9  N9        38.4670   -0.7770  152.8260 N.pl3 601  352601     -0.2009
     10  C10       39.8980   -1.1110  152.5220 C.3   601  352601      0.1178
     11  C11       38.1400   -0.1700  154.0790 C.2   601  352601      0.2401
     12  S12       39.1120   -0.2310  155.5790 S.3   601  352601     -0.0470
     13  C13       37.8160    0.5010  156.5970 C.3   601  352601      0.1754
     14  C14       36.6530    0.8360  155.5930 C.1   601  352601      0.1921
     15  N15       36.9710    0.4740  154.3160 N.2   601  352601     -0.3121
     16  O16       35.5980    1.3660  155.9590 O.2   601  352601     -0.2132
     17  C17       37.2970   -0.5640  157.6060 C.3   601  352601      0.0318
     18  F18       43.2620    3.4460  151.5810 F     601  352601     -0.2042
     19  C19       39.8130   -1.9140  151.2220 C.3   601  352601      0.0283
     20  O20       37.5760    2.4650  158.1940 O.3   601  352601     -0.2237
     21  C21       39.7110    1.6220  158.0260 C.3   601  352601      0.0350
@<TRIPOS>BOND
     1    19    10    1
     2     4     3   ar
     3     4     5   ar
     4    18     5    1
     5     3     8   ar
     6     5     6   ar
     7     8    10    1
     8     8     7   ar
     9    10     9    1
    10     6     7   ar
    11     9    11    1
    12    11    15    2
    13    11    12    1
    14    15    14    2
    15    12    13    1
    16    14    16    2
    17    14    13    1
    18     2     1    1
    19    13     1    1
    20    13    17    1
    21     1    21    1
    22     1    20    1
