@<TRIPOS>MOLECULE
3ey4_NDP_A_1.pdb
 48 52 0 0 0
SMALL
GASTEIGER

@<TRIPOS>ATOM
      1  PA        42.7220   -6.8880  147.9180 P.3   501  NDP501      0.2189
      2  O1A       43.5720   -7.8720  148.7220 O.3   501  NDP501     -0.4371
      3  O2A       43.4710   -5.6760  147.4640 O.2   501  NDP501     -0.5170
      4  O5B       42.2020   -7.5920  146.6490 O.3   501  NDP501     -0.3112
      5  C5B       41.9630   -6.7920  145.5100 C.3   501  NDP501      0.1813
      6  C4B       41.5460   -7.7070  144.3440 C.3   501  NDP501      0.1820
      7  O4B       41.2030   -6.8040  143.3270 O.3   501  NDP501     -0.3136
      8  C3B       42.6910   -8.6190  143.7660 C.3   501  NDP501      0.2157
      9  O3B       42.4710  -10.0520  143.6620 O.3   501  NDP501     -0.2175
     10  C2B       43.0130   -7.8640  142.4930 C.3   501  NDP501      0.2314
     11  O2B       43.7440   -8.6050  141.5060 O.3   501  NDP501     -0.2630
     12  C1B       41.6650   -7.2600  142.0910 C.3   501  NDP501      0.3158
     13  N9A       41.7680   -6.0700  141.2430 N.pl3 501  NDP501     -0.1439
     14  C8A       42.3800   -4.8950  141.4690 C.3   501  NDP501      0.3377
     15  N7A       42.2630   -4.0380  140.4440 N.2   501  NDP501     -0.2095
     16  C5A       41.5420   -4.6930  139.4840 C.2   501  NDP501      0.2526
     17  C6A       41.1100   -4.4330  138.1800 C.2   501  NDP501      0.4393
     18  N6A       41.3870   -3.2810  137.5170 N.pl3 501  NDP501      0.2180
     19  N1A       40.3860   -5.3770  137.4790 N.2   501  NDP501      0.0021
     20  C2A       40.0500   -6.6040  138.0690 C.3   501  NDP501      0.5254
     21  N3A       40.4590   -6.8910  139.3340 N.2   501  NDP501     -0.0055
     22  C4A       41.2080   -5.9680  140.0140 C.2   501  NDP501      0.3518
     23  O3        41.5330   -6.3820  148.8410 O.3   501  NDP501     -0.2703
     24  PN        40.3830   -7.1320  149.6180 P.3   501  NDP501      0.2189
     25  O1N       40.7200   -7.0860  151.0780 O.3   501  NDP501     -0.4371
     26  O2N       40.1980   -8.5610  149.0430 O.2   501  NDP501     -0.5170
     27  O5D       39.0480   -6.2510  149.3550 O.3   501  NDP501     -0.3112
     28  C5D       37.9870   -6.7530  148.5480 C.3   501  NDP501      0.1813
     29  C4D       36.6650   -6.2250  149.0420 C.3   501  NDP501      0.1799
     30  O4D       36.7420   -6.0480  150.4350 O.3   501  NDP501     -0.3327
     31  C3D       36.2670   -4.8650  148.4160 C.3   501  NDP501      0.2158
     32  O3D       34.8820   -4.9690  147.9270 O.3   501  NDP501     -0.2175
     33  C2D       36.5070   -3.9130  149.5950 C.3   501  NDP501      0.2309
     34  O2D       35.9640   -2.5970  149.3920 O.3   501  NDP501     -0.2158
     35  C1D       36.1550   -4.8070  150.8240 C.3   501  NDP501      0.2263
     36  N1N       36.6970   -4.3000  152.1070 N.pl3 501  NDP501     -0.2787
     37  C2N       37.9600   -4.6280  152.5050 C.3   501  NDP501      0.1244
     38  C3N       38.4600   -4.2290  153.7580 C.2   501  NDP501      0.0544
     39  C7N       39.7990   -4.6110  154.2280 C.2   501  NDP501      0.2818
     40  O7N       40.2030   -4.2630  155.3250 O.2   501  NDP501     -0.2670
     41  N7N       40.5790   -5.3850  153.4130 N.am  501  NDP501     -0.0839
     42  C4N       37.6290   -3.4650  154.6020 C.2   501  NDP501      0.0033
     43  C5N       36.3470   -3.0940  154.1860 C.2   501  NDP501      0.0157
     44  C6N       35.9220   -3.5410  152.9330 C.2   501  NDP501      0.0633
     45  P2B       44.7650   -7.7850  140.5320 P.3   501  NDP501      0.5328
     46  O1X       44.0390   -7.6810  139.1380 O.2   501  NDP501     -0.2224
     47  O2X       46.1440   -8.5360  140.5140 O.3   501  NDP501     -0.1145
     48  O3X       44.9690   -6.3330  141.0640 O.3   501  NDP501     -0.1145
@<TRIPOS>BOND
     1    19    20    1
     2    19    17    2
     3    18    17    1
     4    20    21    1
     5    17    16    1
     6    46    45    2
     7    21    22    2
     8    16    22    1
     9    16    15    2
    10    22    13    1
    11    15    14    1
    12    47    45    1
    13    45    48    1
    14    45    11    1
    15    13    14    1
    16    13    12    1
    17    11    10    1
    18    12    10    1
    19    12     7    1
    20    10     8    1
    21     7     6    1
    22     9     8    1
    23     8     6    1
    24     6     5    1
    25     5     4    1
    26     4     1    1
    27     3     1    2
    28     1     2    1
    29     1    23    1
    30    32    31    1
    31    31    29    1
    32    31    33    1
    33    28    29    1
    34    28    27    1
    35    23    24    1
    36    29    30    1
    37    26    24    2
    38    27    24    1
    39    34    33    1
    40    33    35    1
    41    24    25    1
    42    30    35    1
    43    35    36    1
    44    36    37    1
    45    36    44    1
    46    37    38    1
    47    44    43    2
    48    41    39   am
    49    38    39    1
    50    38    42    2
    51    43    42    1
    52    39    40    2
