@<TRIPOS>MOLECULE
3ey9_TDP_A_1.pdb
 26 27 0 0 0
SMALL
GASTEIGER

@<TRIPOS>ATOM
      1  N1'       43.5410   15.7240    8.7510 N.2   611  TDP611     -0.1861
      2  C2'       43.6720   16.7300    9.6470 C.1   611  TDP611      0.0663
      3  C2A       44.7260   17.7700    9.3990 C.3   611  TDP611      0.1291
      4  N3'       42.8660   16.8150   10.7350 N.2   611  TDP611     -0.3368
      5  C4'       41.9110   15.8700   10.9290 C.2   611  TDP611      0.2292
      6  N4'       41.0910   15.9410   12.0100 N.pl3 611  TDP611     -0.0925
      7  C5'       41.7850   14.8240   10.0220 C.2   611  TDP611      0.0654
      8  C6'       42.6280   14.7670    8.9230 C.2   611  TDP611      0.1115
      9  C35       40.7590   13.7290   10.2230 C.3   611  TDP611      0.1237
     10  N3        41.2650   12.8650   11.3000 N.pl3 611  TDP611     -0.2970
     11  C2        40.9170   13.0130   12.5980 C.3   611  TDP611      0.1543
     12  S1        41.6410   11.8980   13.7330 S.3   611  TDP611     -0.0951
     13  C5        42.4650   11.1930   12.3760 C.2   611  TDP611      0.0164
     14  C4        42.1340   11.8640   11.0960 C.2   611  TDP611      0.0279
     15  C4A       42.6970   11.4670    9.7630 C.3   611  TDP611      0.0473
     16  C5A       43.3790   10.0330   12.6940 C.3   611  TDP611      0.0661
     17  C5B       44.4020   10.4570   13.7490 C.3   611  TDP611      0.1544
     18  O5G       45.4700    9.4990   13.7820 O.3   611  TDP611     -0.3134
     19  P1        46.5710    9.3920   14.9630 P.3   611  TDP611      0.2230
     20  O11       45.7300    9.1890   16.3370 O.3   611  TDP611     -0.2261
     21  O12       47.3490    8.1410   14.6180 O.2   611  TDP611     -0.5169
     22  O13       47.2770   10.7280   15.0860 O.3   611  TDP611     -0.4370
     23  P2        44.8540    7.8850   16.7440 P.3   611  TDP611      0.5373
     24  O21       43.4070    8.2620   16.5720 O.3   611  TDP611     -0.1143
     25  O22       45.2270    7.7840   18.1990 O.3   611  TDP611     -0.1143
     26  O23       45.2750    6.7240   15.8350 O.2   611  TDP611     -0.2221
@<TRIPOS>BOND
     1     1     8    1
     2     1     2    2
     3     8     7    2
     4     3     2    1
     5     2     4    2
     6    15    14    1
     7     7     9    1
     8     7     5    1
     9     9    10    1
    10     4     5    2
    11     5     6    1
    12    14    10    1
    13    14    13    2
    14    10    11    1
    15    13    16    1
    16    13    12    1
    17    11    12    1
    18    16    17    1
    19    17    18    1
    20    18    19    1
    21    21    19    2
    22    19    22    1
    23    19    20    1
    24    26    23    2
    25    20    23    1
    26    24    23    1
    27    23    25    1
