@<TRIPOS>MOLECULE
3eya_TDP_A_1.pdb
 26 27 0 0 0
SMALL
GASTEIGER

@<TRIPOS>ATOM
      1  N1'       47.1120  -36.3360  -12.1050 N.2   611  TDP611     -0.1861
      2  C2'       45.7530  -36.5080  -12.1690 C.1   611  TDP611      0.0663
      3  C2A       44.8500  -35.4730  -11.5150 C.3   611  TDP611      0.1291
      4  N3'       45.2040  -37.5740  -12.8470 N.2   611  TDP611     -0.3368
      5  C4'       46.0450  -38.4800  -13.4430 C.2   611  TDP611      0.2292
      6  N4'       45.5050  -39.5160  -14.1510 N.pl3 611  TDP611     -0.0925
      7  C5'       47.4460  -38.3140  -13.3440 C.2   611  TDP611      0.0654
      8  C6'       47.9380  -37.2240  -12.6720 C.2   611  TDP611      0.1115
      9  C35       48.4400  -39.2770  -13.9630 C.3   611  TDP611      0.1237
     10  N3        48.4370  -40.4920  -13.1340 N.pl3 611  TDP611     -0.2970
     11  C2        47.6840  -41.5560  -13.5040 C.3   611  TDP611      0.1543
     12  S1        47.8120  -42.8860  -12.3620 S.3   611  TDP611     -0.0951
     13  C5        48.8450  -42.0140  -11.3540 C.2   611  TDP611      0.0164
     14  C4        49.1520  -40.7010  -11.9450 C.2   611  TDP611      0.0279
     15  C4A       50.0580  -39.8150  -11.1780 C.3   611  TDP611      0.0473
     16  C5A       49.2520  -42.8190  -10.1720 C.3   611  TDP611      0.0661
     17  C5B       48.1790  -42.7640   -9.1340 C.3   611  TDP611      0.1544
     18  O5G       48.7320  -42.9460   -7.8060 O.3   611  TDP611     -0.3134
     19  P1        47.8800  -43.7320   -6.6830 P.3   611  TDP611      0.2230
     20  O11       47.4720  -45.0360   -7.4790 O.3   611  TDP611     -0.2261
     21  O12       48.7520  -43.8090   -5.4610 O.3   611  TDP611     -0.4370
     22  O13       46.6220  -42.9340   -6.4520 O.2   611  TDP611     -0.5169
     23  P2        48.4300  -46.3270   -7.6520 P.3   611  TDP611      0.5373
     24  O21       48.5230  -46.6230   -9.1390 O.2   611  TDP611     -0.2221
     25  O22       47.7270  -47.4580   -6.9560 O.3   611  TDP611     -0.1143
     26  O23       49.6540  -45.8780   -6.9000 O.3   611  TDP611     -0.1143
@<TRIPOS>BOND
     1     6     5    1
     2     9     7    1
     3     9    10    1
     4    11    10    1
     5    11    12    1
     6     5     7    1
     7     5     4    2
     8     7     8    2
     9    10    14    1
    10     4     2    2
    11     8     1    1
    12    12    13    1
    13     2     1    2
    14     2     3    1
    15    14    13    2
    16    14    15    1
    17    13    16    1
    18    16    17    1
    19    24    23    2
    20    17    18    1
    21    18    19    1
    22    23    20    1
    23    23    25    1
    24    23    26    1
    25    20    19    1
    26    19    22    2
    27    19    21    1
