@<TRIPOS>MOLECULE
3eyd_BE8_A_1.pdb
 43 45 0 0 0
SMALL
GASTEIGER

@<TRIPOS>ATOM
      1  C1       192.3460  -10.3250   48.9470 C.2   401  BE8401      0.0000
      2  C6       189.5460  -10.9270   50.9630 C.3   401  BE8401      0.0000
      3  C7       188.6720  -12.0960   51.4340 C.3   401  BE8401      0.0000
      4  C8       188.6370   -9.6750   50.9820 C.3   401  BE8401      0.0000
      5  C9       190.7020  -10.7260   51.9890 C.3   401  BE8401      0.0000
      6  C11      190.3280  -13.4880   47.1650 C.3   401  BE8401      0.0000
      7  O2       192.9460  -11.3560   49.2780 O.2   401  BE8401      0.0000
      8  C4       190.1620  -11.2790   49.5250 C.3   401  BE8401      0.0000
      9  C15      188.4130  -11.5150   44.8980 C.3   401  BE8401      0.0000
     10  C5       189.0850  -11.7050   48.5170 C.3   401  BE8401      0.0000
     11  N3       191.0190  -10.2200   48.9740 N.am  401  BE8401      0.0000
     12  N10      189.6520  -12.1900   47.2450 N.3   401  BE8401      0.0000
     13  S12      189.7590  -11.1500   45.9620 S.O2  401  BE8401      0.0000
     14  O13      189.5940   -9.7950   46.4720 O.2   401  BE8401      0.0000
     15  O14      191.0370  -11.4130   45.3510 O.2   401  BE8401      0.0000
     16  N16      192.9760   -9.2770   48.4360 N.am  401  BE8401      0.0000
     17  C17      194.4300   -9.2280   48.3830 C.3   401  BE8401      0.0000
     18  C18      194.9460   -8.7800   47.0240 C.3   401  BE8401      0.0000
     19  C19      196.4700   -8.6010   47.1110 C.3   401  BE8401      0.0000
     20  C20      194.5860   -9.9040   46.0410 C.3   401  BE8401      0.0000
     21  C21      194.2990   -7.4580   46.5600 C.3   401  BE8401      0.0000
     22  C22      194.9030   -8.3530   49.5460 C.2   401  BE8401      0.0000
     23  O23      194.4650   -7.2090   49.6840 O.2   401  BE8401      0.0000
     24  N24      195.7320   -8.9080   50.4420 N.am  401  BE8401      0.0000
     25  C25      196.1550  -10.3140   50.4990 C.3   401  BE8401      0.0000
     26  C26      196.2370   -8.1490   51.5880 C.3   401  BE8401      0.0000
     27  C27      196.6680   -9.1340   52.6290 C.3   401  BE8401      0.0000
     28  C28      196.9310  -10.3390   51.7920 C.3   401  BE8401      0.0000
     29  C29      196.0340  -10.4630   53.0310 C.3   401  BE8401      0.0000
     30  C30      196.5970  -11.1770   54.2340 C.3   401  BE8401      0.0000
     31  C31      194.5340  -10.6110   52.8730 C.3   401  BE8401      0.0000
     32  C32      197.1920   -7.0320   51.1850 C.2   401  BE8401      0.0000
     33  O33      198.0330   -7.2210   50.3050 O.2   401  BE8401      0.0000
     34  N34      197.0650   -5.8800   51.8410 N.am  401  BE8401      0.0000
     35  C35      197.9050   -4.7220   51.5450 C.3   401  BE8401      0.0000
     36  B36      198.8620   -4.0780   52.6850 B     401  BE8401      0.0000
     37  C37      197.1470   -3.7020   50.6780 C.3   401  BE8401      0.0000
     38  C38      196.4430   -4.2600   49.4010 C.3   401  BE8401      0.0000
     39  C39      197.2130   -4.2310   48.0560 C.3   401  BE8401      0.0000
     40  C40      195.3010   -3.4630   48.7610 C.3   401  BE8401      0.0000
     41  C41      196.0200   -3.5080   47.3940 C.3   401  BE8401      0.0000
     42  O42      199.5140   -2.9590   52.1940 O.3   401  BE8401      0.0000
     43  O43      199.7900   -5.0740   53.0380 O.3   401  BE8401      0.0000
@<TRIPOS>BOND
     1     9    13    1
     2    15    13    2
     3    13    14    2
     4    13    12    1
     5    20    18    1
     6    21    18    1
     7    18    19    1
     8    18    17    1
     9     6    12    1
    10    12    10    1
    11    41    39    1
    12    41    40    1
    13    39    38    1
    14    17    16    1
    15    17    22    1
    16    16     1   am
    17    10     8    1
    18    40    38    1
    19     1    11   am
    20     1     7    2
    21    11     8    1
    22    38    37    1
    23     8     2    1
    24    22    23    2
    25    22    24   am
    26    33    32    2
    27    24    25    1
    28    24    26    1
    29    25    28    1
    30    37    35    1
    31     2     4    1
    32     2     3    1
    33     2     5    1
    34    32    26    1
    35    32    34   am
    36    35    34    1
    37    35    36    1
    38    26    27    1
    39    28    27    1
    40    28    29    1
    41    42    36    1
    42    27    29    1
    43    36    43    1
    44    31    29    1
    45    29    30    1
