@<TRIPOS>MOLECULE
3eyg_MI1_A_1.pdb
 23 25 0 0 0
SMALL
GASTEIGER

@<TRIPOS>ATOM
      1  C1        11.4000   14.0760  -15.3490 C.3     1  MI11        0.1795
      2  C2        11.1110   14.1980  -16.8320 C.3     1  MI11        0.1398
      3  C4        10.0430   11.9040  -16.9620 C.3     1  MI11        0.0937
      4  C5        10.5440   11.6320  -15.5380 C.3     1  MI11        0.0255
      5  C6        11.7130   12.5520  -15.1220 C.3     1  MI11        0.0462
      6  N3         9.9090   13.3800  -17.0700 N.am    1  MI11       -0.2746
      7  O21        8.6640   15.1600  -17.5640 O.2     1  MI11       -0.2737
      8  C20        8.7790   13.9460  -17.4370 C.2     1  MI11        0.2412
      9  C22        7.5860   13.0420  -17.6590 C.3     1  MI11        0.1901
     10  C23        6.4020   13.8860  -17.8860 C.1     1  MI11        0.0830
     11  N24        5.4400   14.5060  -18.0770 N.1     1  MI11       -0.1954
     12  C7        13.0070   11.9550  -15.7290 C.3     1  MI11        0.0042
     13  N8        12.6080   14.8790  -14.9290 N.pl3   1  MI11       -0.1918
     14  C9        13.6000   15.3730  -15.8880 C.3     1  MI11        0.2532
     15  C10       12.8720   15.1980  -13.6120 C.2     1  MI11        0.3148
     16  C15       12.0370   14.7960  -12.5530 C.3     1  MI11        0.2132
     17  C16       10.7790   14.0680  -12.4890 C.2     1  MI11        0.0219
     18  C11       10.5020   14.0170  -11.1370 C.2     1  MI11        0.1063
     19  N12       11.4780   14.6740  -10.4210 N.2     1  MI11       -0.1961
     20  C14       12.4150   15.1380  -11.2680 C.1     1  MI11        0.0266
     21  N17       13.5300   15.8160  -10.9460 N.2     1  MI11       -0.1687
     22  C18       14.3090   16.1740  -12.0020 C.3     1  MI11        0.3998
     23  N19       14.0160   15.9020  -13.3080 N.2     1  MI11       -0.0389
@<TRIPOS>BOND
     1    11    10    3
     2    10     9    1
     3     9     8    1
     4     7     8    2
     5     8     6   am
     6     6     3    1
     7     6     2    1
     8     3     4    1
     9     2     1    1
    10    14    13    1
    11    12     5    1
    12     4     5    1
    13     1     5    1
    14     1    13    1
    15    13    15    1
    16    15    23    2
    17    15    16    1
    18    23    22    1
    19    16    17    1
    20    16    20    1
    21    17    18    2
    22    22    21    1
    23    20    21    2
    24    20    19    2
    25    18    19    1
