@<TRIPOS>MOLECULE
3eyh_IZA_A_1.pdb
 23 26 0 0 0
SMALL
GASTEIGER

@<TRIPOS>ATOM
      1  O0         9.0710  -15.8700  -10.7010 O.2   2001  IZA2001    -0.2219
      2  C11       10.0600  -15.2630  -11.1630 C.1   2001  IZA2001     0.1545
      3  N2        11.0020  -14.7310  -10.3350 N.2   2001  IZA2001    -0.1747
      4  C12       12.0870  -14.0540  -10.7930 C.2   2001  IZA2001     0.1112
      5  C13       12.3000  -13.8740  -12.1640 C.2   2001  IZA2001     0.0249
      6  C9        11.3690  -14.3870  -13.0810 C.ar  2001  IZA2001     0.0456
      7  C1        11.5460  -14.2140  -14.4560 C.ar  2001  IZA2001     0.1744
      8  C10       10.2320  -15.0720  -12.6260 C.ar  2001  IZA2001     0.0859
      9  C8         9.2630  -15.6220  -13.6180 C.ar  2001  IZA2001     0.0158
     10  C7         8.1200  -16.3010  -13.2550 C.ar  2001  IZA2001     0.0304
     11  C6         7.2790  -16.7340  -14.2550 C.ar  2001  IZA2001     0.1402
     12  F1         6.0970  -17.4650  -13.8310 F     2001  IZA2001    -0.2042
     13  C5         7.5740  -16.5210  -15.6080 C.ar  2001  IZA2001     0.0297
     14  C4         8.6520  -15.8620  -15.9380 C.ar  2001  IZA2001     0.0050
     15  C3         9.5020  -15.4120  -15.0660 C.ar  2001  IZA2001     0.0339
     16  C0        10.6560  -14.6980  -15.4090 C.ar  2001  IZA2001     0.1737
     17  N1        11.1070  -14.3510  -16.6500 N.2   2001  IZA2001    -0.3411
     18  C2        12.2640  -13.7000  -16.3920 C.1   2001  IZA2001     0.1113
     19  N0        12.5660  -13.5720  -15.0800 N.2   2001  IZA2001    -0.3411
     20  C14       13.1360  -13.1100  -17.4830 C.3   2001  IZA2001     0.0954
     21  C17       12.8300  -13.7360  -18.8490 C.3   2001  IZA2001     0.0170
     22  C16       14.6290  -13.2270  -17.2200 C.3   2001  IZA2001     0.0170
     23  C15       12.7910  -11.6220  -17.5200 C.3   2001  IZA2001     0.0170
@<TRIPOS>BOND
     1    21    20    1
     2    23    20    1
     3    20    22    1
     4    20    18    1
     5    17    18    2
     6    17    16    2
     7    18    19    2
     8    14    13   ar
     9    14    15   ar
    10    13    11   ar
    11    16    15   ar
    12    16     7   ar
    13    19     7    2
    14    15     9   ar
    15     7     6   ar
    16    11    12    1
    17    11    10   ar
    18     9    10   ar
    19     9     8   ar
    20     6     8   ar
    21     6     5    1
    22     8     2    1
    23     5     4    2
    24     2     1    2
    25     2     3    2
    26     4     3    1
