@<TRIPOS>MOLECULE
3eyk_EYK_B_1.pdb
 12 12 0 0 0
SMALL
GASTEIGER

@<TRIPOS>ATOM
      1  CAA       20.2460    6.9600   19.1460 C.3   173  EYK173      0.0045
      2  CAL       20.6500    8.3860   18.8680 C.3   173  EYK173      0.0221
      3  CAB       19.5690    9.2850   19.4300 C.3   173  EYK173      0.0045
      4  CAC       20.7920    8.5750   17.3710 C.3   173  EYK173      0.0045
      5  CAK       22.0170    8.6980   19.5270 C.ar  173  EYK173      0.0193
      6  CAH       22.8400    7.6760   20.0290 C.ar  173  EYK173      0.0409
      7  CAI       24.0650    8.0110   20.6170 C.ar  173  EYK173      0.1956
      8  OAD       24.8860    7.0620   21.1150 O.3   173  EYK173     -0.2866
      9  CAF       24.4940    9.3280   20.7080 C.ar  173  EYK173      0.0453
     10  CAG       23.6880   10.3400   20.2120 C.ar  173  EYK173      0.0450
     11  CAJ       22.4620   10.0280   19.6170 C.ar  173  EYK173      0.1919
     12  OAE       21.7000   11.0540   19.1240 O.3   173  EYK173     -0.2869
@<TRIPOS>BOND
     1     4     2    1
     2     2     1    1
     3     2     3    1
     4     2     5    1
     5    12    11    1
     6     5    11   ar
     7     5     6   ar
     8    11    10   ar
     9     6     7   ar
    10    10     9   ar
    11     7     9   ar
    12     7     8    1
