@<TRIPOS>MOLECULE
3eyl_SMK_A_1.pdb
 37 40 0 0 0
SMALL
GASTEIGER

@<TRIPOS>ATOM
      1  CAA       29.7810   -6.7240    7.5700 C.3   600  SMK600      0.0021
      2  CB        29.3600   -5.4400    6.8680 C.3   600  SMK600      0.0284
      3  CA        29.4730   -4.2460    7.8160 C.3   600  SMK600      0.1693
      4  N         28.8600   -3.0550    7.2100 N.3   600  SMK600     -0.1231
      5  C         30.9470   -3.9980    8.0950 C.2   600  SMK600      0.2592
      6  O         31.7320   -3.7090    7.1960 O.2   600  SMK600     -0.2718
      7  NAY       31.3150   -4.1290    9.3530 N.am  600  SMK600     -0.1966
      8  CBI       32.7270   -3.9300    9.6930 C.3   600  SMK600      0.1712
      9  CBB       33.2140   -5.0750   10.6070 C.2   600  SMK600      0.2458
     10  OAF       32.4000   -5.9010   11.0150 O.2   600  SMK600     -0.2730
     11  NBK       34.4890   -5.2500   10.9430 N.am  600  SMK600     -0.2732
     12  CBF       33.0110   -2.4850   10.1940 C.3   600  SMK600      0.0304
     13  CAS       32.3330   -2.1190   11.5250 C.3   600  SMK600      0.0227
     14  CAQ       31.9520   -0.6300   11.5590 C.3   600  SMK600      0.1094
     15  NAB       30.6900   -0.4170   10.8370 N.3   600  SMK600     -0.1314
     16  CAT       34.5290   -2.1540   10.2070 C.3   600  SMK600      0.0040
     17  CAU       35.3860   -3.0150   11.1510 C.3   600  SMK600      0.0199
     18  CBG       35.6330   -4.4080   10.5670 C.3   600  SMK600      0.0759
     19  CAV       36.8530   -5.0280   11.2430 C.3   600  SMK600      0.0220
     20  CAW       36.4310   -6.4500   11.5890 C.3   600  SMK600      0.0310
     21  CBJ       34.9180   -6.3650   11.7920 C.3   600  SMK600      0.1535
     22  CBA       34.5450   -6.0950   13.2540 C.2   600  SMK600      0.2600
     23  OAE       34.4250   -4.9520   13.6900 O.2   600  SMK600     -0.2715
     24  NAX       34.3570   -7.1860   13.9830 N.am  600  SMK600     -0.1967
     25  CBH       33.9730   -7.1100   15.3960 C.3   600  SMK600      0.1397
     26  CBC       35.1340   -6.5940   16.2620 C.ar  600  SMK600      0.0016
     27  CAM       34.8440   -5.8200   17.3890 C.ar  600  SMK600     -0.0023
     28  CAI       35.8710   -5.3260   18.1940 C.ar  600  SMK600     -0.0003
     29  CAG       37.1950   -5.6060   17.8620 C.ar  600  SMK600     -0.0000
     30  CAJ       37.4890   -6.3750   16.7340 C.ar  600  SMK600     -0.0003
     31  CAN       36.4620   -6.8690   15.9280 C.ar  600  SMK600     -0.0023
     32  CBD       33.4480   -8.4800   15.8190 C.ar  600  SMK600      0.0016
     33  CAO       32.3600   -9.0040   15.1200 C.ar  600  SMK600     -0.0023
     34  CAK       31.8310  -10.2440   15.4550 C.ar  600  SMK600     -0.0003
     35  CAH       32.4080  -10.9580   16.5040 C.ar  600  SMK600     -0.0000
     36  CAL       33.4950  -10.4390   17.2080 C.ar  600  SMK600     -0.0003
     37  CAP       34.0210   -9.1980   16.8650 C.ar  600  SMK600     -0.0023
@<TRIPOS>BOND
     1     2     1    1
     2     2     3    1
     3     6     5    2
     4     4     3    1
     5     3     5    1
     6     5     7   am
     7     7     8    1
     8     8    12    1
     9     8     9    1
    10    12    16    1
    11    12    13    1
    12    16    17    1
    13    18    11    1
    14    18    17    1
    15    18    19    1
    16     9    11   am
    17     9    10    2
    18    15    14    1
    19    11    21    1
    20    19    20    1
    21    13    14    1
    22    20    21    1
    23    21    22    1
    24    22    23    2
    25    22    24   am
    26    24    25    1
    27    33    34   ar
    28    33    32   ar
    29    25    32    1
    30    25    26    1
    31    34    35   ar
    32    32    37   ar
    33    31    26   ar
    34    31    30   ar
    35    26    27   ar
    36    35    36   ar
    37    30    29   ar
    38    37    36   ar
    39    27    28   ar
    40    29    28   ar
