@<TRIPOS>MOLECULE
3eym_EYK_D_1.pdb
 12 12 0 0 0
SMALL
GASTEIGER

@<TRIPOS>ATOM
      1  CAA       60.6080   48.1110   -1.2650 C.3   173  EYK173      0.0045
      2  CAL       59.1090   48.2280   -1.1680 C.3   173  EYK173      0.0221
      3  CAB       58.7080   47.6640    0.1790 C.3   173  EYK173      0.0045
      4  CAC       58.6910   47.3100   -2.3040 C.3   173  EYK173      0.0045
      5  CAK       58.4930   49.6280   -1.2060 C.ar  173  EYK173      0.0193
      6  CAH       59.2090   50.8290   -1.0400 C.ar  173  EYK173      0.0409
      7  CAI       58.5310   52.0810   -1.0720 C.ar  173  EYK173      0.1956
      8  OAD       59.2390   53.2440   -0.9330 O.3   173  EYK173     -0.2866
      9  CAF       57.1290   52.1840   -1.2510 C.ar  173  EYK173      0.0453
     10  CAG       56.4260   51.0020   -1.4060 C.ar  173  EYK173      0.0450
     11  CAJ       57.1140   49.7620   -1.3750 C.ar  173  EYK173      0.1919
     12  OAE       56.3890   48.6270   -1.5400 O.3   173  EYK173     -0.2869
@<TRIPOS>BOND
     1     4     2    1
     2    12    11    1
     3    10    11   ar
     4    10     9   ar
     5    11     5   ar
     6     1     2    1
     7     9     7   ar
     8     5     2    1
     9     5     6   ar
    10     2     3    1
    11     7     6   ar
    12     7     8    1
