@<TRIPOS>MOLECULE
3eys_III_Q_1.pdb
 48 50 0 0 0
SMALL
GASTEIGER

@<TRIPOS>ATOM
      1  N         21.0060   -7.3640  -20.9180 N.2     3  GLU3       -0.1988
      2  CA        21.7430   -8.5790  -20.5410 C.3     3  GLU3        0.1929
      3  CB        23.2410   -8.2520  -20.5140 C.3     3  GLU3        0.0523
      4  CG        23.3860   -7.2510  -21.6500 C.3     3  GLU3        0.1242
      5  CD        21.9530   -6.8340  -21.9040 C.1     3  GLU3        0.1265
      6  OE        21.6370   -6.1200  -22.8550 O.2     3  GLU3       -0.2270
      7  C         21.2220   -9.3440  -19.3110 C.2     3  GLU3        0.2650
      8  O         22.0080   -9.9700  -18.5840 O.2     3  GLU3       -0.2712
      9  N         19.9070   -9.2850  -19.0890 N.am    4  PHE4       -0.1958
     10  CA        19.2200  -10.3360  -18.3390 C.3     4  PHE4        0.1771
     11  C         19.0790  -11.5020  -19.3160 C.2     4  PHE4        0.2619
     12  O         19.0260  -11.2880  -20.5390 O.2     4  PHE4       -0.2715
     13  CB        17.8440   -9.8850  -17.8550 C.3     4  PHE4        0.0574
     14  CG        17.1720  -10.8610  -16.9100 C.ar    4  PHE4       -0.0200
     15  CD1       17.6430  -11.0340  -15.6050 C.ar    4  PHE4       -0.0042
     16  CD2       16.0580  -11.5960  -17.3220 C.ar    4  PHE4       -0.0042
     17  CE1       17.0190  -11.9190  -14.7270 C.ar    4  PHE4       -0.0003
     18  CE2       15.4230  -12.4850  -16.4530 C.ar    4  PHE4       -0.0003
     19  CZ        15.9050  -12.6480  -15.1520 C.ar    4  PHE4       -0.0000
     20  N         19.0200  -12.7210  -18.7860 N.am    5  ARG5       -0.1963
     21  CA        19.0970  -13.9210  -19.6180 C.3     5  ARG5        0.1729
     22  C         17.8410  -14.1620  -20.4540 C.2     5  ARG5        0.2616
     23  O         16.7280  -14.2610  -19.9190 O.2     5  ARG5       -0.2715
     24  CB        19.4040  -15.1390  -18.7600 C.3     5  ARG5        0.0348
     25  CG        19.9290  -16.3170  -19.5380 C.3     5  ARG5        0.0492
     26  CD        20.6660  -17.2330  -18.6060 C.3     5  ARG5        0.2205
     27  NE        21.0050  -18.4930  -19.2460 N.pl3   5  ARG5       -0.0865
     28  CZ        21.3220  -19.6020  -18.5880 C.cat   5  ARG5        0.5346
     29  NH1       21.3370  -19.6100  -17.2580 N.pl3   5  ARG5        0.1354
     30  NH2       21.6170  -20.7060  -19.2640 N.pl3   5  ARG5        0.1354
     31  N         18.0460  -14.2490  -21.7680 N.am    6  HIS6       -0.1959
     32  CA        16.9950  -14.5260  -22.7440 C.3     6  HIS6        0.1784
     33  C         17.6560  -15.1000  -23.9900 C.2     6  HIS6        0.2620
     34  O         18.5370  -14.4600  -24.5680 O.2     6  HIS6       -0.2715
     35  CB        16.2680  -13.2390  -23.1520 C.3     6  HIS6        0.0745
     36  CG        15.6070  -12.5150  -22.0210 C.2     6  HIS6        0.0653
     37  ND1       14.4470  -12.9630  -21.4240 N.2     6  HIS6       -0.2310
     38  CD2       15.9320  -11.3620  -21.3910 C.3     6  HIS6        0.1683
     39  CE1       14.0910  -12.1240  -20.4660 C.2     6  HIS6        0.1939
     40  NE2       14.9750  -11.1430  -20.4280 N.2     6  HIS6       -0.2440
     41  N         17.2450  -16.3000  -24.3990 N.am    7  ASP7       -0.1971
     42  CA        17.7060  -16.8700  -25.6650 C.3     7  ASP7        0.1709
     43  C         16.9940  -16.1980  -26.8450 C.2     7  ASP7        0.2293
     44  O         15.7780  -16.3710  -27.0480 O.2     7  ASP7       -0.2864
     45  CB        17.4890  -18.3930  -25.7040 C.3     7  ASP7        0.1436
     46  CG        18.2630  -19.1410  -24.6140 C.2     7  ASP7        0.3671
     47  OD1       19.1110  -18.5290  -23.9200 O.co2   7  ASP7       -0.2456
     48  OD2       18.0120  -20.3570  -24.4500 O.co2   7  ASP7       -0.2456
@<TRIPOS>BOND
     1    44    43    2
     2    43    42    1
     3    45    42    1
     4    45    46    1
     5    42    41    1
     6    46    48   ar
     7    46    47   ar
     8    34    33    2
     9    41    33   am
    10    33    32    1
    11    35    32    1
    12    35    36    1
    13     6     5    2
    14    32    31    1
    15    36    37    2
    16    36    38    1
    17     5     4    1
    18     5     1    2
    19    31    22   am
    20     4     3    1
    21    37    39    1
    22    38    40    1
    23     1     2    1
    24     2     3    1
    25     2     7    1
    26    12    11    2
    27    39    40    2
    28    22    23    2
    29    22    21    1
    30    21    20    1
    31    21    24    1
    32    25    24    1
    33    25    26    1
    34    11    20   am
    35    11    10    1
    36     7     9   am
    37     7     8    2
    38    30    28    1
    39    27    26    1
    40    27    28    2
    41     9    10    1
    42    28    29    1
    43    10    13    1
    44    13    14    1
    45    16    14   ar
    46    16    18   ar
    47    14    15   ar
    48    18    19   ar
    49    15    17   ar
    50    19    17   ar
