@<TRIPOS>MOLECULE
3eyv_GAL_H_1.pdb
 11 11 0 0 0
SMALL
GASTEIGER

@<TRIPOS>ATOM
      1  C1         0.5130   37.8490   -4.2360 C.3   224  GAL224      0.1777
      2  C2         1.4880   38.9490   -4.6290 C.3   224  GAL224      0.2141
      3  C3         2.7450   38.3020   -5.2220 C.3   224  GAL224      0.2173
      4  C4         3.3450   37.3210   -4.2190 C.3   224  GAL224      0.2142
      5  C5         2.2810   36.3270   -3.7320 C.3   224  GAL224      0.1810
      6  C6         2.7850   35.4630   -2.6010 C.3   224  GAL224      0.2141
      7  O2         0.8880   39.8200   -5.5960 O.3   224  GAL224     -0.2176
      8  O3         3.7020   39.3050   -5.5320 O.3   224  GAL224     -0.2175
      9  O4         3.8750   38.0430   -3.1150 O.3   224  GAL224     -0.2176
     10  O5         1.1180   37.0320   -3.2350 O.3   224  GAL224     -0.3481
     11  O6         3.7070   36.1800   -1.7960 O.3   224  GAL224     -0.2176
@<TRIPOS>BOND
     1     7     2    1
     2     8     3    1
     3     3     2    1
     4     3     4    1
     5     2     1    1
     6     1    10    1
     7     4     5    1
     8     4     9    1
     9     5    10    1
    10     5     6    1
    11     6    11    1
