@<TRIPOS>MOLECULE
3eyv_FUC_H_1.pdb
 10 10 0 0 0
SMALL
GASTEIGER

@<TRIPOS>ATOM
      1  C1         1.0400   41.1820   -5.3270 C.3   223  FUC223      0.1776
      2  C2         0.7610   41.9750   -6.6000 C.3   223  FUC223      0.2141
      3  C3        -0.7180   41.8430   -6.9580 C.3   223  FUC223      0.2172
      4  C4        -1.5720   42.3260   -5.7860 C.3   223  FUC223      0.2116
      5  C5        -1.2270   41.5020   -4.5490 C.3   223  FUC223      0.1483
      6  C6        -1.9760   41.9680   -3.3150 C.3   223  FUC223      0.0349
      7  O2         1.5630   41.4650   -7.6560 O.3   223  FUC223     -0.2176
      8  O3        -1.0000   42.6130   -8.1110 O.3   223  FUC223     -0.2175
      9  O4        -1.2890   43.6940   -5.5310 O.3   223  FUC223     -0.2177
     10  O5         0.1880   41.6220   -4.2690 O.3   223  FUC223     -0.3508
@<TRIPOS>BOND
     1     8     3    1
     2     7     2    1
     3     3     2    1
     4     3     4    1
     5     2     1    1
     6     4     9    1
     7     4     5    1
     8     1    10    1
     9     5    10    1
    10     5     6    1
