@<TRIPOS>MOLECULE
3eyw_NAD_A_1.pdb
 23 25 0 0 0
SMALL
GASTEIGER

@<TRIPOS>ATOM
      1  PA       -20.8270   19.3990   -9.2510 P.3   2401  NAD2401     0.5327
      2  O1A      -20.1120   18.4490  -10.1420 O.2   2401  NAD2401    -0.2224
      3  O2A      -21.8380   18.7050   -8.4430 O.3   2401  NAD2401    -0.1145
      4  O5B      -19.8350   20.1010   -8.2070 O.3   2401  NAD2401    -0.2675
      5  C5B      -18.5810   20.6100   -8.5860 C.3   2401  NAD2401     0.1860
      6  C4B      -17.4920   20.1210   -7.6410 C.3   2401  NAD2401     0.1823
      7  O4B      -16.2630   20.7630   -7.9590 O.3   2401  NAD2401    -0.3135
      8  C3B      -17.8240   20.4500   -6.1830 C.3   2401  NAD2401     0.2184
      9  O3B      -17.7280   19.2760   -5.4050 O.3   2401  NAD2401    -0.2174
     10  C2B      -16.7550   21.4500   -5.7660 C.3   2401  NAD2401     0.2570
     11  O2B      -16.2970   21.2580   -4.4390 O.3   2401  NAD2401    -0.2130
     12  C1B      -15.6360   21.1110   -6.7400 C.3   2401  NAD2401     0.3186
     13  N9A      -14.7420   22.2460   -6.9250 N.pl3 2401  NAD2401    -0.1439
     14  C8A      -15.0890   23.5060   -7.3540 C.3   2401  NAD2401     0.3377
     15  N7A      -13.9490   24.2460   -7.4140 N.2   2401  NAD2401    -0.2095
     16  C5A      -12.9110   23.4540   -7.0490 C.2   2401  NAD2401     0.2526
     17  C6A      -11.5530   23.6980   -6.9410 C.2   2401  NAD2401     0.4393
     18  N6A      -11.0950   24.9450   -7.0700 N.pl3 2401  NAD2401     0.2180
     19  N1A      -10.7110   22.6810   -6.5430 N.2   2401  NAD2401     0.0021
     20  C2A      -11.2080   21.4210   -6.2250 C.3   2401  NAD2401     0.5254
     21  N3A      -12.5770   21.1980   -6.3340 N.2   2401  NAD2401    -0.0055
     22  C4A      -13.4010   22.1980   -6.7380 C.2   2401  NAD2401     0.3518
     23  O3       -21.4220   20.6000  -10.0970 O.3   2401  NAD2401    -0.1145
@<TRIPOS>BOND
     1     2     1    2
     2    23     1    1
     3     1     3    1
     4     1     4    1
     5     5     4    1
     6     5     6    1
     7     7     6    1
     8     7    12    1
     9     6     8    1
    10    15    14    1
    11    15    16    2
    12    14    13    1
    13    18    17    1
    14    16    17    1
    15    16    22    1
    16    17    19    2
    17    13    12    1
    18    13    22    1
    19    12    10    1
    20    22    21    2
    21    19    20    1
    22    21    20    1
    23     8    10    1
    24     8     9    1
    25    10    11    1
