@<TRIPOS>MOLECULE
3eyw_FMN_A_1.pdb
 31 33 0 0 0
SMALL
GASTEIGER

@<TRIPOS>ATOM
      1  N1       -15.2470  -17.1480  -37.6270 N.2   2400  FMN2400    -0.2890
      2  C2       -15.7700  -17.9340  -38.6430 C.1   2400  FMN2400     0.3669
      3  O2       -15.0070  -18.5190  -39.4150 O.2   2400  FMN2400    -0.1744
      4  N3       -17.1420  -18.0700  -38.7710 N.2   2400  FMN2400    -0.2300
      5  C4       -17.9870  -17.4150  -37.9040 C.1   2400  FMN2400     0.2513
      6  O4       -19.1500  -17.2750  -38.2760 O.2   2400  FMN2400    -0.2057
      7  C4A      -17.4650  -16.6160  -36.8740 C.2   2400  FMN2400     0.2700
      8  N5       -18.2990  -15.9780  -35.9740 N.2   2400  FMN2400    -0.3878
      9  C5A      -17.7500  -15.1730  -34.9710 C.2   2400  FMN2400     0.1320
     10  C6       -18.5830  -14.4900  -34.0800 C.2   2400  FMN2400     0.0250
     11  C7       -18.0320  -13.6970  -33.0600 C.2   2400  FMN2400    -0.0238
     12  C7M      -18.9700  -12.7790  -32.3080 C.3   2400  FMN2400     0.0308
     13  C8       -16.6210  -13.5820  -32.9290 C.2   2400  FMN2400    -0.0280
     14  C8M      -15.9630  -12.4790  -32.1320 C.3   2400  FMN2400     0.0304
     15  C9       -15.7990  -14.2500  -33.8330 C.2   2400  FMN2400    -0.0041
     16  C9A      -16.3490  -15.0410  -34.8460 C.3   2400  FMN2400     0.1497
     17  N10      -15.5130  -15.6920  -35.7520 N.pl3 2400  FMN2400    -0.2691
     18  C10      -16.0820  -16.4870  -36.7430 C.2   2400  FMN2400     0.2416
     19  C1'      -14.0050  -15.5950  -35.6420 C.3   2400  FMN2400     0.1294
     20  C2'      -13.4560  -14.3500  -36.3320 C.3   2400  FMN2400     0.2044
     21  O2'      -13.8280  -14.3340  -37.6870 O.3   2400  FMN2400    -0.2185
     22  C3'      -11.9340  -14.3070  -36.2580 C.3   2400  FMN2400     0.2164
     23  O3'      -11.5150  -14.3240  -34.9080 O.3   2400  FMN2400    -0.2175
     24  C4'      -11.3690  -13.0510  -36.8810 C.3   2400  FMN2400     0.2147
     25  O4'      -11.5140  -13.1340  -38.2720 O.3   2400  FMN2400    -0.2176
     26  C5'       -9.8850  -12.8980  -36.5390 C.3   2400  FMN2400     0.1892
     27  O5'       -9.4260  -11.6780  -37.0750 O.3   2400  FMN2400    -0.2674
     28  P         -8.7290  -10.6070  -36.1060 P.3   2400  FMN2400     0.5327
     29  O1P       -8.5100   -9.3300  -36.8650 O.2   2400  FMN2400    -0.2224
     30  O2P       -9.6090  -10.3560  -34.9080 O.3   2400  FMN2400    -0.1145
     31  O3P       -7.3710  -11.1710  -35.6900 O.3   2400  FMN2400    -0.1145
@<TRIPOS>BOND
     1     3     2    2
     2     4     2    2
     3     4     5    2
     4     2     1    2
     5     6     5    2
     6    25    24    1
     7     5     7    1
     8    21    20    1
     9     1    18    2
    10    27    26    1
    11    27    28    1
    12    24    26    1
    13    24    22    1
    14     7    18    1
    15     7     8    2
    16    29    28    2
    17    18    17    1
    18    20    22    1
    19    20    19    1
    20    22    23    1
    21    28    31    1
    22    28    30    1
    23     8     9    2
    24    17    19    1
    25    17    16    1
    26     9    16    1
    27     9    10    1
    28    16    15    1
    29    10    11    2
    30    15    13    2
    31    11    13    1
    32    11    12    1
    33    13    14    1
