@<TRIPOS>MOLECULE
3ez0_UNL_A_1.pdb
 18 14 0 0 0
SMALL
GASTEIGER

@<TRIPOS>ATOM
      1  O1         6.6750   88.8760   63.1140 O.3   500  UNL500     -0.0023
      2  O2         6.6480   87.6740   63.3440 O.3   500  UNL500     -0.0322
      3  O3         6.0750   87.2130   64.6140 O.3   500  UNL500     -0.1833
      4  C9         6.8490   86.4480   65.5450 C.3   500  UNL500      0.2523
      5  C8         6.1260   85.1420   65.9200 C.3   500  UNL500      0.3365
      6  O6         4.7270   85.3850   66.1900 O.3   500  UNL500     -0.1838
      7  O7         6.8020   84.4890   67.1340 O.3   500  UNL500     -0.1550
      8  O8         7.9420   83.6840   66.7740 O.3   500  UNL500     -0.0321
      9  O9         9.4840   84.0410   67.1680 O.3   500  UNL500      0.0000
     10  O10        9.8320   85.3710   66.5290 O.3   500  UNL500      0.0000
     11  O11        9.7540   83.8210   68.6360 O.3   500  UNL500      0.0000
     12  O12       10.3370   82.8660   66.4440 O.3   500  UNL500      0.0000
     13  O13        7.1830   86.6900   62.3110 O.3   500  UNL500      0.0000
     14  O14        6.3290   86.7500   61.0310 O.3   500  UNL500      0.0000
     15  O15        5.4680   85.4970   60.7840 O.3   500  UNL500      0.0000
     16  O16        4.1170   85.7910   60.1080 O.3   500  UNL500      0.0000
     17  O17        4.0370   85.3400   58.6460 O.3   500  UNL500      0.0000
     18  O18        2.6080   85.3880   58.0930 O.3   500  UNL500      0.0000
@<TRIPOS>BOND
     1    18    17    1
     2    17    16    1
     3    16    15    1
     4    15    14    1
     5    14    13    1
     6     1     2    1
     7     2     3    1
     8     3     4    1
     9     4     5    1
    10     5     6    1
    11     5     7    1
    12    10     9    1
    13     8     7    1
    14     9    11    1
