@<TRIPOS>MOLECULE
3ez2_ADP_A_1.pdb
 27 29 0 0 0
SMALL
GASTEIGER

@<TRIPOS>ATOM
      1  PB         9.1740   56.1750   46.2450 P.3   501  ADP501      0.5373
      2  O1B       10.5630   56.1540   46.6440 O.3   501  ADP501     -0.1143
      3  O2B        8.3630   55.6140   45.1860 O.2   501  ADP501     -0.2221
      4  O3B        8.3550   57.0270   47.3450 O.3   501  ADP501     -0.1143
      5  PA         8.8860   58.3310   44.1310 P.3   501  ADP501      0.2231
      6  O1A        9.1510   57.5220   42.8620 O.2   501  ADP501     -0.5169
      7  O2A        7.5110   58.6820   44.4410 O.3   501  ADP501     -0.4370
      8  O3A        9.5490   57.4340   45.3560 O.3   501  ADP501     -0.2261
      9  O5'        9.9120   59.5240   43.9830 O.3   501  ADP501     -0.3111
     10  C5'        9.9900   60.6010   44.9820 C.3   501  ADP501      0.1813
     11  C4'        9.8570   62.0170   44.3170 C.3   501  ADP501      0.1821
     12  O4'       11.0670   62.2580   43.5430 O.3   501  ADP501     -0.3135
     13  C3'        8.7020   62.2770   43.2740 C.3   501  ADP501      0.2184
     14  O3'        8.0370   63.5310   43.5580 O.3   501  ADP501     -0.2174
     15  C2'        9.3890   62.2030   41.9370 C.3   501  ADP501      0.2570
     16  O2'        8.7740   63.0320   40.9490 O.3   501  ADP501     -0.2130
     17  C1'       10.8460   62.5880   42.1430 C.3   501  ADP501      0.3186
     18  N9        11.9400   61.8030   41.4020 N.pl3 501  ADP501     -0.1439
     19  C8        12.1580   60.4370   41.2990 C.3   501  ADP501      0.3377
     20  N7        13.1840   60.0880   40.6010 N.2   501  ADP501     -0.2095
     21  C5        13.7110   61.2990   40.1970 C.2   501  ADP501      0.2526
     22  C6        14.8640   61.6540   39.3910 C.2   501  ADP501      0.4393
     23  N6        15.6630   60.7020   38.8800 N.pl3 501  ADP501      0.2180
     24  N1        15.1470   62.9970   39.1580 N.2   501  ADP501      0.0021
     25  C2        14.3330   63.9870   39.6810 C.3   501  ADP501      0.5254
     26  N3        13.2020   63.7830   40.4610 N.2   501  ADP501     -0.0055
     27  C4        12.9490   62.3880   40.6820 C.2   501  ADP501      0.3518
@<TRIPOS>BOND
     1    23    22    1
     2    24    22    2
     3    24    25    1
     4    22    21    1
     5    25    26    1
     6    21    20    2
     7    21    27    1
     8    26    27    2
     9    20    19    1
    10    27    18    1
    11    16    15    1
    12    19    18    1
    13    18    17    1
    14    15    17    1
    15    15    13    1
    16    17    12    1
    17     6     5    2
    18    13    14    1
    19    13    11    1
    20    12    11    1
    21     9     5    1
    22     9    10    1
    23     5     7    1
    24     5     8    1
    25    11    10    1
    26     3     1    2
    27     8     1    1
    28     1     2    1
    29     1     4    1
