@<TRIPOS>MOLECULE
3ez3_IPE_A_1.pdb
 14 13 0 0 0
SMALL
GASTEIGER

@<TRIPOS>ATOM
      1  C1       -22.0490    6.2050   21.1110 C.3   1101  IPE1101     0.1535
      2  O1       -23.3350    6.2760   21.7330 O.3   1101  IPE1101    -0.3135
      3  C2       -21.1400    7.1770   21.8740 C.3   1101  IPE1101     0.0545
      4  C3       -21.6290    8.6110   21.9910 C.2   1101  IPE1101    -0.0414
      5  C4       -22.6000    9.2280   21.0200 C.3   1101  IPE1101     0.0264
      6  C5       -21.1800    9.3640   22.9950 C.2   1101  IPE1101    -0.0090
      7  PA       -24.1730    5.1250   22.4510 P.3   1101  IPE1101     0.2230
      8  O1A      -23.3580    4.6510   23.6210 O.3   1101  IPE1101    -0.4370
      9  O2A      -25.5520    5.7270   22.6700 O.2   1101  IPE1101    -0.5169
     10  O3A      -24.2280    3.9300   21.3420 O.3   1101  IPE1101    -0.2261
     11  PB       -25.1940    2.6450   21.2350 P.3   1101  IPE1101     0.5373
     12  O1B      -24.2080    1.5280   20.9550 O.3   1101  IPE1101    -0.1143
     13  O2B      -25.8400    2.5290   22.5830 O.3   1101  IPE1101    -0.1143
     14  O3B      -26.1170    2.9420   20.1010 O.2   1101  IPE1101    -0.2221
@<TRIPOS>BOND
     1    14    11    2
     2    12    11    1
     3     5     4    1
     4     1     2    1
     5     1     3    1
     6    11    10    1
     7    11    13    1
     8    10     7    1
     9     2     7    1
    10     3     4    1
    11     4     6    2
    12     7     9    2
    13     7     8    1
