@<TRIPOS>MOLECULE
3ez3_ZOL_A_1.pdb
 16 16 0 0 0
SMALL
GASTEIGER

@<TRIPOS>ATOM
      1  O17      -16.2930    6.0110   18.8730 O.2   397  ZOL397     -0.4572
      2  P14      -17.1810    6.4580   19.9540 P.3   397  ZOL397      0.1531
      3  O16      -16.2260    6.5450   21.2590 O.3   397  ZOL397     -0.3552
      4  O15      -18.4580    5.6220   20.2930 O.3   397  ZOL397     -0.3552
      5  C8       -17.8280    8.2010   19.7690 C.3   397  ZOL397      0.2364
      6  P9       -16.4180    9.3550   19.5900 P.3   397  ZOL397      0.1531
      7  O10      -16.8280   10.7610   19.5150 O.3   397  ZOL397     -0.3552
      8  O11      -15.5890    9.1120   20.9580 O.3   397  ZOL397     -0.3552
      9  O12      -15.5110    8.9280   18.3440 O.2   397  ZOL397     -0.4572
     10  O13      -18.4640    8.5460   20.9690 O.3   397  ZOL397     -0.2088
     11  C7       -18.7970    8.3280   18.6100 C.3   397  ZOL397      0.1520
     12  N15      -19.4460    9.6490   18.4850 N.ar  397  ZOL397     -0.3043
     13  C16      -19.9170   10.3900   19.4820 C.ar  397  ZOL397      0.1787
     14  N17      -20.4400   11.4850   18.9460 N.ar  397  ZOL397     -0.2223
     15  C18      -20.2630   11.4080   17.6190 C.ar  397  ZOL397      0.1193
     16  C19      -19.6610   10.2660   17.3260 C.ar  397  ZOL397      0.0981
@<TRIPOS>BOND
     1    16    15   ar
     2    16    12   ar
     3    15    14   ar
     4     9     6    2
     5    12    11    1
     6    12    13   ar
     7    11     5    1
     8     1     2    2
     9    14    13   ar
    10     7     6    1
    11     6     5    1
    12     6     8    1
    13     5     2    1
    14     5    10    1
    15     2     4    1
    16     2     3    1
