@<TRIPOS>MOLECULE
3ez5_DAD_A_1.pdb
 29 31 0 0 0
SMALL
GASTEIGER

@<TRIPOS>ATOM
      1  PG       131.0470  -25.2700   44.3950 P.3   201  DAD201      0.5373
      2  O1G      130.3430  -24.8300   45.7600 O.3   201  DAD201     -0.1143
      3  O2G      131.0480  -27.0530   44.2500 O.2   201  DAD201     -0.2221
      4  O3G      132.6720  -24.5840   44.3650 O.3   201  DAD201     -0.1143
      5  PB       130.0830  -25.0840   41.7220 P.3   201  DAD201      0.2277
      6  O1B      130.4520  -23.8680   40.7580 O.2   201  DAD201     -0.5168
      7  O2B      130.8380  -26.6430   41.3680 O.3   201  DAD201     -0.4368
      8  O3B      130.2390  -24.5590   43.2180 O.3   201  DAD201     -0.2258
      9  PA       127.6340  -26.4770   42.2340 P.3   201  DAD201      0.2189
     10  O1A      126.5470  -26.0050   43.2860 O.3   201  DAD201     -0.4371
     11  O2A      128.6200  -27.7990   42.8550 O.2   201  DAD201     -0.5170
     12  O3A      128.4700  -25.2300   41.6350 O.3   201  DAD201     -0.2700
     13  O5'      126.9120  -26.9840   40.8750 O.3   201  DAD201     -0.3113
     14  C5'      127.6620  -27.6760   39.8730 C.3   201  DAD201      0.1786
     15  C4'      127.3620  -27.0730   38.4960 C.3   201  DAD201      0.1493
     16  O4'      125.9580  -26.9900   38.2260 O.3   201  DAD201     -0.3183
     17  C3'      127.8540  -25.6300   38.4050 C.3   201  DAD201      0.0392
     18  C2'      126.9380  -25.0390   37.3410 C.3   201  DAD201      0.0823
     19  C1'      125.6330  -25.8180   37.4740 C.3   201  DAD201      0.2847
     20  N9       124.8000  -24.8770   38.2460 N.pl3 201  DAD201     -0.1461
     21  C8       124.6490  -24.8530   39.5920 C.3   201  DAD201      0.3377
     22  N7       123.8560  -23.8180   39.9700 N.2   201  DAD201     -0.2095
     23  C5       123.4940  -23.1620   38.8330 C.2   201  DAD201      0.2526
     24  C6       122.6770  -21.9860   38.4780 C.2   201  DAD201      0.4393
     25  N6       122.0540  -21.2720   39.4380 N.pl3 201  DAD201      0.2180
     26  N1       122.5790  -21.6350   37.1670 N.2   201  DAD201      0.0021
     27  C2       123.2040  -22.3170   36.1810 C.3   201  DAD201      0.5254
     28  N3       123.9520  -23.4000   36.4340 N.2   201  DAD201     -0.0055
     29  C4       124.1400  -23.8520   37.7040 C.2   201  DAD201      0.3518
@<TRIPOS>BOND
     1    27    28    1
     2    27    26    1
     3    28    29    2
     4    26    24    2
     5    18    19    1
     6    18    17    1
     7    19    16    1
     8    19    20    1
     9    29    20    1
    10    29    23    1
    11    16    15    1
    12    20    21    1
    13    17    15    1
    14    24    23    1
    15    24    25    1
    16    15    14    1
    17    23    22    2
    18    21    22    1
    19    14    13    1
    20     6     5    2
    21    13     9    1
    22     7     5    1
    23    12     5    1
    24    12     9    1
    25     5     8    1
    26     9    11    2
    27     9    10    1
    28     8     1    1
    29     3     1    2
    30     4     1    1
    31     1     2    1
