@<TRIPOS>MOLECULE
3ez6_ADP_A_1.pdb
 27 29 0 0 0
SMALL
GASTEIGER

@<TRIPOS>ATOM
      1  PB       -36.6930   33.6320    4.9930 P.3   501  ADP501      0.5373
      2  O1B      -35.8330   33.1980    6.0930 O.3   501  ADP501     -0.1143
      3  O2B      -36.6250   34.6210    3.9310 O.2   501  ADP501     -0.2221
      4  O3B      -38.0820   32.7230    4.9660 O.3   501  ADP501     -0.1143
      5  PA       -38.3660   35.9760    6.0770 P.3   501  ADP501      0.2231
      6  O1A      -37.7540   37.2120    5.4900 O.2   501  ADP501     -0.5169
      7  O2A      -39.6360   35.5040    5.4930 O.3   501  ADP501     -0.4370
      8  O3A      -37.3040   34.6980    6.0600 O.3   501  ADP501     -0.2261
      9  O5'      -38.4610   36.3710    7.5940 O.3   501  ADP501     -0.3111
     10  C5'      -39.0550   35.4770    8.5840 C.3   501  ADP501      0.1813
     11  C4'      -40.1010   36.1840    9.4700 C.3   501  ADP501      0.1821
     12  O4'      -39.3780   37.0560   10.3740 O.3   501  ADP501     -0.3135
     13  C3'      -41.1440   37.1470    8.8140 C.3   501  ADP501      0.2184
     14  O3'      -42.4660   36.8960    9.3560 O.3   501  ADP501     -0.2174
     15  C2'      -40.6070   38.5140    9.0770 C.3   501  ADP501      0.2570
     16  O2'      -41.6830   39.4710    9.2310 O.3   501  ADP501     -0.2130
     17  C1'      -39.8020   38.4350   10.3440 C.3   501  ADP501      0.3186
     18  N9       -38.5040   39.1800   10.4210 N.pl3 501  ADP501     -0.1439
     19  C8       -37.3940   39.1520    9.5930 C.3   501  ADP501      0.3377
     20  N7       -36.4090   39.9180    9.9460 N.2   501  ADP501     -0.2095
     21  C5       -36.9010   40.5140   11.0970 C.2   501  ADP501      0.2526
     22  C6       -36.3420   41.4670   12.0290 C.2   501  ADP501      0.4393
     23  N6       -35.1090   41.9610   11.8330 N.pl3 501  ADP501      0.2180
     24  N1       -37.1200   41.8790   13.1320 N.2   501  ADP501      0.0021
     25  C2       -38.3840   41.3720   13.3300 C.3   501  ADP501      0.5254
     26  N3       -39.0210   40.4550   12.5180 N.2   501  ADP501     -0.0055
     27  C4       -38.2060   40.0640   11.4100 C.2   501  ADP501      0.3518
@<TRIPOS>BOND
     1     3     1    2
     2     4     1    1
     3     1     8    1
     4     1     2    1
     5     6     5    2
     6     7     5    1
     7     8     5    1
     8     5     9    1
     9     9    10    1
    10    10    11    1
    11    13    15    1
    12    13    14    1
    13    13    11    1
    14    15    16    1
    15    15    17    1
    16    11    12    1
    17    19    20    1
    18    19    18    1
    19    20    21    2
    20    17    12    1
    21    17    18    1
    22    18    27    1
    23    21    27    1
    24    21    22    1
    25    27    26    2
    26    23    22    1
    27    22    24    2
    28    26    25    1
    29    24    25    1
