@<TRIPOS>MOLECULE
3ezp_B3N_A_1.pdb
 22 22 0 0 0
SMALL
GASTEIGER

@<TRIPOS>ATOM
      1  O23        5.5000   16.7910   27.8890 O.2   501  B3N501     -0.2684
      2  C13        4.3270   17.1630   27.9130 C.2   501  B3N501      0.2648
      3  C14        3.7450   17.8640   26.6900 C.ar  501  B3N501      0.0551
      4  C15        2.3880   18.3070   26.6880 C.ar  501  B3N501      0.0058
      5  C16        1.8410   18.9640   25.5430 C.ar  501  B3N501      0.0147
      6  C17        2.6330   19.2100   24.3670 C.ar  501  B3N501      0.0479
      7  N20        2.0740   19.8730   23.2080 N.pl3 501  B3N501     -0.3041
      8  C22        2.8830   20.1200   22.0120 C.3   501  B3N501      0.1122
      9  C21        0.6860   20.3360   23.1510 C.3   501  B3N501      0.1122
     10  C18        4.0090   18.7620   24.3790 C.ar  501  B3N501      0.0147
     11  C19        4.5540   18.1010   25.5270 C.ar  501  B3N501      0.0058
     12  N12        3.5420   16.9710   28.9840 N.am  501  B3N501     -0.2017
     13  C10        3.9300   16.3320   30.2330 C.3   501  B3N501      0.1155
     14  C9         3.2310   15.0020   30.4770 C.3   501  B3N501      0.0234
     15  C8         4.1160   13.8680   29.9810 C.3   501  B3N501      0.0018
     16  C7         3.3270   12.5920   29.7800 C.3   501  B3N501      0.0006
     17  C6         3.3710   11.6770   30.9810 C.3   501  B3N501      0.0097
     18  C5         2.5600   10.4250   30.7000 C.3   501  B3N501      0.0904
     19  C1         3.4910    9.2970   30.3180 C.2   501  B3N501      0.2838
     20  O2         4.1150    9.2990   29.2640 O.2   501  B3N501     -0.2698
     21  N3         3.5810    8.2960   31.1750 N.am  501  B3N501      0.0385
     22  O4         4.2990    7.3250   30.9360 O.2   501  B3N501     -0.1531
@<TRIPOS>BOND
     1     8     7    1
     2     9     7    1
     3     7     6    1
     4     6    10   ar
     5     6     5   ar
     6    10    11   ar
     7    11     3   ar
     8     5     4   ar
     9     4     3   ar
    10     3     2    1
    11     1     2    2
    12     2    12   am
    13    12    13    1
    14    20    19    2
    15    16    15    1
    16    16    17    1
    17    15    14    1
    18    13    14    1
    19    19    18    1
    20    19    21    1
    21    18    17    1
    22    22    21    2
