@<TRIPOS>MOLECULE
3ezr_EZR_A_1.pdb
 34 39 0 0 0
SMALL
GASTEIGER

@<TRIPOS>ATOM
      1  C4        -2.5790   33.9250   11.9540 C.ar  300  EZR300      0.0041
      2  C5         4.6110   28.1650    5.9080 C.ar  300  EZR300      0.0358
      3  C6         4.3960   26.1670    7.2380 C.ar  300  EZR300      0.0173
      4  C7        -3.4190   34.5520   12.8420 C.ar  300  EZR300      0.0182
      5  C8        -1.3160   32.9490    9.6090 C.2   300  EZR300      0.0171
      6  C10        0.1260   31.1070    8.9290 C.2   300  EZR300      0.0465
      7  C13        2.9850   27.9640    7.7160 C.ar  300  EZR300      0.1873
      8  C15       -0.3300   32.4030    8.8280 C.2   300  EZR300      0.1045
      9  C17       -4.5760   33.9270   13.2500 C.ar  300  EZR300      0.0921
     10  C20        2.0200   29.8720    7.6570 C.1   300  EZR300      0.1584
     11  C21        2.8920   26.5480   10.3570 C.3   300  EZR300      0.1082
     12  C22        3.1370   24.5010    9.0020 C.3   300  EZR300      0.1082
     13  C24        3.4500   23.9300   10.3750 C.3   300  EZR300      0.0938
     14  C26       -5.6460   30.5640   11.9180 C.3   300  EZR300      0.2525
     15  C1         4.9910   26.8800    6.2230 C.ar  300  EZR300      0.0041
     16  C2        -0.4560   30.2590    9.8570 C.2   300  EZR300     -0.0175
     17  C3        -1.4650   30.7970   10.6320 C.3   300  EZR300      0.0526
     18  C9        -4.8700   32.6810   12.7480 C.ar  300  EZR300      0.0549
     19  C11       -1.8880   32.1060   10.5320 C.2   300  EZR300     -0.0133
     20  C12       -2.8620   32.6750   11.4360 C.ar  300  EZR300      0.0305
     21  C14        3.5950   28.6620    6.6930 C.ar  300  EZR300      0.1754
     22  C16        3.3830   26.6720    8.0280 C.ar  300  EZR300      0.0815
     23  C18       -4.0230   32.0620   11.8520 C.ar  300  EZR300      0.1397
     24  C19        1.1540   31.0270    7.9520 C.2   300  EZR300      0.1887
     25  C23        1.9520   25.7920   11.2700 C.3   300  EZR300      0.0938
     26  C25        1.5410   23.4300   11.8880 C.3   300  EZR300      0.0897
     27  N27        2.0120   28.7310    8.3070 N.2   300  EZR300     -0.3347
     28  N28        1.3350   32.1770    7.3000 N.2   300  EZR300     -0.1357
     29  N29        2.9660   29.8700    6.6760 N.2   300  EZR300     -0.3359
     30  N30        0.4230   32.9860    7.8550 N.2   300  EZR300     -0.1472
     31  N31        2.7890   25.9170    9.0580 N.pl3 300  EZR300     -0.3026
     32  N32       -5.4480   34.5370   14.1590 N.pl3 300  EZR300     -0.1280
     33  N33        2.5290   24.4330   11.4400 N.3   300  EZR300     -0.2686
     34  O34       -4.3580   30.8110   11.3760 O.3   300  EZR300     -0.4714
@<TRIPOS>BOND
     1     2    15   ar
     2     2    21   ar
     3    15     3   ar
     4    29    21    2
     5    29    10    2
     6    21     7   ar
     7     3    22   ar
     8    28    30    1
     9    28    24    2
    10    10    24    1
    11    10    27    2
    12     7    22   ar
    13     7    27    2
    14    30     8    2
    15    24     6    1
    16    22    31    1
    17     8     6    1
    18     8     5    1
    19     6    16    2
    20    12    31    1
    21    12    13    1
    22    31    11    1
    23     5    19    2
    24    16    17    1
    25    11    25    1
    26    13    33    1
    27    19    17    1
    28    19    20    1
    29    25    33    1
    30    34    23    1
    31    34    14    1
    32    20    23   ar
    33    20     1   ar
    34    33    26    1
    35    23    18   ar
    36     1     4   ar
    37    18     9   ar
    38     4     9   ar
    39     9    32    1
