@<TRIPOS>MOLECULE
3ezt_B3N_A_1.pdb
 22 22 0 0 0
SMALL
GASTEIGER

@<TRIPOS>ATOM
      1  O23       -0.1150   18.4710   29.4390 O.2   500  B3N500     -0.2684
      2  C13        0.8260   18.0800   28.7330 C.2   500  B3N500      0.2648
      3  C14        0.8060   18.4070   27.2420 C.ar  500  B3N500      0.0551
      4  C15        1.8850   17.9730   26.3630 C.ar  500  B3N500      0.0058
      5  C16        1.8700   18.2850   24.9410 C.ar  500  B3N500      0.0147
      6  C17        0.7770   19.0430   24.3370 C.ar  500  B3N500      0.0479
      7  N20        0.7380   19.3690   22.9040 N.pl3 500  B3N500     -0.3041
      8  C22       -0.3840   20.1300   22.3190 C.3   500  B3N500      0.1122
      9  C21        1.7830   18.9760   21.9500 C.3   500  B3N500      0.1122
     10  C18       -0.3580   19.4920   25.2870 C.ar  500  B3N500      0.0147
     11  C19       -0.3050   19.1640   26.6870 C.ar  500  B3N500      0.0058
     12  N12        1.8730   17.3690   29.2380 N.am  500  B3N500     -0.2017
     13  C10        2.0840   16.9460   30.6400 C.3   500  B3N500      0.1155
     14  C9         1.3460   15.6580   31.0200 C.3   500  B3N500      0.0234
     15  C8         1.7240   14.5120   30.0790 C.3   500  B3N500      0.0018
     16  C7         0.9740   13.2510   30.4520 C.3   500  B3N500      0.0006
     17  C6         1.2800   12.0760   29.5710 C.3   500  B3N500      0.0097
     18  C5         0.4500   10.9010   30.0510 C.3   500  B3N500      0.0904
     19  C1         1.2670    9.6400   30.0710 C.2   500  B3N500      0.2838
     20  O2         1.7580    9.1750   29.0490 O.2   500  B3N500     -0.2698
     21  N3         1.4270    9.0650   31.2630 N.am  500  B3N500      0.0385
     22  O4         2.0810    8.0230   31.4140 O.2   500  B3N500     -0.1531
@<TRIPOS>BOND
     1     9     7    1
     2     8     7    1
     3     7     6    1
     4     6     5   ar
     5     6    10   ar
     6     5     4   ar
     7    10    11   ar
     8     4     3   ar
     9    11     3   ar
    10     3     2    1
    11     2    12   am
    12     2     1    2
    13    20    19    2
    14    12    13    1
    15    17    18    1
    16    17    16    1
    17    18    19    1
    18    19    21    1
    19    15    16    1
    20    15    14    1
    21    13    14    1
    22    21    22    2
