@<TRIPOS>MOLECULE
3ezv_EZV_A_1.pdb
 32 37 0 0 0
SMALL
GASTEIGER

@<TRIPOS>ATOM
      1  C1        -1.3570   30.1410   10.0370 C.2   300  EZV300     -0.0038
      2  C2        -1.8950   31.4030    9.9820 C.2   300  EZV300      0.0010
      3  C3        -1.3610   32.3680    9.1600 C.2   300  EZV300      0.0172
      4  C4        -0.2810   31.9710    8.4140 C.2   300  EZV300      0.0907
      5  C5         0.2860   30.7150    8.4700 C.3   300  EZV300      0.1176
      6  C6        -0.2600   29.7550    9.3020 C.2   300  EZV300     -0.0136
      7  N7         0.4700   32.6760    7.5210 N.2   300  EZV300     -0.1512
      8  N8         1.4840   31.9770    6.9900 N.2   300  EZV300     -0.1398
      9  C9         1.3760   30.7730    7.5670 C.2   300  EZV300      0.1744
     10  C10        2.3430   29.6880    7.2960 C.1   300  EZV300      0.1547
     11  N11        3.3510   29.7990    6.4670 N.2   300  EZV300     -0.3362
     12  C12        4.0040   28.5970    6.5060 C.ar  300  EZV300      0.1754
     13  C13        3.3820   27.7380    7.3830 C.ar  300  EZV300      0.1873
     14  N14        2.3320   28.4520    7.8750 N.2   300  EZV300     -0.3349
     15  C15        5.1290   28.1940    5.8110 C.ar  300  EZV300      0.0358
     16  C16        5.5590   26.9120    6.0560 C.ar  300  EZV300      0.0041
     17  C17        4.9190   26.0740    6.9370 C.ar  300  EZV300      0.0173
     18  C18        3.8010   26.4550    7.6380 C.ar  300  EZV300      0.0815
     19  C19       -2.9750   31.7610   10.8590 C.ar  300  EZV300      0.0001
     20  N20        3.1440   25.6050    8.5300 N.pl3 300  EZV300     -0.3026
     21  C21        2.9180   26.3300    9.7550 C.3   300  EZV300      0.1082
     22  C22        2.0220   25.4640   10.6060 C.3   300  EZV300      0.0938
     23  N23        2.7380   24.1820   10.8440 N.3   300  EZV300     -0.2686
     24  C24        3.1180   23.4600    9.6020 C.3   300  EZV300      0.0938
     25  C25        3.9120   24.3960    8.7210 C.3   300  EZV300      0.1082
     26  C26        1.9710   23.3080   11.7600 C.3   300  EZV300      0.0897
     27  C27       -3.9780   30.8940   11.2230 C.ar  300  EZV300      0.0014
     28  C28       -4.9490   31.2940   12.1130 C.ar  300  EZV300      0.0181
     29  C29       -4.9360   32.5620   12.6500 C.ar  300  EZV300      0.0891
     30  C30       -3.9340   33.4320   12.2830 C.ar  300  EZV300      0.0181
     31  C31       -2.9620   33.0240   11.4020 C.ar  300  EZV300      0.0014
     32  N32       -5.9220   32.9760   13.5650 N.pl3 300  EZV300     -0.1281
@<TRIPOS>BOND
     1    15    16   ar
     2    15    12   ar
     3    16    17   ar
     4    11    12    2
     5    11    10    2
     6    12    13   ar
     7    17    18   ar
     8     8     7    1
     9     8     9    2
    10    10     9    1
    11    10    14    2
    12    13    18   ar
    13    13    14    2
    14     7     4    2
    15     9     5    1
    16    18    20    1
    17     4     5    1
    18     4     3    1
    19     5     6    1
    20    20    25    1
    21    20    21    1
    22    25    24    1
    23     3     2    2
    24     6     1    2
    25    24    23    1
    26    21    22    1
    27     2     1    1
    28     2    19    1
    29    22    23    1
    30    23    26    1
    31    19    27   ar
    32    19    31   ar
    33    27    28   ar
    34    31    30   ar
    35    28    29   ar
    36    30    29   ar
    37    29    32    1
