@<TRIPOS>MOLECULE
3f03_FMN_K_1.pdb
 31 33 0 0 0
SMALL
GASTEIGER

@<TRIPOS>ATOM
      1  N1        21.1600    8.3780   23.6490 N.2   1401  FMN1401    -0.2887
      2  C2        20.5360    7.2020   23.4560 C.1   1401  FMN1401     0.3669
      3  O2        19.6040    6.8430   24.1860 O.2   1401  FMN1401    -0.1744
      4  N3        20.9240    6.3760   22.4170 N.2   1401  FMN1401    -0.2300
      5  C4        21.9110    6.7220   21.5080 C.1   1401  FMN1401     0.2513
      6  O4        22.2680    5.8790   20.6650 O.2   1401  FMN1401    -0.2057
      7  C4A       22.5320    7.9640   21.7060 C.2   1401  FMN1401     0.2706
      8  N5        23.5500    8.3480   20.8710 N.2   1401  FMN1401    -0.3841
      9  C5A       24.2080    9.5160   21.1340 C.2   1401  FMN1401     0.1452
     10  C6        25.2960    9.8490   20.3020 C.2   1401  FMN1401     0.0252
     11  C7        26.0570   10.9810   20.5560 C.2   1401  FMN1401    -0.0375
     12  C7M       27.3310   11.2680   19.7840 C.3   1401  FMN1401     0.0268
     13  C8        25.7650   11.7700   21.6760 C.3   1401  FMN1401     0.0417
     14  C8M       26.6560   12.9310   22.0950 C.3   1401  FMN1401     0.0091
     15  C9        24.6900   11.4250   22.4940 C.2   1401  FMN1401    -0.0049
     16  C9A       23.9110   10.2750   22.2470 C.2   1401  FMN1401     0.0795
     17  N10       22.8610    9.8880   23.0960 N.pl3 1401  FMN1401    -0.2545
     18  C10       22.1820    8.7240   22.8160 C.2   1401  FMN1401     0.2449
     19  C1'       22.6920   10.5440   24.4030 C.3   1401  FMN1401     0.1336
     20  C2'       23.7090   10.0150   25.3810 C.3   1401  FMN1401     0.2048
     21  O2'       23.4650    8.6590   25.7170 O.3   1401  FMN1401    -0.2185
     22  C3'       23.7300   10.8580   26.6580 C.3   1401  FMN1401     0.2165
     23  O3'       22.4260   10.7240   27.2610 O.3   1401  FMN1401    -0.2175
     24  C4'       24.0500   12.3410   26.3620 C.3   1401  FMN1401     0.2147
     25  O4'       25.2410   12.4180   25.5940 O.3   1401  FMN1401    -0.2176
     26  C5'       24.1610   13.2190   27.6060 C.3   1401  FMN1401     0.1892
     27  O5'       25.1480   12.7120   28.5210 O.3   1401  FMN1401    -0.2674
     28  P         26.6770   13.2300   28.6370 P.3   1401  FMN1401     0.5327
     29  O1P       26.6130   14.6730   29.1400 O.3   1401  FMN1401    -0.1145
     30  O2P       27.2820   12.2910   29.6470 O.3   1401  FMN1401    -0.1145
     31  O3P       27.2970   13.1350   27.2520 O.2   1401  FMN1401    -0.2224
@<TRIPOS>BOND
     1    12    11    1
     2    10    11    2
     3    10     9    1
     4    11    13    1
     5     6     5    2
     6     8     9    2
     7     8     7    2
     8     9    16    1
     9     5     7    1
    10     5     4    2
    11    13    14    1
    12    13    15    1
    13     7    18    1
    14    16    15    2
    15    16    17    1
    16     4     2    2
    17    18    17    1
    18    18     1    2
    19    17    19    1
    20     2     1    2
    21     2     3    2
    22    19    20    1
    23    20    21    1
    24    20    22    1
    25    25    24    1
    26    24    22    1
    27    24    26    1
    28    22    23    1
    29    31    28    2
    30    26    27    1
    31    27    28    1
    32    28    29    1
    33    28    30    1
