@<TRIPOS>MOLECULE
3f06_B3N_A_1.pdb
 22 22 0 0 0
SMALL
GASTEIGER

@<TRIPOS>ATOM
      1  O23       22.4530  -18.7000   29.6020 O.2   500  B3N500     -0.2684
      2  C13       21.8510  -18.0470   28.7370 C.2   500  B3N500      0.2648
      3  C14       22.2070  -18.2440   27.2770 C.ar  500  B3N500      0.0551
      4  C15       21.5290  -17.5090   26.2490 C.ar  500  B3N500      0.0058
      5  C16       21.8510  -17.6930   24.8620 C.ar  500  B3N500      0.0147
      6  C17       22.8660  -18.6220   24.4550 C.ar  500  B3N500      0.0479
      7  N20       23.2210  -18.8480   23.0760 N.pl3 500  B3N500     -0.3041
      8  C22       24.2670  -19.8100   22.7110 C.3   500  B3N500      0.1122
      9  C21       22.5860  -18.1650   21.9740 C.3   500  B3N500      0.1122
     10  C18       23.5850  -19.3940   25.5690 C.ar  500  B3N500      0.0147
     11  C19       23.2230  -19.1720   26.9220 C.ar  500  B3N500      0.0058
     12  N12       20.8870  -17.1610   29.0410 N.am  500  B3N500     -0.2017
     13  C10       20.4020  -16.8180   30.3730 C.3   500  B3N500      0.1155
     14  C9        20.7210  -15.3660   30.7780 C.3   500  B3N500      0.0234
     15  C8        20.3500  -14.3820   29.6580 C.3   500  B3N500      0.0018
     16  C7        20.8890  -12.9840   29.9370 C.3   500  B3N500      0.0006
     17  C6        20.0460  -11.8890   29.3270 C.3   500  B3N500      0.0097
     18  C5        20.6430  -10.5250   29.6390 C.3   500  B3N500      0.0904
     19  C1        19.6100   -9.4470   29.4090 C.2   500  B3N500      0.2838
     20  O2        19.2480   -9.1320   28.2820 O.2   500  B3N500     -0.2698
     21  N3        19.1080   -8.8620   30.4880 N.am  500  B3N500      0.0385
     22  O4        18.2530   -7.9770   30.3880 O.2   500  B3N500     -0.1531
@<TRIPOS>BOND
     1     9     7    1
     2     8     7    1
     3     7     6    1
     4     6     5   ar
     5     6    10   ar
     6     5     4   ar
     7    10    11   ar
     8     4     3   ar
     9    11     3   ar
    10     3     2    1
    11    20    19    2
    12     2    12   am
    13     2     1    2
    14    12    13    1
    15    17    18    1
    16    17    16    1
    17    19    18    1
    18    19    21    1
    19    15    16    1
    20    15    14    1
    21    13    14    1
    22    22    21    2
