@<TRIPOS>MOLECULE
3f07_AGE_A_1.pdb
 21 22 0 0 0
SMALL
GASTEIGER

@<TRIPOS>ATOM
      1  N1       -27.3910   31.0390  -40.1790 N.ar  500  AGE500     -0.3240
      2  C2       -22.6810   31.9490  -45.4140 C.ar  500  AGE500     -0.0000
      3  N2       -29.3170   25.1940  -38.5060 N.am  500  AGE500     -0.1984
      4  C4       -21.6490   32.1850  -43.1150 C.ar  500  AGE500     -0.0038
      5  C5       -22.8920   31.7590  -42.4440 C.ar  500  AGE500     -0.0145
      6  C6       -24.0350   31.4280  -43.3290 C.ar  500  AGE500     -0.0038
      7  O1       -30.3160   24.3350  -38.3920 O.3   500  AGE500     -0.4024
      8  O2       -30.6400   26.8100  -39.2920 O.2   500  AGE500     -0.5359
      9  O3       -23.3360   31.4600  -38.5510 O.2   500  AGE500     -0.2909
     10  C1       -23.9330   31.5200  -44.7930 C.ar  500  AGE500     -0.0003
     11  C3       -21.5320   32.2840  -44.5650 C.ar  500  AGE500     -0.0003
     12  C7       -22.7960   31.7270  -40.8910 C.3   500  AGE500      0.0955
     13  C8       -23.7630   31.3790  -39.6860 C.2   500  AGE500      0.1789
     14  C9       -25.2330   30.9450  -39.7890 C.ar  500  AGE500      0.0537
     15  C10      -26.2540   31.7800  -40.2470 C.ar  500  AGE500      0.0788
     16  C11      -28.6860   31.6210  -40.5910 C.3   500  AGE500      0.1305
     17  C12      -27.2160   29.7150  -39.6950 C.ar  500  AGE500      0.0602
     18  C13      -25.8260   29.6680  -39.4450 C.ar  500  AGE500      0.0215
     19  C14      -28.3030   28.6660  -39.5160 C.2   500  AGE500      0.0191
     20  C15      -28.2540   27.3420  -39.0520 C.2   500  AGE500      0.0260
     21  C16      -29.5150   26.4580  -38.9710 C.2   500  AGE500      0.1102
@<TRIPOS>BOND
     1     2    10   ar
     2     2    11   ar
     3    10     6   ar
     4    11     4   ar
     5     6     5   ar
     6     4     5   ar
     7     5    12    1
     8    12    13    1
     9    16     1    1
    10    15     1   ar
    11    15    14   ar
    12     1    17   ar
    13    14    13    1
    14    14    18   ar
    15    17    19    1
    16    17    18   ar
    17    13     9    2
    18    19    20    2
    19     8    21    2
    20    20    21    1
    21    21     3   am
    22     3     7    1
