@<TRIPOS>MOLECULE
3f0b_53R_X_1.pdb
 27 29 0 0 0
SMALL
GASTEIGER

@<TRIPOS>ATOM
      1  C20      -36.2810  -11.0000   44.0860 C.ar  158  53R158      0.0000
      2  C21      -37.2000  -10.2890   44.8660 C.ar  158  53R158      0.0000
      3  C22      -36.8160   -9.7990   46.1140 C.ar  158  53R158      0.0000
      4  C23      -35.5160  -10.0200   46.5760 C.ar  158  53R158      0.0000
      5  C24      -34.6040  -10.7300   45.7950 C.ar  158  53R158      0.0000
      6  C25      -34.9790  -11.2280   44.5440 C.ar  158  53R158      0.0001
      7  C18      -34.0680  -11.9330   43.7480 C.ar  158  53R158      0.0027
      8  C19      -32.7550  -12.1590   44.1700 C.ar  158  53R158     -0.0031
      9  C17      -34.4680  -12.4130   42.5000 C.ar  158  53R158      0.0369
     10  C16      -33.5820  -13.1170   41.6900 C.ar  158  53R158      0.1384
     11  O17      -34.0050  -13.5730   40.4760 O.3   158  53R158     -0.4714
     12  C2       -33.7100  -14.9670   40.2290 C.3   158  53R158      0.2525
     13  C15      -32.2700  -13.3270   42.1210 C.ar  158  53R158      0.0336
     14  C14      -31.8540  -12.8650   43.3680 C.ar  158  53R158     -0.0074
     15  C12      -30.4090  -13.1040   43.8360 C.3   158  53R158      0.0864
     16  C13      -29.9630  -14.5470   43.5940 C.3   158  53R158      0.0187
     17  C11      -29.5540  -12.1780   43.0790 C.1   158  53R158     -0.0868
     18  C10      -28.8930  -11.3390   42.4860 C.1   158  53R158     -0.0761
     19  C6       -28.1930  -10.2450   41.8810 C.3   158  53R158      0.1831
     20  C5       -28.5110   -8.9700   42.3300 C.2   158  53R158      0.1207
     21  C8       -29.5700   -8.7960   43.4210 C.3   158  53R158      0.0641
     22  N4       -27.8890   -7.9010   41.8060 N.2   158  53R158     -0.3332
     23  C3       -26.9570   -8.0500   40.8500 C.1   158  53R158      0.2419
     24  N7       -26.3580   -6.9750   40.3450 N.pl3 158  53R158     -0.0232
     25  N2       -26.6350   -9.2730   40.3940 N.2   158  53R158     -0.3105
     26  C1       -27.2210  -10.3800   40.8850 C.2   158  53R158      0.2282
     27  N9       -26.8620  -11.5670   40.4070 N.pl3 158  53R158     -0.0955
@<TRIPOS>BOND
     1    12    11    1
     2    24    23    1
     3    25    23    2
     4    25    26    2
     5    27    26    1
     6    11    10    1
     7    23    22    2
     8    26    19    1
     9    10    13   ar
    10    10     9   ar
    11    22    20    2
    12    19    20    1
    13    19    18    1
    14    13    14   ar
    15    20    21    1
    16    18    17    3
    17     9     7   ar
    18    17    15    1
    19    14    15    1
    20    14     8   ar
    21    16    15    1
    22     7     8   ar
    23     7     6    1
    24     1     6   ar
    25     1     2   ar
    26     6     5   ar
    27     2     3   ar
    28     5     4   ar
    29     3     4   ar
