@<TRIPOS>MOLECULE
3f0b_NAP_X_1.pdb
 48 52 0 0 0
SMALL
GASTEIGER

@<TRIPOS>ATOM
      1  PA       -23.6870  -21.5980   42.9390 P.3   207  NAP207      0.2189
      2  O1A      -22.4910  -21.1690   42.2140 O.2   207  NAP207     -0.5170
      3  O2A      -24.8780  -20.7910   42.6110 O.3   207  NAP207     -0.4371
      4  O5B      -23.9940  -23.1450   42.6420 O.3   207  NAP207     -0.3112
      5  C5B      -23.0310  -24.1640   42.8190 C.3   207  NAP207      0.1813
      6  C4B      -23.5760  -25.3640   42.0680 C.3   207  NAP207      0.1820
      7  O4B      -23.6260  -25.0730   40.6760 O.3   207  NAP207     -0.3136
      8  C3B      -22.7340  -26.6300   42.1710 C.3   207  NAP207      0.2157
      9  O3B      -22.9480  -27.3480   43.3700 O.3   207  NAP207     -0.2175
     10  C2B      -23.1790  -27.3720   40.9130 C.3   207  NAP207      0.2314
     11  O2B      -24.4780  -27.8830   41.0250 O.3   207  NAP207     -0.2630
     12  C1B      -23.3520  -26.2370   39.9210 C.3   207  NAP207      0.3158
     13  N9A      -22.1030  -26.1070   39.1600 N.pl3 207  NAP207     -0.1439
     14  C8A      -21.1290  -25.1400   39.2800 C.3   207  NAP207      0.3377
     15  N7A      -20.1560  -25.4010   38.3800 N.2   207  NAP207     -0.2095
     16  C5A      -20.4900  -26.5210   37.6910 C.2   207  NAP207      0.2526
     17  C6A      -19.8800  -27.2350   36.6650 C.2   207  NAP207      0.4393
     18  N6A      -18.7080  -26.8610   36.1560 N.pl3 207  NAP207      0.2180
     19  N1A      -20.5040  -28.3630   36.1620 N.2   207  NAP207      0.0021
     20  C2A      -21.7240  -28.7930   36.6520 C.3   207  NAP207      0.5254
     21  N3A      -22.3200  -28.0830   37.6710 N.2   207  NAP207     -0.0055
     22  C4A      -21.7150  -26.9720   38.1790 C.2   207  NAP207      0.3518
     23  O3       -23.4260  -21.7470   44.5210 O.3   207  NAP207     -0.2703
     24  PN       -22.4910  -21.0510   45.6140 P.3   207  NAP207      0.2189
     25  O1N      -22.6630  -21.6930   46.9480 O.3   207  NAP207     -0.4371
     26  O2N      -21.1610  -20.8720   45.0540 O.2   207  NAP207     -0.5170
     27  O5D      -23.2550  -19.6010   45.7660 O.3   207  NAP207     -0.3112
     28  C5D      -24.5930  -19.3970   46.2240 C.3   207  NAP207      0.1813
     29  C4D      -24.7450  -18.0100   46.8810 C.3   207  NAP207      0.1799
     30  O4D      -24.4720  -16.9300   45.9840 O.3   207  NAP207     -0.3327
     31  C3D      -26.1160  -17.6780   47.4760 C.3   207  NAP207      0.2158
     32  O3D      -25.8600  -17.1620   48.7650 O.3   207  NAP207     -0.2175
     33  C2D      -26.6610  -16.5180   46.6700 C.3   207  NAP207      0.2309
     34  O2D      -27.2840  -15.6340   47.5530 O.3   207  NAP207     -0.2158
     35  C1D      -25.3960  -15.8550   46.1850 C.3   207  NAP207      0.2263
     36  N1N      -25.4820  -14.9600   45.0110 N.pl3 207  NAP207     -0.2787
     37  C2N      -25.3950  -13.6120   45.2170 C.3   207  NAP207      0.1244
     38  C3N      -25.4350  -12.7360   44.1430 C.2   207  NAP207      0.0544
     39  C7N      -25.1620  -11.2760   44.3310 C.2   207  NAP207      0.2818
     40  O7N      -25.0430  -10.5460   43.1590 O.2   207  NAP207     -0.2670
     41  N7N      -25.0460  -10.7100   45.5460 N.am  207  NAP207     -0.0839
     42  C4N      -25.5460  -13.2230   42.8310 C.2   207  NAP207      0.0033
     43  C5N      -25.6410  -14.5970   42.6530 C.2   207  NAP207      0.0157
     44  C6N      -25.5860  -15.4590   43.7420 C.2   207  NAP207      0.0633
     45  P2B      -24.8090  -29.3750   41.5490 P.3   207  NAP207      0.5328
     46  O1X      -24.3250  -29.5010   42.9760 O.3   207  NAP207     -0.1145
     47  O2X      -26.3060  -29.4840   41.4540 O.3   207  NAP207     -0.1145
     48  O3X      -24.1140  -30.3360   40.6400 O.2   207  NAP207     -0.2224
@<TRIPOS>BOND
     1    18    17    1
     2    19    20    1
     3    19    17    2
     4    20    21    1
     5    17    16    1
     6    21    22    2
     7    16    22    1
     8    16    15    2
     9    22    13    1
    10    15    14    1
    11    13    14    1
    12    13    12    1
    13    12     7    1
    14    12    10    1
    15    48    45    2
    16     7     6    1
    17    10    11    1
    18    10     8    1
    19    11    45    1
    20    47    45    1
    21    45    46    1
    22     6     8    1
    23     6     5    1
    24     8     9    1
    25     2     1    2
    26     3     1    1
    27     4     5    1
    28     4     1    1
    29    43    42    1
    30    43    44    2
    31    42    38    2
    32     1    23    1
    33    40    39    2
    34    44    36    1
    35    38    39    1
    36    38    37    1
    37    39    41   am
    38    23    24    1
    39    36    37    1
    40    36    35    1
    41    26    24    2
    42    24    27    1
    43    24    25    1
    44    27    28    1
    45    30    35    1
    46    30    29    1
    47    35    33    1
    48    28    29    1
    49    33    31    1
    50    33    34    1
    51    29    31    1
    52    31    32    1
