@<TRIPOS>MOLECULE
3f0f_C5P_C_1.pdb
 21 22 0 0 0
SMALL
GASTEIGER

@<TRIPOS>ATOM
      1  O3P      -20.6710  -13.8280   34.8440 O.3   163  C5P163     -0.1145
      2  P        -20.1380  -12.3580   34.5070 P.3   163  C5P163      0.5327
      3  O1P      -18.7110  -12.4230   34.1270 O.3   163  C5P163     -0.1145
      4  O2P      -21.1470  -11.6920   33.6250 O.2   163  C5P163     -0.2224
      5  O5'      -20.3140  -11.6510   35.8950 O.3   163  C5P163     -0.2675
      6  C5'      -21.2810  -10.6340   35.9540 C.3   163  C5P163      0.1859
      7  C4'      -20.4200   -9.4210   36.2110 C.3   163  C5P163      0.1801
      8  O4'      -20.4550   -8.9520   37.5350 O.3   163  C5P163     -0.3320
      9  C3'      -20.4200   -8.2530   35.2430 C.3   163  C5P163      0.2158
     10  O3'      -21.6440   -8.0910   34.5210 O.3   163  C5P163     -0.2175
     11  C2'      -20.1070   -7.0830   36.1490 C.3   163  C5P163      0.2319
     12  O2'      -21.2470   -6.2350   36.3100 O.3   163  C5P163     -0.2157
     13  C1'      -19.7210   -7.7470   37.4720 C.3   163  C5P163      0.2400
     14  N1       -18.3060   -8.1230   37.4840 N.am  163  C5P163     -0.1778
     15  C2       -17.4600   -7.5400   38.4280 C.1   163  C5P163      0.2756
     16  N3       -16.1600   -7.8510   38.4690 N.2   163  C5P163     -0.3024
     17  C4       -15.6490   -8.7460   37.6210 C.2   163  C5P163      0.2346
     18  C5       -16.4660   -9.3340   36.6800 C.2   163  C5P163      0.0687
     19  C6       -17.8120   -9.0080   36.6310 C.2   163  C5P163      0.0836
     20  O2       -17.9270   -6.7200   39.2220 O.2   163  C5P163     -0.1925
     21  N4       -14.3490   -9.0570   37.6900 N.pl3 163  C5P163     -0.0921
@<TRIPOS>BOND
     1     4     2    2
     2     3     2    1
     3     2     1    1
     4     2     5    1
     5    10     9    1
     6     9    11    1
     7     9     7    1
     8     5     6    1
     9     6     7    1
    10    11    12    1
    11    11    13    1
    12     7     8    1
    13    19    18    2
    14    19    14    1
    15    18    17    1
    16    13    14    1
    17    13     8    1
    18    14    15   am
    19    17    21    1
    20    17    16    2
    21    15    16    2
    22    15    20    2
