@<TRIPOS>MOLECULE
3f0g_C5P_B_1.pdb
 21 22 0 0 0
SMALL
GASTEIGER

@<TRIPOS>ATOM
      1  O3P       25.0920   -4.4030  -46.3100 O.3   163  C5P163     -0.1145
      2  P         25.3250   -5.8600  -45.6960 P.3   163  C5P163      0.5327
      3  O1P       24.2980   -6.0560  -44.7090 O.3   163  C5P163     -0.1145
      4  O2P       25.4910   -6.9320  -46.7290 O.2   163  C5P163     -0.2224
      5  O5'       26.7810   -5.6010  -45.1770 O.3   163  C5P163     -0.2675
      6  C5'       27.8580   -5.5720  -46.1230 C.3   163  C5P163      0.1859
      7  C4'       28.9830   -6.4630  -45.6360 C.3   163  C5P163      0.1801
      8  O4'       29.4930   -5.7650  -44.5040 O.3   163  C5P163     -0.3320
      9  C3'       28.3630   -7.7440  -45.1040 C.3   163  C5P163      0.2158
     10  O3'       28.6230   -8.9820  -45.7640 O.3   163  C5P163     -0.2175
     11  C2'       28.8580   -7.9260  -43.7350 C.3   163  C5P163      0.2319
     12  O2'       29.6270   -9.1210  -43.6880 O.3   163  C5P163     -0.2157
     13  C1'       29.5770   -6.6480  -43.3830 C.3   163  C5P163      0.2400
     14  N1        28.8330   -6.2150  -42.2140 N.am  163  C5P163     -0.1778
     15  C2        29.5500   -5.9680  -41.0450 C.1   163  C5P163      0.2756
     16  N3        28.9160   -5.6700  -39.9470 N.2   163  C5P163     -0.3024
     17  C4        27.6160   -5.5320  -39.9080 C.2   163  C5P163      0.2346
     18  C5        26.8540   -5.7630  -41.0460 C.2   163  C5P163      0.0687
     19  C6        27.5130   -6.1310  -42.2190 C.2   163  C5P163      0.0836
     20  O2        30.7910   -6.0340  -41.0180 O.2   163  C5P163     -0.1925
     21  N4        27.0970   -5.1230  -38.7300 N.pl3 163  C5P163     -0.0921
@<TRIPOS>BOND
     1     4     2    2
     2     1     2    1
     3     6     7    1
     4     6     5    1
     5    10     9    1
     6     2     5    1
     7     2     3    1
     8     7     9    1
     9     7     8    1
    10     9    11    1
    11     8    13    1
    12    11    12    1
    13    11    13    1
    14    13    14    1
    15    19    14    1
    16    19    18    2
    17    14    15   am
    18    18    17    1
    19    15    20    2
    20    15    16    2
    21    16    17    2
    22    17    21    1
