@<TRIPOS>MOLECULE
3f0l_BLA_A_1.pdb
 43 46 0 0 0
SMALL
GASTEIGER

@<TRIPOS>ATOM
      1  CHA        1.8420  -25.9740   20.8520 C.3   249  BLA249      0.1170
      2  NA         0.9490  -28.2830   21.3510 N.2   249  BLA249     -0.4104
      3  C1A        1.9010  -27.2970   21.5210 C.2   249  BLA249      0.1114
      4  C2A        2.8130  -27.6870   22.4990 C.2   249  BLA249      0.0024
      5  C3A        2.5560  -29.0420   22.7690 C.2   249  BLA249      0.0021
      6  C4A        1.4370  -29.3780   22.0750 C.2   249  BLA249      0.1114
      7  CMA        3.3170  -29.9610   23.7180 C.3   249  BLA249      0.0331
      8  CAA        3.9210  -26.8020   23.0200 C.3   249  BLA249      0.0402
      9  CBA        3.3940  -25.8830   24.1520 C.3   249  BLA249      0.1188
     10  CGA        4.2860  -24.6990   24.4180 C.2   249  BLA249      0.3652
     11  O1A        4.0970  -24.0490   25.5330 O.co2 249  BLA249     -0.2456
     12  O2A        5.1690  -24.3430   23.6560 O.co2 249  BLA249     -0.2456
     13  CHB        0.8040  -30.6850   22.0480 C.3   249  BLA249      0.1181
     14  NB        -1.4270  -30.2250   21.1650 N.2   249  BLA249     -0.3372
     15  C1B       -0.3820  -31.0580   21.6250 C.2   249  BLA249      0.1257
     16  C2B       -0.9210  -32.4540   21.6450 C.2   249  BLA249      0.0168
     17  C3B       -2.1770  -32.4330   21.1510 C.2   249  BLA249      0.0929
     18  C4B       -2.5170  -31.0310   20.8280 C.1   249  BLA249      0.2041
     19  CMB       -0.0460  -33.6240   22.0280 C.3   249  BLA249      0.0342
     20  OB        -3.5730  -30.4850   20.4920 O.2   249  BLA249     -0.2093
     21  CAB       -3.1700  -33.5200   20.9040 C.2   249  BLA249      0.0124
     22  CBB       -2.9090  -34.8250   20.8060 C.2   249  BLA249      0.0008
     23  NC        -2.8600  -27.1900   18.2660 N.2   249  BLA249     -0.3371
     24  C1C       -4.0750  -27.8780   18.0500 C.1   249  BLA249      0.2003
     25  C2C       -5.0610  -26.8530   17.6720 C.2   249  BLA249      0.0749
     26  C3C       -4.4400  -25.6590   17.6390 C.2   249  BLA249      0.0347
     27  C4C       -3.0410  -25.7870   18.0340 C.2   249  BLA249      0.1293
     28  CMC       -6.4660  -27.2520   17.3030 C.3   249  BLA249      0.0448
     29  OC        -4.0930  -29.1050   17.9490 O.2   249  BLA249     -0.2096
     30  CAC       -5.0020  -24.3250   17.3860 C.2   249  BLA249      0.0027
     31  CBC       -6.2840  -23.9770   17.2350 C.2   249  BLA249      0.0001
     32  CHD       -2.1070  -24.8530   18.1050 C.3   249  BLA249      0.1184
     33  ND        -0.3180  -25.7840   19.5330 N.2   249  BLA249     -0.4104
     34  C1D       -0.7700  -24.8860   18.6970 C.2   249  BLA249      0.1115
     35  C2D        0.2580  -23.8920   18.3880 C.2   249  BLA249      0.0021
     36  C3D        1.2980  -24.1580   19.1780 C.2   249  BLA249      0.0024
     37  C4D        0.9890  -25.3730   20.0030 C.2   249  BLA249      0.1114
     38  CMD        0.0870  -22.7260   17.4670 C.3   249  BLA249      0.0331
     39  CAD        2.6770  -23.5300   19.2370 C.3   249  BLA249      0.0402
     40  CBD        3.5860  -24.2220   18.2150 C.3   249  BLA249      0.1188
     41  CGD        5.0910  -23.9760   18.3340 C.2   249  BLA249      0.3652
     42  O1D        5.4180  -23.2290   19.3710 O.co2 249  BLA249     -0.2456
     43  O2D        5.8350  -24.2420   17.4110 O.co2 249  BLA249     -0.2456
@<TRIPOS>BOND
     1    31    30    2
     2    28    25    1
     3    30    26    1
     4    43    41   ar
     5    38    35    1
     6    26    25    2
     7    26    27    1
     8    25    24    1
     9    29    24    2
    10    27    32    1
    11    27    23    2
    12    24    23    2
    13    32    34    1
    14    40    41    1
    15    40    39    1
    16    41    42   ar
    17    35    34    1
    18    35    36    2
    19    34    33    2
    20    36    39    1
    21    36    37    1
    22    33    37    2
    23    37     1    1
    24    20    18    2
    25    22    21    2
    26    18    17    1
    27    18    14    2
    28     1     3    1
    29    21    17    1
    30    17    16    2
    31    14    15    2
    32     2     3    2
    33     2     6    2
    34     3     4    1
    35    15    16    1
    36    15    13    1
    37    16    19    1
    38    13     6    1
    39     6     5    1
    40     4     5    2
    41     4     8    1
    42     5     7    1
    43     8     9    1
    44    12    10   ar
    45     9    10    1
    46    10    11   ar
