@<TRIPOS>MOLECULE
3f0m_BLA_A_1.pdb
 43 46 0 0 0
SMALL
GASTEIGER

@<TRIPOS>ATOM
      1  CHA        1.8110  -25.9770   20.5220 C.3   249  BLA249      0.1170
      2  NA         0.9090  -28.3540   21.0040 N.2   249  BLA249     -0.4104
      3  C1A        1.8800  -27.3170   21.1770 C.2   249  BLA249      0.1114
      4  C2A        2.8100  -27.6850   22.1320 C.2   249  BLA249      0.0024
      5  C3A        2.4950  -28.9840   22.5690 C.2   249  BLA249      0.0021
      6  C4A        1.3830  -29.3940   21.8860 C.2   249  BLA249      0.1114
      7  CMA        3.2270  -29.8670   23.6040 C.3   249  BLA249      0.0331
      8  CAA        3.9020  -26.7750   22.6760 C.3   249  BLA249      0.0402
      9  CBA        3.2780  -25.8580   23.7670 C.3   249  BLA249      0.1188
     10  CGA        4.1970  -24.7370   24.1110 C.2   249  BLA249      0.3652
     11  O1A        3.9850  -24.1450   25.2500 O.co2 249  BLA249     -0.2456
     12  O2A        5.1500  -24.3910   23.4280 O.co2 249  BLA249     -0.2456
     13  CHB        0.8340  -30.7360   21.9070 C.3   249  BLA249      0.1181
     14  NB        -1.4690  -30.2760   21.0100 N.2   249  BLA249     -0.3372
     15  C1B       -0.3930  -31.1180   21.4940 C.2   249  BLA249      0.1257
     16  C2B       -1.0680  -32.4840   21.5790 C.2   249  BLA249      0.0168
     17  C3B       -2.2950  -32.4810   21.0460 C.2   249  BLA249      0.0929
     18  C4B       -2.6170  -31.0480   20.7810 C.1   249  BLA249      0.2041
     19  CMB       -0.2600  -33.7030   21.9290 C.3   249  BLA249      0.0342
     20  OB        -3.6320  -30.5590   20.2690 O.2   249  BLA249     -0.2093
     21  CAB       -3.2630  -33.6180   20.8470 C.2   249  BLA249      0.0124
     22  CBB       -3.0210  -34.9100   21.1340 C.2   249  BLA249      0.0008
     23  NC        -3.0360  -27.0860   18.0330 N.2   249  BLA249     -0.3371
     24  C1C       -4.3040  -27.7370   17.8300 C.1   249  BLA249      0.2003
     25  C2C       -5.2150  -26.6530   17.4010 C.2   249  BLA249      0.0749
     26  C3C       -4.5730  -25.4560   17.3540 C.2   249  BLA249      0.0347
     27  C4C       -3.1760  -25.6360   17.7540 C.2   249  BLA249      0.1293
     28  CMC       -6.6520  -26.9880   17.1090 C.3   249  BLA249      0.0448
     29  OC        -4.3720  -28.9560   17.9080 O.2   249  BLA249     -0.2096
     30  CAC       -5.0780  -24.0740   17.1930 C.2   249  BLA249      0.0027
     31  CBC       -6.3650  -23.7050   17.2580 C.2   249  BLA249      0.0001
     32  CHD       -2.1640  -24.7440   17.7830 C.3   249  BLA249      0.1184
     33  ND        -0.3580  -25.8600   19.1820 N.2   249  BLA249     -0.4104
     34  C1D       -0.7750  -24.9190   18.3230 C.2   249  BLA249      0.1115
     35  C2D        0.2630  -23.8890   18.0640 C.2   249  BLA249      0.0021
     36  C3D        1.3310  -24.2050   18.7840 C.2   249  BLA249      0.0024
     37  C4D        0.9960  -25.4730   19.5560 C.2   249  BLA249      0.1114
     38  CMD        0.1140  -22.7250   17.1350 C.3   249  BLA249      0.0331
     39  CAD        2.7600  -23.6060   18.7850 C.3   249  BLA249      0.0402
     40  CBD        3.6630  -24.4040   17.8440 C.3   249  BLA249      0.1188
     41  CGD        5.1200  -23.9240   17.9060 C.2   249  BLA249      0.3652
     42  O1D        5.4020  -23.2490   19.0200 O.co2 249  BLA249     -0.2456
     43  O2D        5.9300  -24.1780   17.0420 O.co2 249  BLA249     -0.2456
@<TRIPOS>BOND
     1    43    41   ar
     2    28    25    1
     3    38    35    1
     4    30    31    2
     5    30    26    1
     6    26    25    2
     7    26    27    1
     8    25    24    1
     9    27    32    1
    10    27    23    2
    11    32    34    1
    12    24    29    2
    13    24    23    2
    14    40    41    1
    15    40    39    1
    16    41    42   ar
    17    35    34    1
    18    35    36    2
    19    34    33    2
    20    36    39    1
    21    36    37    1
    22    33    37    2
    23    37     1    1
    24    20    18    2
    25     1     3    1
    26    18    14    2
    27    18    17    1
    28    21    17    1
    29    21    22    2
    30     2     3    2
    31     2     6    2
    32    14    15    2
    33    17    16    2
    34     3     4    1
    35    15    16    1
    36    15    13    1
    37    16    19    1
    38     6    13    1
    39     6     5    1
    40     4     5    2
    41     4     8    1
    42     5     7    1
    43     8     9    1
    44    12    10   ar
    45     9    10    1
    46    10    11   ar
