@<TRIPOS>MOLECULE
3f0q_52V_X_1.pdb
 29 31 0 0 0
SMALL
GASTEIGER

@<TRIPOS>ATOM
      1  C1       -27.0680  -10.2880   40.4740 C.2   158  52V158      0.2282
      2  C2       -34.2840  -16.8390   39.2750 C.3   158  52V158      0.2525
      3  C3       -27.0260   -7.9710   40.7560 C.1   158  52V158      0.2419
      4  C6       -28.1060  -10.3840   41.3900 C.3   158  52V158      0.1831
      5  C12      -29.7020  -14.0860   42.2530 C.3   158  52V158      0.0864
      6  C13      -29.8170  -14.2980   43.7570 C.3   158  52V158      0.0187
      7  C14      -31.1030  -14.1150   41.6090 C.ar  158  52V158     -0.0074
      8  C15      -31.4350  -15.2350   40.8440 C.ar  158  52V158      0.0336
      9  C16      -32.6810  -15.3400   40.2330 C.ar  158  52V158      0.1384
     10  C17      -33.6110  -14.2940   40.3840 C.ar  158  52V158      0.0369
     11  C18      -33.3130  -13.1450   41.1520 C.ar  158  52V158      0.0021
     12  C26      -36.0130  -13.6970   42.2860 C.3   158  52V158      0.0310
     13  C20      -35.5650  -12.3300   41.7970 C.ar  158  52V158     -0.0221
     14  C21      -36.5030  -11.2980   41.9080 C.ar  158  52V158     -0.0043
     15  C22      -36.2060  -10.0020   41.4950 C.ar  158  52V158     -0.0006
     16  C23      -34.9470   -9.7520   40.9700 C.ar  158  52V158     -0.0043
     17  C24      -33.9980  -10.7780   40.8620 C.ar  158  52V158     -0.0221
     18  C27      -32.6560  -10.3750   40.2700 C.3   158  52V158      0.0310
     19  C25      -34.2760  -12.1000   41.2810 C.ar  158  52V158     -0.0078
     20  C19      -32.0400  -13.0720   41.7640 C.ar  158  52V158     -0.0031
     21  O17      -32.9090  -16.4780   39.4970 O.3   158  52V158     -0.4714
     22  C11      -29.1220  -12.7710   41.9530 C.1   158  52V158     -0.0868
     23  C10      -28.6620  -11.6610   41.7010 C.1   158  52V158     -0.0761
     24  C5       -28.5820   -9.2170   41.9830 C.2   158  52V158      0.1207
     25  C8       -29.7260   -9.2610   42.9940 C.3   158  52V158      0.0641
     26  N4       -28.0310   -8.0330   41.6470 N.2   158  52V158     -0.3332
     27  N7       -26.4830   -6.8110   40.4260 N.pl3 158  52V158     -0.0232
     28  N2       -26.5670   -9.0770   40.1760 N.2   158  52V158     -0.3105
     29  N9       -26.5620  -11.3680   39.8730 N.pl3 158  52V158     -0.0955
@<TRIPOS>BOND
     1     2    21    1
     2    21     9    1
     3    29     1    1
     4    28     1    2
     5    28     3    2
     6     9    10   ar
     7     9     8   ar
     8    18    17    1
     9    10    11   ar
    10    27     3    1
    11     1     4    1
    12     3    26    2
    13     8     7   ar
    14    17    16   ar
    15    17    19   ar
    16    16    15   ar
    17    11    19    1
    18    11    20   ar
    19    19    13   ar
    20     4    23    1
    21     4    24    1
    22    15    14   ar
    23     7    20   ar
    24     7     5    1
    25    26    24    2
    26    23    22    3
    27    13    14   ar
    28    13    12    1
    29    22     5    1
    30    24    25    1
    31     5     6    1
