@<TRIPOS>MOLECULE
3f0q_NAP_X_1.pdb
 48 52 0 0 0
SMALL
GASTEIGER

@<TRIPOS>ATOM
      1  PA       -23.7470  -21.6060   42.8510 P.3   207  NAP207      0.2189
      2  O1A      -22.5900  -21.1760   42.0260 O.2   207  NAP207     -0.5170
      3  O2A      -24.9810  -20.8570   42.5520 O.3   207  NAP207     -0.4371
      4  O5B      -24.0410  -23.1600   42.5800 O.3   207  NAP207     -0.3112
      5  C5B      -23.0590  -24.1560   42.7190 C.3   207  NAP207      0.1813
      6  C4B      -23.6120  -25.3300   41.9370 C.3   207  NAP207      0.1820
      7  O4B      -23.6930  -25.0270   40.5540 O.3   207  NAP207     -0.3136
      8  C3B      -22.7660  -26.5780   42.0270 C.3   207  NAP207      0.2157
      9  O3B      -22.9680  -27.2570   43.2540 O.3   207  NAP207     -0.2175
     10  C2B      -23.2430  -27.3100   40.7750 C.3   207  NAP207      0.2314
     11  O2B      -24.5370  -27.8420   40.9150 O.3   207  NAP207     -0.2630
     12  C1B      -23.4040  -26.1720   39.7820 C.3   207  NAP207      0.3158
     13  N9A      -22.1530  -26.0430   39.0160 N.pl3 207  NAP207     -0.1439
     14  C8A      -21.1950  -25.0590   39.1170 C.3   207  NAP207      0.3377
     15  N7A      -20.2100  -25.3460   38.2370 N.2   207  NAP207     -0.2095
     16  C5A      -20.5240  -26.4890   37.5780 C.2   207  NAP207      0.2526
     17  C6A      -19.8850  -27.2240   36.5860 C.2   207  NAP207      0.4393
     18  N6A      -18.7140  -26.8300   36.0920 N.pl3 207  NAP207      0.2180
     19  N1A      -20.4710  -28.3770   36.1000 N.2   207  NAP207      0.0021
     20  C2A      -21.6860  -28.8180   36.5970 C.3   207  NAP207      0.5254
     21  N3A      -22.3160  -28.0890   37.5880 N.2   207  NAP207     -0.0055
     22  C4A      -21.7420  -26.9420   38.0660 C.2   207  NAP207      0.3518
     23  O3       -23.4550  -21.6930   44.4110 O.3   207  NAP207     -0.2703
     24  PN       -22.4950  -20.9720   45.4620 P.3   207  NAP207      0.2189
     25  O1N      -22.6550  -21.6750   46.7440 O.3   207  NAP207     -0.4371
     26  O2N      -21.1580  -20.7870   44.8810 O.2   207  NAP207     -0.5170
     27  O5D      -23.2540  -19.5240   45.6210 O.3   207  NAP207     -0.3112
     28  C5D      -24.5740  -19.3310   46.1200 C.3   207  NAP207      0.1813
     29  C4D      -24.6880  -17.9570   46.8170 C.3   207  NAP207      0.1799
     30  O4D      -24.4240  -16.8630   45.9360 O.3   207  NAP207     -0.3327
     31  C3D      -26.0460  -17.6560   47.4460 C.3   207  NAP207      0.2158
     32  O3D      -25.7860  -17.1130   48.7250 O.3   207  NAP207     -0.2175
     33  C2D      -26.6550  -16.5630   46.5840 C.3   207  NAP207      0.2309
     34  O2D      -27.3860  -15.6520   47.3650 O.3   207  NAP207     -0.2158
     35  C1D      -25.4220  -15.8490   46.0820 C.3   207  NAP207      0.2263
     36  N1N      -25.5470  -15.0010   44.8710 N.pl3 207  NAP207     -0.2787
     37  C2N      -25.3550  -13.6640   45.0250 C.3   207  NAP207      0.1244
     38  C3N      -25.4050  -12.8070   43.9420 C.2   207  NAP207      0.0544
     39  C7N      -25.1330  -11.3470   44.1260 C.2   207  NAP207      0.2818
     40  O7N      -25.0810  -10.5790   42.9710 O.2   207  NAP207     -0.2670
     41  N7N      -24.9630  -10.8030   45.3390 N.am  207  NAP207     -0.0839
     42  C4N      -25.6610  -13.3180   42.6640 C.2   207  NAP207      0.0033
     43  C5N      -25.8670  -14.6930   42.5200 C.2   207  NAP207      0.0157
     44  C6N      -25.7840  -15.5210   43.6310 C.2   207  NAP207      0.0633
     45  P2B      -24.8180  -29.3670   41.3970 P.3   207  NAP207      0.5328
     46  O1X      -24.2930  -29.5050   42.7930 O.3   207  NAP207     -0.1145
     47  O2X      -26.3030  -29.5500   41.3410 O.3   207  NAP207     -0.1145
     48  O3X      -24.0710  -30.2590   40.4470 O.2   207  NAP207     -0.2224
@<TRIPOS>BOND
     1    18    17    1
     2    19    17    2
     3    19    20    1
     4    17    16    1
     5    20    21    1
     6    16    22    1
     7    16    15    2
     8    21    22    2
     9    22    13    1
    10    15    14    1
    11    13    14    1
    12    13    12    1
    13    12     7    1
    14    12    10    1
    15    48    45    2
    16     7     6    1
    17    10    11    1
    18    10     8    1
    19    11    45    1
    20    47    45    1
    21    45    46    1
    22     6     8    1
    23     6     5    1
    24     2     1    2
    25     8     9    1
    26    43    42    1
    27    43    44    2
    28     3     1    1
    29     4     5    1
    30     4     1    1
    31    42    38    2
    32     1    23    1
    33    40    39    2
    34    44    36    1
    35    38    39    1
    36    38    37    1
    37    39    41   am
    38    23    24    1
    39    36    37    1
    40    36    35    1
    41    26    24    2
    42    24    27    1
    43    24    25    1
    44    27    28    1
    45    30    35    1
    46    30    29    1
    47    35    33    1
    48    28    29    1
    49    33    34    1
    50    33    31    1
    51    29    31    1
    52    31    32    1
