@<TRIPOS>MOLECULE
3f0r_TSN_A_1.pdb
 22 22 0 0 0
SMALL
GASTEIGER

@<TRIPOS>ATOM
      1  O1        47.2150   -0.4040   12.0720 O.3   800  TSN800     -0.4024
      2  O2        45.6310    0.8080   10.2230 O.2   800  TSN800     -0.5359
      3  O3        40.5610   -0.6150    5.5460 O.2   800  TSN800     -0.2910
      4  N1        45.9190   -0.8560   11.7090 N.am  800  TSN800     -0.1984
      5  N2        35.7150   -4.9800    4.8270 N.pl3 800  TSN800     -0.3041
      6  C1        38.6440   -1.9690    5.9650 C.ar  800  TSN800      0.0351
      7  C2        38.7160   -2.6310    4.6490 C.ar  800  TSN800      0.0041
      8  C3        37.7700   -3.6090    4.2770 C.ar  800  TSN800      0.0146
      9  C4        36.6930   -3.9870    5.1960 C.ar  800  TSN800      0.0479
     10  C5        36.6250   -3.3290    6.5080 C.ar  800  TSN800      0.0146
     11  C6        37.5670   -2.3530    6.8840 C.ar  800  TSN800      0.0041
     12  C7        39.6640   -0.9180    6.3470 C.2   800  TSN800      0.1766
     13  C8        39.6050   -0.2170    7.7210 C.3   800  TSN800      0.0835
     14  C9        41.0080    0.0870    8.2430 C.2   800  TSN800     -0.0230
     15  C10       41.6780   -0.6290    9.1860 C.2   800  TSN800     -0.0256
     16  C11       43.0330   -0.1350    9.5320 C.2   800  TSN800     -0.0026
     17  C12       43.8460   -0.7270   10.4550 C.2   800  TSN800      0.0242
     18  C13       45.1820   -0.2010   10.7770 C.2   800  TSN800      0.1102
     19  C14       38.8170    1.0970    7.6160 C.3   800  TSN800      0.0128
     20  C15       41.0750   -1.8740    9.8600 C.3   800  TSN800      0.0307
     21  C17       35.7630   -5.6520    3.5110 C.3   800  TSN800      0.1122
     22  C16       34.6150   -5.3640    5.7550 C.3   800  TSN800      0.1122
@<TRIPOS>BOND
     1    21     5    1
     2     8     7   ar
     3     8     9   ar
     4     7     6   ar
     5     5     9    1
     6     5    22    1
     7     9    10   ar
     8     3    12    2
     9     6    12    1
    10     6    11   ar
    11    12    13    1
    12    10    11   ar
    13    19    13    1
    14    13    14    1
    15    14    15    2
    16    15    16    1
    17    15    20    1
    18    16    17    2
    19     2    18    2
    20    17    18    1
    21    18     4   am
    22     4     1    1
