@<TRIPOS>MOLECULE
3f0s_53T_X_1.pdb
 29 31 0 0 0
SMALL
GASTEIGER

@<TRIPOS>ATOM
      1  N2       -26.6160   -9.1380   39.5240 N.2   158  53T158     -0.3105
      2  C8       -29.4640   -9.3040   42.6900 C.3   158  53T158      0.0641
      3  C10      -28.3510  -11.6800   41.5530 C.1   158  53T158     -0.0761
      4  C11      -28.7480  -12.7260   42.0530 C.1   158  53T158     -0.0868
      5  C12      -29.2430  -13.9510   42.6860 C.3   158  53T158      0.0864
      6  C13      -29.0930  -15.1080   41.7270 C.3   158  53T158      0.0187
      7  C1       -26.9850  -10.3500   39.9850 C.2   158  53T158      0.2282
      8  C2       -31.6820  -15.2160   46.8080 C.3   158  53T158      0.2525
      9  C3       -27.1340   -8.0110   40.0610 C.1   158  53T158      0.2419
     10  C5       -28.4460   -9.2470   41.5540 C.2   158  53T158      0.1207
     11  C6       -27.9220  -10.4260   41.0180 C.3   158  53T158      0.1831
     12  C26      -37.7180  -12.2960   41.2860 C.3   158  53T158      0.0310
     13  C21      -36.2270  -11.9140   41.2540 C.ar  158  53T158     -0.0222
     14  C20      -35.2750  -12.6090   42.0240 C.ar  158  53T158     -0.0043
     15  C22      -35.8280  -10.8480   40.4380 C.ar  158  53T158     -0.0085
     16  C23      -34.4850  -10.4680   40.3760 C.ar  158  53T158     -0.0222
     17  C27      -34.0680   -9.2940   39.4700 C.3   158  53T158      0.0310
     18  C24      -33.5400  -11.1650   41.1510 C.ar  158  53T158     -0.0043
     19  C25      -33.9180  -12.2410   41.9790 C.ar  158  53T158     -0.0005
     20  C18      -32.9520  -12.9270   42.7470 C.ar  158  53T158      0.0027
     21  C19      -31.6270  -13.0730   42.3000 C.ar  158  53T158     -0.0031
     22  C17      -33.3090  -13.4890   43.9920 C.ar  158  53T158      0.0369
     23  C16      -32.3800  -14.1820   44.7880 C.ar  158  53T158      0.1384
     24  O17      -32.7670  -14.7200   46.0010 O.3   158  53T158     -0.4714
     25  C15      -31.0650  -14.3120   44.3250 C.ar  158  53T158      0.0336
     26  C14      -30.6990  -13.7690   43.0970 C.ar  158  53T158     -0.0074
     27  N4       -28.0410   -8.0630   41.0600 N.2   158  53T158     -0.3332
     28  N7       -26.7610   -6.8260   39.6050 N.pl3 158  53T158     -0.0232
     29  N9       -26.4630  -11.4550   39.4690 N.pl3 158  53T158     -0.0955
@<TRIPOS>BOND
     1    29     7    1
     2    17    16    1
     3     1     7    2
     4     1     9    2
     5    28     9    1
     6     7    11    1
     7     9    27    2
     8    16    15   ar
     9    16    18   ar
    10    15    13   ar
    11    11     3    1
    12    11    10    1
    13    27    10    2
    14    18    19   ar
    15    13    12    1
    16    13    14   ar
    17     3     4    3
    18    10     2    1
    19     6     5    1
    20    19    14   ar
    21    19    20    1
    22     4     5    1
    23    21    20   ar
    24    21    26   ar
    25     5    26    1
    26    20    22   ar
    27    26    25   ar
    28    22    23   ar
    29    25    23   ar
    30    23    24    1
    31    24     8    1
