@<TRIPOS>MOLECULE
3f0s_NAP_X_1.pdb
 48 52 0 0 0
SMALL
GASTEIGER

@<TRIPOS>ATOM
      1  PA       -23.5840  -21.7310   41.9440 P.3   207  NAP207      0.2189
      2  O1A      -22.4430  -21.2310   41.1490 O.2   207  NAP207     -0.5170
      3  O2A      -24.7940  -20.9000   41.7680 O.3   207  NAP207     -0.4371
      4  O5B      -23.8890  -23.2700   41.5500 O.3   207  NAP207     -0.3112
      5  C5B      -22.8770  -24.2560   41.6570 C.3   207  NAP207      0.1813
      6  C4B      -23.3510  -25.4930   40.9140 C.3   207  NAP207      0.1820
      7  O4B      -23.4820  -25.2430   39.5250 O.3   207  NAP207     -0.3136
      8  C3B      -22.4070  -26.6830   40.9820 C.3   207  NAP207      0.2157
      9  O3B      -22.5150  -27.3810   42.1880 O.3   207  NAP207     -0.2175
     10  C2B      -22.8910  -27.5000   39.8110 C.3   207  NAP207      0.2314
     11  O2B      -24.1720  -27.9900   40.0900 O.3   207  NAP207     -0.2630
     12  C1B      -23.1200  -26.4020   38.7890 C.3   207  NAP207      0.3158
     13  N9A      -21.8830  -26.2180   38.0100 N.pl3 207  NAP207     -0.1439
     14  C8A      -20.9610  -25.2070   38.1210 C.3   207  NAP207      0.3377
     15  N7A      -19.9640  -25.4270   37.2230 N.2   207  NAP207     -0.2095
     16  C5A      -20.2390  -26.5710   36.5480 C.2   207  NAP207      0.2526
     17  C6A      -19.5800  -27.2550   35.5300 C.2   207  NAP207      0.4393
     18  N6A      -18.4210  -26.8120   35.0280 N.pl3 207  NAP207      0.2180
     19  N1A      -20.1370  -28.4140   35.0300 N.2   207  NAP207      0.0021
     20  C2A      -21.3340  -28.8960   35.5220 C.3   207  NAP207      0.5254
     21  N3A      -21.9780  -28.2140   36.5330 N.2   207  NAP207     -0.0055
     22  C4A      -21.4400  -27.0750   37.0390 C.2   207  NAP207      0.3518
     23  O3       -23.2040  -21.9240   43.5030 O.3   207  NAP207     -0.2703
     24  PN       -22.1110  -21.4510   44.5820 P.3   207  NAP207      0.2189
     25  O1N      -21.5330  -22.7150   45.0710 O.3   207  NAP207     -0.4371
     26  O2N      -21.2240  -20.4830   43.9310 O.2   207  NAP207     -0.5170
     27  O5D      -22.9780  -20.6230   45.7300 O.3   207  NAP207     -0.3112
     28  C5D      -24.3570  -20.2370   45.5460 C.3   207  NAP207      0.1813
     29  C4D      -24.7920  -18.8330   45.9980 C.3   207  NAP207      0.1799
     30  O4D      -24.5230  -17.7780   45.0790 O.3   207  NAP207     -0.3327
     31  C3D      -26.3010  -18.6750   46.1640 C.3   207  NAP207      0.2158
     32  O3D      -26.7010  -19.1830   47.4300 O.3   207  NAP207     -0.2175
     33  C2D      -26.6200  -17.1790   45.8500 C.3   207  NAP207      0.2309
     34  O2D      -26.9680  -16.3540   46.9410 O.3   207  NAP207     -0.2158
     35  C1D      -25.3060  -16.5910   45.3860 C.3   207  NAP207      0.2263
     36  N1N      -25.3230  -15.4880   44.3370 N.pl3 207  NAP207     -0.2787
     37  C2N      -25.5300  -14.1230   44.5610 C.3   207  NAP207      0.1244
     38  C3N      -25.4700  -13.1650   43.4910 C.2   207  NAP207      0.0544
     39  C7N      -25.3160  -11.6390   43.6310 C.2   207  NAP207      0.2818
     40  O7N      -25.0140  -10.8270   42.5030 O.2   207  NAP207     -0.2670
     41  N7N      -25.4610  -11.0180   44.8000 N.am  207  NAP207     -0.0839
     42  C4N      -25.1900  -13.6190   42.2010 C.2   207  NAP207      0.0033
     43  C5N      -24.9720  -14.9660   42.0030 C.2   207  NAP207      0.0157
     44  C6N      -25.0350  -15.8690   43.0600 C.2   207  NAP207      0.0633
     45  P2B      -24.4690  -29.4930   40.5770 P.3   207  NAP207      0.5328
     46  O1X      -23.8100  -29.5760   41.9330 O.3   207  NAP207     -0.1145
     47  O2X      -25.9750  -29.7230   40.7110 O.3   207  NAP207     -0.1145
     48  O3X      -23.9140  -30.5330   39.6090 O.2   207  NAP207     -0.2224
@<TRIPOS>BOND
     1    18    17    1
     2    19    20    1
     3    19    17    2
     4    20    21    1
     5    17    16    1
     6    21    22    2
     7    16    22    1
     8    16    15    2
     9    22    13    1
    10    15    14    1
    11    13    14    1
    12    13    12    1
    13    12     7    1
    14    12    10    1
    15     7     6    1
    16    48    45    2
    17    10    11    1
    18    10     8    1
    19    11    45    1
    20    45    47    1
    21    45    46    1
    22     6     8    1
    23     6     5    1
    24     8     9    1
    25     2     1    2
    26     4     5    1
    27     4     1    1
    28     3     1    1
    29     1    23    1
    30    43    42    1
    31    43    44    2
    32    42    38    2
    33    40    39    2
    34    44    36    1
    35    38    39    1
    36    38    37    1
    37    23    24    1
    38    39    41   am
    39    26    24    2
    40    36    37    1
    41    36    35    1
    42    24    25    1
    43    24    27    1
    44    30    35    1
    45    30    29    1
    46    35    33    1
    47    28    27    1
    48    28    29    1
    49    33    31    1
    50    33    34    1
    51    29    31    1
    52    31    32    1
