@<TRIPOS>MOLECULE
3f0t_NCV_A_1.pdb
 16 16 0 0 0
SMALL
GASTEIGER

@<TRIPOS>ATOM
      1  N1        45.9140   83.8440   54.5810 N.am  500  NCV500     -0.2071
      2  C6        47.0180   84.1630   55.4990 C.3   500  NCV500      0.1313
      3  C5        46.1090   82.7740   53.6010 C.2   500  NCV500      0.0485
      4  C11       47.5030   82.1200   53.6930 C.3   500  NCV500      0.0478
      5  C12       48.6490   82.3130   52.6620 C.3   500  NCV500      0.0716
      6  C14       49.8790   82.8170   53.4420 C.3   500  NCV500      0.1850
      7  O4        49.6060   84.0760   54.0790 O.3   500  NCV500     -0.2203
      8  C13       48.9920   80.9670   51.9830 C.3   500  NCV500      0.1850
      9  O3        49.9790   80.2730   52.7660 O.3   500  NCV500     -0.2203
     10  C3        45.0130   82.5860   52.8030 C.2   500  NCV500      0.0837
     11  C4        44.9470   81.5460   51.7000 C.3   500  NCV500      0.0458
     12  C2        43.7910   83.4750   53.0510 C.1   500  NCV500      0.2130
     13  O2        42.8270   83.2850   52.3400 O.2   500  NCV500     -0.2088
     14  N2        43.7200   84.4320   53.9880 N.2   500  NCV500     -0.2456
     15  C1        44.7470   84.6340   54.7520 C.1   500  NCV500      0.2823
     16  O1        44.7320   85.4880   55.6220 O.2   500  NCV500     -0.1919
@<TRIPOS>BOND
     1    11    10    1
     2     8     5    1
     3     8     9    1
     4    13    12    2
     5     5     6    1
     6     5     4    1
     7    10    12    1
     8    10     3    2
     9    12    14    2
    10     6     7    1
    11     3     4    1
    12     3     1    1
    13    14    15    2
    14     1    15   am
    15     1     2    1
    16    15    16    2
