@<TRIPOS>MOLECULE
3f0u_53R_X_1.pdb
 27 29 0 0 0
SMALL
GASTEIGER

@<TRIPOS>ATOM
      1  C20      -33.6870  -10.7080   40.4830 C.ar  158  53R158      0.0000
      2  C21      -34.4550   -9.5430   40.4660 C.ar  158  53R158      0.0000
      3  C22      -35.8150   -9.6120   40.7770 C.ar  158  53R158      0.0000
      4  C23      -36.3970  -10.8420   41.1020 C.ar  158  53R158      0.0000
      5  C24      -35.6320  -12.0140   41.1160 C.ar  158  53R158      0.0000
      6  C25      -34.2640  -11.9510   40.7960 C.ar  158  53R158      0.0001
      7  C18      -33.4550  -13.0980   40.8220 C.ar  158  53R158      0.0027
      8  C19      -32.3090  -13.0230   41.6080 C.ar  158  53R158     -0.0031
      9  C17      -33.7260  -14.3000   40.1380 C.ar  158  53R158      0.0369
     10  C16      -32.8490  -15.4040   40.2510 C.ar  158  53R158      0.1384
     11  O17      -33.0870  -16.5800   39.5570 O.3   158  53R158     -0.4714
     12  C2       -33.7980  -17.5940   40.2800 C.3   158  53R158      0.2525
     13  C15      -31.6910  -15.2890   41.0400 C.ar  158  53R158      0.0336
     14  C14      -31.4210  -14.0830   41.7220 C.ar  158  53R158     -0.0074
     15  C12      -30.2130  -13.7970   42.6700 C.3   158  53R158      0.0864
     16  C13      -29.4570  -15.0090   43.1660 C.3   158  53R158      0.0187
     17  C11      -29.3340  -12.7280   42.1150 C.1   158  53R158     -0.0868
     18  C10      -28.7190  -11.7310   41.7710 C.1   158  53R158     -0.0761
     19  C6       -28.1060  -10.4650   41.4770 C.3   158  53R158      0.1831
     20  C5       -28.6120   -9.2980   42.0550 C.2   158  53R158      0.1207
     21  C8       -29.8080   -9.3080   43.0230 C.3   158  53R158      0.0641
     22  N4       -28.0360   -8.1110   41.7840 N.2   158  53R158     -0.3332
     23  C3       -27.0080   -8.0540   40.9250 C.1   158  53R158      0.2419
     24  N7       -26.4880   -6.8670   40.6660 N.pl3 158  53R158     -0.0232
     25  N2       -26.4980   -9.1550   40.3400 N.2   158  53R158     -0.3105
     26  C1       -27.0290  -10.3760   40.5960 C.2   158  53R158      0.2282
     27  N9       -26.5060  -11.4590   40.0320 N.pl3 158  53R158     -0.0955
@<TRIPOS>BOND
     1    11    10    1
     2    11    12    1
     3    27    26    1
     4     9    10   ar
     5     9     7   ar
     6    10    13   ar
     7    25    26    2
     8    25    23    2
     9     2     1   ar
    10     2     3   ar
    11     1     6   ar
    12    26    19    1
    13    24    23    1
    14     3     4   ar
    15     6     7    1
    16     6     5   ar
    17     7     8   ar
    18    23    22    2
    19    13    14   ar
    20     4     5   ar
    21    19    18    1
    22    19    20    1
    23     8    14   ar
    24    14    15    1
    25    18    17    3
    26    22    20    2
    27    20    21    1
    28    17    15    1
    29    15    16    1
