@<TRIPOS>MOLECULE
3f0u_NAP_X_1.pdb
 48 52 0 0 0
SMALL
GASTEIGER

@<TRIPOS>ATOM
      1  PA       -23.8150  -21.5590   43.0150 P.3   207  NAP207      0.2189
      2  O1A      -22.6330  -21.1360   42.2690 O.2   207  NAP207     -0.5170
      3  O2A      -25.0560  -20.8210   42.8530 O.3   207  NAP207     -0.4371
      4  O5B      -24.1470  -23.1220   42.7460 O.3   207  NAP207     -0.3112
      5  C5B      -23.1230  -24.0850   42.8140 C.3   207  NAP207      0.1813
      6  C4B      -23.6890  -25.2760   42.0610 C.3   207  NAP207      0.1820
      7  O4B      -23.7050  -24.9960   40.6610 O.3   207  NAP207     -0.3136
      8  C3B      -22.8730  -26.5440   42.2240 C.3   207  NAP207      0.2157
      9  O3B      -23.0570  -27.2150   43.4750 O.3   207  NAP207     -0.2175
     10  C2B      -23.3210  -27.3270   40.9950 C.3   207  NAP207      0.2314
     11  O2B      -24.6320  -27.8060   41.1610 O.3   207  NAP207     -0.2630
     12  C1B      -23.4430  -26.1990   39.9680 C.3   207  NAP207      0.3158
     13  N9A      -22.1920  -26.0550   39.2250 N.pl3 207  NAP207     -0.1439
     14  C8A      -21.2590  -25.0470   39.3480 C.3   207  NAP207      0.3377
     15  N7A      -20.2590  -25.2890   38.4670 N.2   207  NAP207     -0.2095
     16  C5A      -20.5440  -26.4400   37.7890 C.2   207  NAP207      0.2526
     17  C6A      -19.8880  -27.1500   36.7850 C.2   207  NAP207      0.4393
     18  N6A      -18.7140  -26.7640   36.2730 N.pl3 207  NAP207      0.2180
     19  N1A      -20.4630  -28.3120   36.3010 N.2   207  NAP207      0.0021
     20  C2A      -21.6780  -28.7510   36.7840 C.3   207  NAP207      0.5254
     21  N3A      -22.3240  -28.0620   37.7780 N.2   207  NAP207     -0.0055
     22  C4A      -21.7630  -26.9180   38.2670 C.2   207  NAP207      0.3518
     23  O3       -23.5480  -21.6720   44.5880 O.3   207  NAP207     -0.2703
     24  PN       -22.5410  -20.9680   45.6290 P.3   207  NAP207      0.2189
     25  O1N      -22.7580  -21.5680   46.9850 O.3   207  NAP207     -0.4371
     26  O2N      -21.2210  -20.8190   45.0240 O.2   207  NAP207     -0.5170
     27  O5D      -23.1970  -19.4930   45.7020 O.3   207  NAP207     -0.3112
     28  C5D      -24.4570  -19.1950   46.2820 C.3   207  NAP207      0.1813
     29  C4D      -24.4990  -17.8230   46.9670 C.3   207  NAP207      0.1799
     30  O4D      -24.3350  -16.7430   46.0490 O.3   207  NAP207     -0.3327
     31  C3D      -25.8560  -17.5740   47.6400 C.3   207  NAP207      0.2158
     32  O3D      -25.6670  -16.9980   48.9240 O.3   207  NAP207     -0.2175
     33  C2D      -26.5690  -16.5280   46.7990 C.3   207  NAP207      0.2309
     34  O2D      -27.4130  -15.7160   47.5940 O.3   207  NAP207     -0.2158
     35  C1D      -25.3540  -15.7630   46.3050 C.3   207  NAP207      0.2263
     36  N1N      -25.5540  -14.9140   45.1150 N.pl3 207  NAP207     -0.2787
     37  C2N      -25.3060  -13.5810   45.2490 C.3   207  NAP207      0.1244
     38  C3N      -25.4370  -12.7500   44.1490 C.2   207  NAP207      0.0544
     39  C7N      -25.0860  -11.3050   44.2850 C.2   207  NAP207      0.2818
     40  O7N      -24.9540  -10.6050   43.1130 O.2   207  NAP207     -0.2670
     41  N7N      -24.9060  -10.7380   45.4840 N.am  207  NAP207     -0.0839
     42  C4N      -25.8280  -13.2540   42.8990 C.2   207  NAP207      0.0033
     43  C5N      -26.0780  -14.6250   42.7890 C.2   207  NAP207      0.0157
     44  C6N      -25.9180  -15.4330   43.9020 C.2   207  NAP207      0.0633
     45  P2B      -24.9460  -29.3550   41.6220 P.3   207  NAP207      0.5328
     46  O1X      -24.3720  -29.4740   43.0150 O.3   207  NAP207     -0.1145
     47  O2X      -26.4380  -29.4550   41.5650 O.3   207  NAP207     -0.1145
     48  O3X      -24.2230  -30.2450   40.6750 O.2   207  NAP207     -0.2224
@<TRIPOS>BOND
     1    18    17    1
     2    19    20    1
     3    19    17    2
     4    20    21    1
     5    17    16    1
     6    21    22    2
     7    16    22    1
     8    16    15    2
     9    22    13    1
    10    15    14    1
    11    13    14    1
    12    13    12    1
    13    12     7    1
    14    12    10    1
    15     7     6    1
    16    48    45    2
    17    10    11    1
    18    10     8    1
    19    11    45    1
    20    47    45    1
    21    45    46    1
    22     6     8    1
    23     6     5    1
    24     8     9    1
    25     2     1    2
    26     4     5    1
    27     4     1    1
    28    43    42    1
    29    43    44    2
    30     3     1    1
    31    42    38    2
    32     1    23    1
    33    40    39    2
    34    44    36    1
    35    38    39    1
    36    38    37    1
    37    39    41   am
    38    23    24    1
    39    26    24    2
    40    36    37    1
    41    36    35    1
    42    24    27    1
    43    24    25    1
    44    27    28    1
    45    30    35    1
    46    30    29    1
    47    28    29    1
    48    35    33    1
    49    33    34    1
    50    33    31    1
    51    29    31    1
    52    31    32    1
