@<TRIPOS>MOLECULE
3f0v_52V_X_1.pdb
 29 31 0 0 0
SMALL
GASTEIGER

@<TRIPOS>ATOM
      1  C1       -27.1040  -10.3840   40.6770 C.2   158  52V158      0.2282
      2  C2       -34.1480  -16.5070   38.7740 C.3   158  52V158      0.2525
      3  C3       -27.0080   -8.0780   40.9860 C.1   158  52V158      0.2419
      4  C6       -28.1620  -10.4580   41.5740 C.3   158  52V158      0.1831
      5  C12      -29.8180  -14.1500   42.3730 C.3   158  52V158      0.0864
      6  C13      -29.9050  -14.3970   43.8860 C.3   158  52V158      0.0187
      7  C14      -31.2230  -14.1840   41.7540 C.ar  158  52V158     -0.0074
      8  C15      -31.5910  -15.3530   41.0870 C.ar  158  52V158      0.0336
      9  C16      -32.8480  -15.4440   40.5090 C.ar  158  52V158      0.1384
     10  C17      -33.7420  -14.3550   40.6040 C.ar  158  52V158      0.0369
     11  C18      -33.4060  -13.1620   41.2750 C.ar  158  52V158      0.0021
     12  C26      -32.7430  -10.5190   40.0800 C.3   158  52V158      0.0310
     13  C20      -34.0570  -10.8100   40.7930 C.ar  158  52V158     -0.0221
     14  C21      -34.9790   -9.7510   40.8530 C.ar  158  52V158     -0.0043
     15  C22      -36.2080   -9.9050   41.4830 C.ar  158  52V158     -0.0006
     16  C23      -36.5080  -11.1480   42.0410 C.ar  158  52V158     -0.0043
     17  C24      -35.6010  -12.2140   41.9710 C.ar  158  52V158     -0.0221
     18  C27      -36.0480  -13.5180   42.6210 C.3   158  52V158      0.0310
     19  C25      -34.3390  -12.0800   41.3480 C.ar  158  52V158     -0.0078
     20  C19      -32.1200  -13.0920   41.8570 C.ar  158  52V158     -0.0031
     21  O17      -33.1670  -16.6210   39.8670 O.3   158  52V158     -0.4714
     22  C11      -29.2210  -12.8330   42.0980 C.1   158  52V158     -0.0868
     23  C10      -28.7410  -11.7270   41.8640 C.1   158  52V158     -0.0761
     24  C5       -28.6150   -9.2850   42.1740 C.2   158  52V158      0.1207
     25  C8       -29.7780   -9.2920   43.1520 C.3   158  52V158      0.0641
     26  N4       -28.0210   -8.1200   41.8650 N.2   158  52V158     -0.3332
     27  N7       -26.4440   -6.9190   40.6830 N.pl3 158  52V158     -0.0232
     28  N2       -26.5570   -9.1930   40.4060 N.2   158  52V158     -0.3105
     29  N9       -26.6270  -11.4790   40.0940 N.pl3 158  52V158     -0.0955
@<TRIPOS>BOND
     1     2    21    1
     2    21     9    1
     3    12    13    1
     4    29     1    1
     5    28     1    2
     6    28     3    2
     7     9    10   ar
     8     9     8   ar
     9    10    11   ar
    10     1     4    1
    11    27     3    1
    12    13    14   ar
    13    13    19   ar
    14    14    15   ar
    15     3    26    2
    16     8     7   ar
    17    11    19    1
    18    11    20   ar
    19    19    17   ar
    20    15    16   ar
    21     4    23    1
    22     4    24    1
    23     7    20   ar
    24     7     5    1
    25    23    22    3
    26    26    24    2
    27    17    16   ar
    28    17    18    1
    29    22     5    1
    30    24    25    1
    31     5     6    1
