@<TRIPOS>MOLECULE
3f0v_NAP_X_1.pdb
 48 52 0 0 0
SMALL
GASTEIGER

@<TRIPOS>ATOM
      1  PA       -23.8140  -21.5320   43.1460 P.3   207  NAP207      0.2189
      2  O1A      -22.6710  -21.0240   42.3750 O.2   207  NAP207     -0.5170
      3  O2A      -25.0500  -20.7630   42.9130 O.3   207  NAP207     -0.4371
      4  O5B      -24.0810  -23.0770   42.8150 O.3   207  NAP207     -0.3112
      5  C5B      -23.0940  -24.0810   42.9610 C.3   207  NAP207      0.1813
      6  C4B      -23.6420  -25.2560   42.1680 C.3   207  NAP207      0.1820
      7  O4B      -23.6580  -24.9440   40.7880 O.3   207  NAP207     -0.3136
      8  C3B      -22.8280  -26.5310   42.2670 C.3   207  NAP207      0.2157
      9  O3B      -23.0650  -27.2360   43.4710 O.3   207  NAP207     -0.2175
     10  C2B      -23.2750  -27.2520   40.9950 C.3   207  NAP207      0.2314
     11  O2B      -24.5540  -27.7990   41.1230 O.3   207  NAP207     -0.2630
     12  C1B      -23.4500  -26.1190   40.0120 C.3   207  NAP207      0.3158
     13  N9A      -22.2000  -26.0100   39.2570 N.pl3 207  NAP207     -0.1439
     14  C8A      -21.2390  -25.0470   39.4120 C.3   207  NAP207      0.3377
     15  N7A      -20.2290  -25.3050   38.5450 N.2   207  NAP207     -0.2095
     16  C5A      -20.5390  -26.4270   37.8440 C.2   207  NAP207      0.2526
     17  C6A      -19.8880  -27.1270   36.8320 C.2   207  NAP207      0.4393
     18  N6A      -18.7120  -26.7120   36.3860 N.pl3 207  NAP207      0.2180
     19  N1A      -20.4640  -28.2640   36.2900 N.2   207  NAP207      0.0021
     20  C2A      -21.6960  -28.7100   36.7420 C.3   207  NAP207      0.5254
     21  N3A      -22.3380  -28.0120   37.7440 N.2   207  NAP207     -0.0055
     22  C4A      -21.7770  -26.8850   38.2850 C.2   207  NAP207      0.3518
     23  O3       -23.4520  -21.6760   44.7090 O.3   207  NAP207     -0.2703
     24  PN       -22.5500  -20.8590   45.7560 P.3   207  NAP207      0.2189
     25  O1N      -22.6690  -21.4720   47.1160 O.3   207  NAP207     -0.4371
     26  O2N      -21.1970  -20.7090   45.1760 O.2   207  NAP207     -0.5170
     27  O5D      -23.3600  -19.4320   45.8560 O.3   207  NAP207     -0.3112
     28  C5D      -24.6520  -19.2630   46.4460 C.3   207  NAP207      0.1813
     29  C4D      -24.7190  -17.8980   47.1570 C.3   207  NAP207      0.1799
     30  O4D      -24.4700  -16.8110   46.2740 O.3   207  NAP207     -0.3327
     31  C3D      -26.0480  -17.5490   47.8260 C.3   207  NAP207      0.2158
     32  O3D      -25.6740  -16.8970   49.0110 O.3   207  NAP207     -0.2175
     33  C2D      -26.6880  -16.5100   46.9170 C.3   207  NAP207      0.2309
     34  O2D      -27.4960  -15.5930   47.6180 O.3   207  NAP207     -0.2158
     35  C1D      -25.4510  -15.7870   46.4270 C.3   207  NAP207      0.2263
     36  N1N      -25.6090  -14.9510   45.2150 N.pl3 207  NAP207     -0.2787
     37  C2N      -25.3940  -13.5990   45.3470 C.3   207  NAP207      0.1244
     38  C3N      -25.5000  -12.7450   44.2490 C.2   207  NAP207      0.0544
     39  C7N      -25.0720  -11.3110   44.3440 C.2   207  NAP207      0.2818
     40  O7N      -25.0340  -10.5890   43.1610 O.2   207  NAP207     -0.2670
     41  N7N      -24.7420  -10.7380   45.5070 N.am  207  NAP207     -0.0839
     42  C4N      -25.8230  -13.2750   42.9960 C.2   207  NAP207      0.0033
     43  C5N      -26.0410  -14.6480   42.8840 C.2   207  NAP207      0.0157
     44  C6N      -25.9290  -15.4790   43.9910 C.2   207  NAP207      0.0633
     45  P2B      -24.7980  -29.3130   41.6450 P.3   207  NAP207      0.5328
     46  O1X      -24.3750  -29.4800   43.0780 O.3   207  NAP207     -0.1145
     47  O2X      -26.2840  -29.5350   41.5390 O.3   207  NAP207     -0.1145
     48  O3X      -23.9760  -30.2250   40.7920 O.2   207  NAP207     -0.2224
@<TRIPOS>BOND
     1    19    20    1
     2    19    17    2
     3    18    17    1
     4    20    21    1
     5    17    16    1
     6    21    22    2
     7    16    22    1
     8    16    15    2
     9    22    13    1
    10    15    14    1
    11    13    14    1
    12    13    12    1
    13    12     7    1
    14    12    10    1
    15     7     6    1
    16    48    45    2
    17    10    11    1
    18    10     8    1
    19    11    45    1
    20    47    45    1
    21    45    46    1
    22     6     8    1
    23     6     5    1
    24     8     9    1
    25     2     1    2
    26     4     5    1
    27     4     1    1
    28    43    42    1
    29    43    44    2
    30     3     1    1
    31    42    38    2
    32     1    23    1
    33    40    39    2
    34    44    36    1
    35    38    39    1
    36    38    37    1
    37    39    41   am
    38    23    24    1
    39    26    24    2
    40    36    37    1
    41    36    35    1
    42    24    27    1
    43    24    25    1
    44    27    28    1
    45    30    35    1
    46    30    29    1
    47    35    33    1
    48    28    29    1
    49    33    34    1
    50    33    31    1
    51    29    31    1
    52    31    32    1
