@<TRIPOS>MOLECULE
3f0x_NAP_X_1.pdb
 48 52 0 0 0
SMALL
GASTEIGER

@<TRIPOS>ATOM
      1  PA       -23.7000  -21.8270   42.5350 P.3   207  NAP207      0.2189
      2  O1A      -22.6550  -21.5600   41.5180 O.2   207  NAP207     -0.5170
      3  O2A      -24.9480  -21.0650   42.2820 O.3   207  NAP207     -0.4371
      4  O5B      -23.9860  -23.4100   42.6600 O.3   207  NAP207     -0.3112
      5  C5B      -22.9250  -24.3440   42.6480 C.3   207  NAP207      0.1813
      6  C4B      -23.3230  -25.4770   41.7250 C.3   207  NAP207      0.1820
      7  O4B      -23.3640  -25.0740   40.3650 O.3   207  NAP207     -0.3136
      8  C3B      -22.3730  -26.6560   41.7300 C.3   207  NAP207      0.2157
      9  O3B      -22.4810  -27.4390   42.8940 O.3   207  NAP207     -0.2175
     10  C2B      -22.8640  -27.3470   40.4760 C.3   207  NAP207      0.2314
     11  O2B      -24.1590  -27.8450   40.6690 O.3   207  NAP207     -0.2630
     12  C1B      -23.0580  -26.1780   39.5330 C.3   207  NAP207      0.3158
     13  N9A      -21.8160  -25.9810   38.7590 N.pl3 207  NAP207     -0.1439
     14  C8A      -20.9070  -24.9570   38.8710 C.3   207  NAP207      0.3377
     15  N7A      -19.9070  -25.1690   37.9770 N.2   207  NAP207     -0.2095
     16  C5A      -20.1640  -26.3190   37.3030 C.2   207  NAP207      0.2526
     17  C6A      -19.4960  -27.0030   36.2900 C.2   207  NAP207      0.4393
     18  N6A      -18.3530  -26.5460   35.7910 N.pl3 207  NAP207      0.2180
     19  N1A      -20.0210  -28.1750   35.7920 N.2   207  NAP207      0.0021
     20  C2A      -21.2080  -28.6720   36.2870 C.3   207  NAP207      0.5254
     21  N3A      -21.8630  -27.9900   37.2870 N.2   207  NAP207     -0.0055
     22  C4A      -21.3570  -26.8360   37.7880 C.2   207  NAP207      0.3518
     23  O3       -23.1550  -21.4220   43.9900 O.3   207  NAP207     -0.2703
     24  PN       -21.8590  -21.7750   44.8580 P.3   207  NAP207      0.2189
     25  O1N      -21.2790  -23.0810   44.4760 O.2   207  NAP207     -0.5170
     26  O2N      -20.9860  -20.5880   44.9340 O.3   207  NAP207     -0.4371
     27  O5D      -22.5950  -21.9620   46.2640 O.3   207  NAP207     -0.3112
     28  C5D      -22.4060  -21.0010   47.2710 C.3   207  NAP207      0.1813
     29  C4D      -23.6420  -20.1310   47.4810 C.3   207  NAP207      0.1799
     30  O4D      -23.9170  -19.1450   46.4860 O.3   207  NAP207     -0.3327
     31  C3D      -24.9510  -20.8880   47.7130 C.3   207  NAP207      0.2158
     32  O3D      -25.1390  -20.9950   49.1070 O.3   207  NAP207     -0.2175
     33  C2D      -25.9880  -19.9700   47.0960 C.3   207  NAP207      0.2309
     34  O2D      -27.0590  -19.7600   47.9760 O.3   207  NAP207     -0.2158
     35  C1D      -25.1370  -18.7160   47.0610 C.3   207  NAP207      0.2263
     36  N1N      -25.7920  -17.4190   46.7310 N.pl3 207  NAP207     -0.2787
     37  C2N      -25.6700  -16.7600   45.5260 C.3   207  NAP207      0.1244
     38  C3N      -26.3200  -15.5330   45.3580 C.2   207  NAP207      0.0544
     39  C7N      -25.8730  -14.5660   44.3040 C.2   207  NAP207      0.2818
     40  O7N      -25.5330  -15.0290   43.0190 O.2   207  NAP207     -0.2670
     41  N7N      -25.8220  -13.2690   44.6140 N.am  207  NAP207     -0.0839
     42  C4N      -27.0790  -15.0040   46.4050 C.2   207  NAP207      0.0033
     43  C5N      -27.1840  -15.6690   47.6150 C.2   207  NAP207      0.0157
     44  C6N      -26.5220  -16.8760   47.7590 C.2   207  NAP207      0.0633
     45  P2B      -24.4410  -29.3870   41.0000 P.3   207  NAP207      0.5328
     46  O1X      -23.7990  -29.7090   42.3380 O.3   207  NAP207     -0.1145
     47  O2X      -25.9400  -29.5890   41.0640 O.3   207  NAP207     -0.1145
     48  O3X      -23.8410  -30.2320   39.9020 O.2   207  NAP207     -0.2224
@<TRIPOS>BOND
     1    18    17    1
     2    19    20    1
     3    19    17    2
     4    20    21    1
     5    17    16    1
     6    21    22    2
     7    16    22    1
     8    16    15    2
     9    22    13    1
    10    15    14    1
    11    13    14    1
    12    13    12    1
    13    12     7    1
    14    12    10    1
    15    48    45    2
    16     7     6    1
    17    10    11    1
    18    10     8    1
    19    11    45    1
    20    45    47    1
    21    45    46    1
    22     2     1    2
    23     6     8    1
    24     6     5    1
    25     8     9    1
    26     3     1    1
    27     1     4    1
    28     1    23    1
    29     5     4    1
    30    40    39    2
    31    23    24    1
    32    39    41   am
    33    39    38    1
    34    25    24    2
    35    24    26    1
    36    24    27    1
    37    38    37    1
    38    38    42    2
    39    37    36    1
    40    27    28    1
    41    42    43    1
    42    30    35    1
    43    30    29    1
    44    36    35    1
    45    36    44    1
    46    35    33    1
    47    33    31    1
    48    33    34    1
    49    28    29    1
    50    29    31    1
    51    43    44    2
    52    31    32    1
