@<TRIPOS>MOLECULE
3f0x_53T_X_1.pdb
 29 31 0 0 0
SMALL
GASTEIGER

@<TRIPOS>ATOM
      1  N2       -26.6210   -9.0270   40.1360 N.2   158  53T158     -0.3105
      2  C8       -29.5840   -9.0430   43.1760 C.3   158  53T158      0.0641
      3  C10      -28.5120  -11.4800   42.1190 C.1   158  53T158     -0.0761
      4  C11      -28.9310  -12.5400   42.5670 C.1   158  53T158     -0.0868
      5  C12      -29.4280  -13.8120   43.1040 C.3   158  53T158      0.0864
      6  C13      -29.3710  -14.8580   42.0000 C.3   158  53T158      0.0187
      7  C1       -27.0450  -10.2130   40.5950 C.2   158  53T158      0.2282
      8  C2       -31.8430  -15.0550   47.4060 C.3   158  53T158      0.2525
      9  C3       -27.1110   -7.8760   40.6370 C.1   158  53T158      0.2419
     10  C5       -28.5200   -9.0480   42.0860 C.2   158  53T158      0.1207
     11  C6       -28.0170  -10.2440   41.5980 C.3   158  53T158      0.1831
     12  C26      -37.8850  -12.1260   41.6390 C.3   158  53T158      0.0310
     13  C21      -36.3850  -11.7630   41.6450 C.ar  158  53T158     -0.0222
     14  C20      -35.4610  -12.4660   42.4550 C.ar  158  53T158     -0.0043
     15  C22      -35.9440  -10.7080   40.8300 C.ar  158  53T158     -0.0085
     16  C23      -34.5880  -10.3590   40.8230 C.ar  158  53T158     -0.0222
     17  C27      -34.1100   -9.2060   39.9400 C.3   158  53T158      0.0310
     18  C24      -33.6740  -11.0610   41.6310 C.ar  158  53T158     -0.0043
     19  C25      -34.0930  -12.1170   42.4590 C.ar  158  53T158     -0.0005
     20  C18      -33.1460  -12.8030   43.2560 C.ar  158  53T158      0.0027
     21  C19      -31.8220  -12.9560   42.7970 C.ar  158  53T158     -0.0031
     22  C17      -33.4920  -13.3560   44.5150 C.ar  158  53T158      0.0369
     23  C16      -32.5390  -14.0380   45.3030 C.ar  158  53T158      0.1384
     24  O17      -32.9060  -14.5690   46.5340 O.3   158  53T158     -0.4714
     25  C15      -31.2250  -14.1720   44.8170 C.ar  158  53T158      0.0336
     26  C14      -30.8710  -13.6380   43.5790 C.ar  158  53T158     -0.0074
     27  N4       -28.0550   -7.8920   41.5930 N.2   158  53T158     -0.3332
     28  N7       -26.6740   -6.7100   40.1750 N.pl3 158  53T158     -0.0232
     29  N9       -26.5330  -11.3300   40.0950 N.pl3 158  53T158     -0.0955
@<TRIPOS>BOND
     1    17    16    1
     2    29     7    1
     3     1     7    2
     4     1     9    2
     5    28     9    1
     6     7    11    1
     7     9    27    2
     8    16    15   ar
     9    16    18   ar
    10    15    13   ar
    11    27    10    2
    12    11    10    1
    13    11     3    1
    14    18    19   ar
    15    12    13    1
    16    13    14   ar
    17     6     5    1
    18    10     2    1
    19     3     4    3
    20    14    19   ar
    21    19    20    1
    22     4     5    1
    23    21    20   ar
    24    21    26   ar
    25     5    26    1
    26    20    22   ar
    27    26    25   ar
    28    22    23   ar
    29    25    23   ar
    30    23    24    1
    31    24     8    1
