@<TRIPOS>MOLECULE
3f10_8HG_A_1.pdb
 20 22 0 0 0
SMALL
GASTEIGER

@<TRIPOS>ATOM
      1  O6        25.2690   -8.7780  -12.3040 O.2   293  8HG293     -0.2058
      2  C6        26.1450   -9.2320  -11.5880 C.1   293  8HG293      0.2509
      3  N1        26.7600   -8.4270  -10.6170 N.2   293  8HG293     -0.2475
      4  C2        27.7880   -8.9650   -9.8330 C.1   293  8HG293      0.2532
      5  N2        28.3740   -8.2090   -8.9140 N.pl3 293  8HG293     -0.0226
      6  N3        28.1810  -10.2370  -10.0110 N.2   293  8HG293     -0.3052
      7  C4        27.6050  -11.0270  -10.9350 C.2   293  8HG293      0.2558
      8  C5        26.5830  -10.5490  -11.7320 C.2   293  8HG293      0.2850
      9  N7        26.2050  -11.5260  -12.5530 N.2   293  8HG293     -0.3037
     10  C8        26.9800  -12.5730  -12.2690 C.1   293  8HG293      0.2771
     11  O20       26.9130  -13.6580  -12.8510 O.2   293  8HG293     -0.1925
     12  N9        27.8350  -12.2880  -11.2960 N.am  293  8HG293     -0.1521
     13  C1'       28.9060  -13.1760  -10.7830 C.3   293  8HG293      0.2115
     14  O4'       30.0480  -13.1680  -11.6550 O.3   293  8HG293     -0.3337
     15  C2'       28.4730  -14.6410  -10.6890 C.3   293  8HG293      0.0875
     16  C3'       29.8550  -15.2830  -10.6250 C.3   293  8HG293      0.1858
     17  O3'       30.4660  -15.0430   -9.3520 O.3   293  8HG293     -0.2203
     18  C4'       30.5710  -14.5110  -11.7280 C.3   293  8HG293      0.1802
     19  C5'       30.1870  -15.0670  -13.1030 C.3   293  8HG293      0.2141
     20  O5'       30.7960  -14.2650  -14.1160 O.3   293  8HG293     -0.2176
@<TRIPOS>BOND
     1    20    19    1
     2    19    18    1
     3    11    10    2
     4     9    10    2
     5     9     8    2
     6     1     2    2
     7    10    12   am
     8     8     2    1
     9     8     7    1
    10    18    14    1
    11    18    16    1
    12    14    13    1
    13     2     3    2
    14    12     7    1
    15    12    13    1
    16     7     6    2
    17    13    15    1
    18    15    16    1
    19    16    17    1
    20     3     4    2
    21     6     4    2
    22     4     5    1
