@<TRIPOS>MOLECULE
3f15_HS1_A_1.pdb
 22 22 0 0 0
SMALL
GASTEIGER

@<TRIPOS>ATOM
      1  N1        -1.9550   -5.0850   -3.7950 N.3     0  HS10       -0.1464
      2  C2        -4.9290   -6.6750   -6.9970 C.ar    0  HS10        0.0383
      3  N2        -1.6140   -2.1030   -5.3110 N.am    0  HS10       -0.2015
      4  C4        -4.7400   -5.8430   -8.1050 C.ar    0  HS10        0.1388
      5  C5        -2.5590   -5.1750   -7.2270 C.ar    0  HS10        0.0230
      6  C6        -1.6090   -5.9850   -1.3390 C.3     0  HS10        0.2024
      7  O1        -1.6050   -7.5090   -4.5700 O.2     0  HS10       -0.1528
      8  O2        -0.3230   -5.8060   -5.5920 O.2     0  HS10       -0.1528
      9  O3        -5.6780   -5.7400   -9.1140 O.3     0  HS10       -0.4714
     10  O4        -1.5030   -8.3040   -1.8940 O.3     0  HS10       -0.2175
     11  O7        -3.2590   -2.8540   -4.0040 O.2     0  HS10       -0.5381
     12  C9        -2.0750   -2.8940   -4.3480 C.2     0  HS10        0.1047
     13  O5        -2.4990   -1.1930   -5.8960 O.3     0  HS10       -0.4026
     14  C11       -1.1100   -3.8820   -3.7080 C.3     0  HS10        0.1467
     15  C8        -2.4980   -5.6870   -2.5450 C.3     0  HS10        0.1318
     16  O6        -0.8500   -4.8410   -0.9580 O.3     0  HS10       -0.2188
     17  C12       -0.6870   -7.1540   -1.6500 C.3     0  HS10        0.2162
     18  S1        -1.5910   -6.1300   -4.9960 S.O2    0  HS10        0.0637
     19  C3        -2.7440   -5.9980   -6.1110 C.ar    0  HS10        0.1224
     20  C7        -3.5520   -5.0970   -8.2130 C.ar    0  HS10        0.0383
     21  C10       -6.6590   -6.7570   -9.3570 C.3     0  HS10        0.2525
     22  C1        -3.9320   -6.7500   -6.0100 C.ar    0  HS10        0.0230
@<TRIPOS>BOND
     1    21     9    1
     2     9     4    1
     3    20     4   ar
     4    20     5   ar
     5     4     2   ar
     6     5    19   ar
     7     2    22   ar
     8    19    22   ar
     9    19    18    1
    10    13     3    1
    11     8    18    2
    12     3    12   am
    13    18     7    2
    14    18     1    1
    15    12    11    2
    16    12    14    1
    17     1    14    1
    18     1    15    1
    19    15     6    1
    20    10    17    1
    21    17     6    1
    22     6    16    1
