@<TRIPOS>MOLECULE
3f16_HS3_A_1.pdb
 19 19 0 0 0
SMALL
GASTEIGER

@<TRIPOS>ATOM
      1  O3        -4.0330   -3.1390   -4.2650 O.2     0  HS30       -0.5380
      2  C8        -2.8350   -3.2600   -4.3480 C.2     0  HS30        0.1072
      3  N1        -2.1170   -2.5480   -5.2300 N.am    0  HS30       -0.2014
      4  O6        -2.7970   -1.5770   -5.9840 O.3     0  HS30       -0.4026
      5  C9        -1.7820   -4.2410   -3.7640 C.3     0  HS30        0.1752
      6  C7        -1.3610   -4.0100   -2.4770 C.3     0  HS30        0.2077
      7  O4        -2.5240   -3.6340   -1.6980 O.3     0  HS30       -0.2183
      8  N2        -2.3020   -5.6730   -3.6680 N.3     0  HS30       -0.0701
      9  S1        -1.9000   -6.4430   -5.0230 S.O2    0  HS30        0.0772
     10  O1        -1.8310   -7.8360   -4.6690 O.2     0  HS30       -0.1516
     11  O2        -0.6020   -5.9870   -5.4460 O.2     0  HS30       -0.1516
     12  C3        -2.9500   -6.2610   -6.2420 C.ar    0  HS30        0.1238
     13  C6        -4.0980   -7.0610   -6.3130 C.ar    0  HS30        0.0231
     14  C5        -5.0090   -6.9350   -7.3650 C.ar    0  HS30        0.0383
     15  C4        -4.7760   -6.0080   -8.3880 C.ar    0  HS30        0.1388
     16  C2        -3.6300   -5.2120   -8.3300 C.ar    0  HS30        0.0383
     17  C1        -2.7210   -5.3390   -7.2740 C.ar    0  HS30        0.0231
     18  O5        -5.6410   -5.8620   -9.4510 O.3     0  HS30       -0.4714
     19  C10       -6.7410   -6.7420   -9.6840 C.3     0  HS30        0.2525
@<TRIPOS>BOND
     1    19    18    1
     2    18    15    1
     3    15    16   ar
     4    15    14   ar
     5    16    17   ar
     6    14    13   ar
     7    17    12   ar
     8    13    12   ar
     9    12     9    1
    10     4     3    1
    11    11     9    2
    12     3     2   am
    13     9    10    2
    14     9     8    1
    15     2     1    2
    16     2     5    1
    17     5     8    1
    18     5     6    1
    19     6     7    1
