@<TRIPOS>MOLECULE
3f17_HS4_A_1.pdb
 21 22 0 0 0
SMALL
GASTEIGER

@<TRIPOS>ATOM
      1  O4        -0.2930   -5.3680    5.1730 O.2     0  HS40       -0.1516
      2  S1         0.7070   -5.9110    4.2810 S.O2    0  HS40        0.0772
      3  O3         0.4190   -7.0990    3.6070 O.2     0  HS40       -0.1516
      4  N1         0.7600   -4.7210    3.2140 N.3     0  HS40       -0.0709
      5  C12        0.5100   -3.3290    3.4630 C.3     0  HS40        0.1662
      6  C14        1.6640   -2.6940    4.1890 C.2     0  HS40        0.1064
      7  O1         2.8140   -2.6850    3.7560 O.2     0  HS40       -0.5380
      8  N2         1.3410   -2.1240    5.3270 N.am    0  HS40       -0.2014
      9  O2         2.3260   -1.4820    6.0380 O.3     0  HS40       -0.4026
     10  C13        1.8640   -6.0310    5.3800 C.ar    0  HS40        0.1236
     11  C10        2.9560   -6.8100    4.9840 C.ar    0  HS40        0.0200
     12  C5         4.0380   -7.0280    5.8320 C.ar    0  HS40        0.0014
     13  C11        1.8870   -5.4460    6.6500 C.ar    0  HS40        0.0200
     14  C8         2.9740   -5.6630    7.5010 C.ar    0  HS40        0.0014
     15  C2         4.0660   -6.4360    7.0930 C.ar    0  HS40        0.0001
     16  C1         5.2040   -6.7240    8.0100 C.ar    0  HS40        0.0000
     17  C4         6.5320   -6.7750    7.6000 C.ar    0  HS40        0.0000
     18  C7         7.5390   -7.0950    8.5130 C.ar    0  HS40        0.0000
     19  C9         7.2220   -7.3960    9.8310 C.ar    0  HS40        0.0000
     20  C6         5.8940   -7.3770   10.2380 C.ar    0  HS40        0.0000
     21  C3         4.8940   -7.0580    9.3310 C.ar    0  HS40        0.0000
@<TRIPOS>BOND
     1     4     5    1
     2     4     2    1
     3     5     6    1
     4     3     2    2
     5     7     6    2
     6     6     8   am
     7     2     1    2
     8     2    10    1
     9    11    10   ar
    10    11    12   ar
    11     8     9    1
    12    10    13   ar
    13    12    15   ar
    14    13    14   ar
    15    15    14   ar
    16    15    16    1
    17    17    16   ar
    18    17    18   ar
    19    16    21   ar
    20    18    19   ar
    21    21    20   ar
    22    19    20   ar
