@<TRIPOS>MOLECULE
3f18_HS5_A_1.pdb
 19 19 0 0 0
SMALL
GASTEIGER

@<TRIPOS>ATOM
      1  O5       -12.8890   -7.3620  -20.2950 O.2     0  HS50       -0.1528
      2  S1       -13.1520   -6.1480  -19.5660 S.O2    0  HS50        0.0637
      3  O4       -14.4130   -5.7650  -18.9460 O.2     0  HS50       -0.1528
      4  N2       -13.1280   -5.3070  -20.8620 N.3     0  HS50       -0.1464
      5  C10      -13.4540   -3.8770  -20.8320 C.3     0  HS50        0.1467
      6  C9       -12.4370   -2.9860  -20.1520 C.2     0  HS50        0.1047
      7  O3       -11.2850   -2.8670  -20.5550 O.2     0  HS50       -0.5381
      8  N1       -12.8670   -2.3080  -19.0940 N.am    0  HS50       -0.2015
      9  O2       -11.9350   -1.5510  -18.4030 O.3     0  HS50       -0.4026
     10  C8       -12.9110   -5.9410  -22.1610 C.3     0  HS50        0.1317
     11  C6       -11.6870   -6.2990  -22.9950 C.3     0  HS50        0.2012
     12  O1       -11.7070   -7.7230  -23.1600 O.3     0  HS50       -0.2188
     13  C3       -11.9460   -6.0970  -18.4820 C.ar    0  HS50        0.1224
     14  C5       -12.1220   -5.3690  -17.2960 C.ar    0  HS50        0.0222
     15  C7       -11.1120   -5.3240  -16.3320 C.ar    0  HS50        0.0310
     16  C4        -9.9130   -6.0090  -16.5300 C.ar    0  HS50        0.1402
     17  F1        -8.9370   -5.9700  -15.6000 F       0  HS50       -0.2042
     18  C2        -9.7280   -6.7410  -17.7030 C.ar    0  HS50        0.0310
     19  C1       -10.7410   -6.7860  -18.6650 C.ar    0  HS50        0.0222
@<TRIPOS>BOND
     1    12    11    1
     2    11    10    1
     3    10     4    1
     4     4     5    1
     5     4     2    1
     6     5     6    1
     7     7     6    2
     8     1     2    2
     9     6     8   am
    10     2     3    2
    11     2    13    1
    12     8     9    1
    13    19    13   ar
    14    19    18   ar
    15    13    14   ar
    16    18    16   ar
    17    14    15   ar
    18    16    15   ar
    19    16    17    1
