@<TRIPOS>MOLECULE
3f19_HS6_A_1.pdb
 16 16 0 0 0
SMALL
GASTEIGER

@<TRIPOS>ATOM
      1  O4       -12.9780   -7.5960  -20.0250 O.2     0  HS60       -0.1516
      2  S1       -12.9230   -6.2390  -19.5440 S.O2    0  HS60        0.0772
      3  O3       -14.1240   -5.8720  -18.8490 O.2     0  HS60       -0.1516
      4  N1       -12.7500   -5.2670  -20.8100 N.3     0  HS60       -0.0709
      5  C6       -13.3220   -3.9340  -20.8330 C.3     0  HS60        0.1662
      6  C8       -12.3690   -2.9560  -20.2060 C.2     0  HS60        0.1064
      7  O2       -11.2230   -2.8560  -20.6180 O.2     0  HS60       -0.5380
      8  N2       -12.8300   -2.2370  -19.1900 N.am    0  HS60       -0.2014
      9  O1       -11.9550   -1.3660  -18.5540 O.3     0  HS60       -0.4026
     10  C3       -11.7010   -6.1350  -18.4930 C.ar    0  HS60        0.1237
     11  C1       -10.5230   -6.8620  -18.7060 C.ar    0  HS60        0.0223
     12  C5       -11.8020   -5.3490  -17.3350 C.ar    0  HS60        0.0223
     13  C7       -10.7460   -5.2850  -16.4220 C.ar    0  HS60        0.0310
     14  C4        -9.5760   -6.0130  -16.6540 C.ar    0  HS60        0.1402
     15  F1        -8.5510   -5.9650  -15.7780 F       0  HS60       -0.2042
     16  C2        -9.4640   -6.8000  -17.7970 C.ar    0  HS60        0.0310
@<TRIPOS>BOND
     1     5     4    1
     2     5     6    1
     3     4     2    1
     4     7     6    2
     5     6     8   am
     6     1     2    2
     7     2     3    2
     8     2    10    1
     9     8     9    1
    10    11    10   ar
    11    11    16   ar
    12    10    12   ar
    13    16    14   ar
    14    12    13   ar
    15    14    13   ar
    16    14    15    1
