@<TRIPOS>MOLECULE
3f1a_HS7_A_1.pdb
 15 15 0 0 0
SMALL
GASTEIGER

@<TRIPOS>ATOM
      1  O3        -3.2280   -2.8730   -4.0420 O.2     0  HS70       -0.5380
      2  C7        -2.0720   -2.9710   -4.4410 C.2     0  HS70        0.1064
      3  N2        -1.6250   -2.2740   -5.4770 N.am    0  HS70       -0.2014
      4  O4        -2.5160   -1.4250   -6.1220 O.3     0  HS70       -0.4026
      5  C8        -1.0770   -3.8840   -3.7680 C.3     0  HS70        0.1662
      6  N1        -1.5600   -5.2490   -3.7800 N.3     0  HS70       -0.0709
      7  S1        -1.3690   -6.1880   -5.0640 S.O2    0  HS70        0.0772
      8  O1        -0.1670   -5.8050   -5.7600 O.2     0  HS70       -0.1516
      9  O2        -1.3210   -7.5460   -4.6010 O.2     0  HS70       -0.1516
     10  C3        -2.6150   -6.0230   -6.0660 C.ar    0  HS70        0.1236
     11  C1        -2.4580   -5.4100   -7.3150 C.ar    0  HS70        0.0200
     12  C6        -3.8770   -6.5050   -5.7080 C.ar    0  HS70        0.0200
     13  C5        -4.9650   -6.3790   -6.5770 C.ar    0  HS70        0.0014
     14  C4        -4.7910   -5.7730   -7.8210 C.ar    0  HS70        0.0001
     15  C2        -3.5370   -5.2870   -8.1890 C.ar    0  HS70        0.0014
@<TRIPOS>BOND
     1    15    14   ar
     2    15    11   ar
     3    14    13   ar
     4    11    10   ar
     5    13    12   ar
     6     4     3    1
     7    10    12   ar
     8    10     7    1
     9     8     7    2
    10     3     2   am
    11     7     9    2
    12     7     6    1
    13     2     1    2
    14     2     5    1
    15     6     5    1
