@<TRIPOS>MOLECULE
3f1j_C5P_A_1.pdb
 21 22 0 0 0
SMALL
GASTEIGER

@<TRIPOS>ATOM
      1  O3P        4.4180   44.1750   -0.2420 O.3   300  C5P300     -0.1145
      2  P          3.8740   42.7490   -0.2710 P.3   300  C5P300      0.5327
      3  O1P        2.5650   42.6520   -1.0440 O.2   300  C5P300     -0.2224
      4  O2P        4.9190   41.7110   -0.6700 O.3   300  C5P300     -0.1145
      5  O5'        3.4750   42.3780    1.2640 O.3   300  C5P300     -0.2675
      6  C5'        3.5310   41.0170    1.7430 C.3   300  C5P300      0.1859
      7  C4'        4.1080   40.9920    3.1360 C.3   300  C5P300      0.1801
      8  O4'        5.4800   41.4610    3.0810 O.3   300  C5P300     -0.3320
      9  C3'        3.4420   41.9470    4.1140 C.3   300  C5P300      0.2158
     10  O3'        2.2240   41.4430    4.6700 O.3   300  C5P300     -0.2175
     11  C2'        4.5340   42.1650    5.1490 C.3   300  C5P300      0.2319
     12  O2'        4.6310   41.0800    6.0530 O.3   300  C5P300     -0.2157
     13  C1'        5.7840   42.1720    4.2680 C.3   300  C5P300      0.2400
     14  N1         6.3080   43.5030    3.9130 N.am  300  C5P300     -0.1778
     15  C2         6.8860   44.2790    4.9170 C.1   300  C5P300      0.2756
     16  N3         7.4580   45.4590    4.5980 N.2   300  C5P300     -0.3024
     17  C4         7.4460   45.8860    3.3360 C.2   300  C5P300      0.2346
     18  C5         6.8180   45.1400    2.2970 C.2   300  C5P300      0.0687
     19  C6         6.2650   43.9630    2.6270 C.2   300  C5P300      0.0836
     20  O2         6.8530   43.8680    6.0790 O.2   300  C5P300     -0.1925
     21  N4         8.0530   47.0410    3.0680 N.pl3 300  C5P300     -0.0921
@<TRIPOS>BOND
     1     3     2    2
     2     4     2    1
     3     2     1    1
     4     2     5    1
     5     5     6    1
     6     6     7    1
     7    18    19    2
     8    18    17    1
     9    19    14    1
    10    21    17    1
    11     8     7    1
    12     8    13    1
    13     7     9    1
    14    17    16    2
    15    14    13    1
    16    14    15   am
    17     9    10    1
    18     9    11    1
    19    13    11    1
    20    16    15    2
    21    15    20    2
    22    11    12    1
