@<TRIPOS>MOLECULE
3f1k_NAP_A_1.pdb
 48 52 0 0 0
SMALL
GASTEIGER

@<TRIPOS>ATOM
      1  PA        35.9710   22.4720   36.4160 P.3   300  NAP300      0.2189
      2  O1A       36.1600   22.1700   37.8550 O.3   300  NAP300     -0.4371
      3  O2A       37.0690   21.9290   35.5830 O.2   300  NAP300     -0.5170
      4  O5B       35.7130   24.0460   36.1850 O.3   300  NAP300     -0.3112
      5  C5B       34.5040   24.4450   35.5510 C.3   300  NAP300      0.1813
      6  C4B       34.7420   25.3890   34.3710 C.3   300  NAP300      0.1820
      7  O4B       33.9630   26.5670   34.5300 O.3   300  NAP300     -0.3136
      8  C3B       36.2090   25.8150   34.2360 C.3   300  NAP300      0.2157
      9  O3B       36.7780   25.4300   32.9940 O.3   300  NAP300     -0.2175
     10  C2B       36.1780   27.3270   34.3760 C.3   300  NAP300      0.2314
     11  O2B       37.1180   27.9780   33.5260 O.3   300  NAP300     -0.2630
     12  C1B       34.7180   27.6550   34.0490 C.3   300  NAP300      0.3158
     13  N9A       34.3960   28.9470   34.6630 N.pl3 300  NAP300     -0.1439
     14  C8A       34.2080   29.2250   35.9940 C.3   300  NAP300      0.3377
     15  N7A       33.9700   30.5490   36.1170 N.2   300  NAP300     -0.2095
     16  C5A       34.0190   31.1090   34.8820 C.2   300  NAP300      0.2526
     17  C6A       33.8590   32.4120   34.4360 C.2   300  NAP300      0.4393
     18  N6A       33.6010   33.3730   35.3180 N.pl3 300  NAP300      0.2180
     19  N1A       33.9730   32.6860   33.0790 N.2   300  NAP300      0.0021
     20  C2A       34.2450   31.6780   32.1670 C.3   300  NAP300      0.5254
     21  N3A       34.4050   30.3820   32.6210 N.2   300  NAP300     -0.0055
     22  C4A       34.2930   30.1120   33.9530 C.2   300  NAP300      0.3518
     23  O3        34.5470   21.9620   35.8780 O.3   300  NAP300     -0.2703
     24  PN        33.8080   20.5470   35.7330 P.3   300  NAP300      0.2189
     25  O1N       34.0230   19.7440   36.9660 O.3   300  NAP300     -0.4371
     26  O2N       34.1150   20.0700   34.3650 O.2   300  NAP300     -0.5170
     27  O5D       32.2810   21.0450   35.7710 O.3   300  NAP300     -0.3112
     28  C5D       31.5800   21.4260   34.6090 C.3   300  NAP300      0.1813
     29  C4D       30.1080   21.4460   34.9740 C.3   300  NAP300      0.1799
     30  O4D       29.8390   20.2450   35.6600 O.3   300  NAP300     -0.3327
     31  C3D       29.7360   22.5760   35.9430 C.3   300  NAP300      0.2158
     32  O3D       28.7460   23.4330   35.3890 O.3   300  NAP300     -0.2175
     33  C2D       29.2100   21.8450   37.1690 C.3   300  NAP300      0.2309
     34  O2D       28.1100   22.5250   37.7290 O.3   300  NAP300     -0.2158
     35  C1D       28.8290   20.4730   36.6210 C.3   300  NAP300      0.2263
     36  N1N       28.8070   19.4060   37.6470 N.pl3 300  NAP300     -0.2787
     37  C2N       29.8060   18.4670   37.6680 C.3   300  NAP300      0.1244
     38  C3N       29.8220   17.4490   38.6170 C.2   300  NAP300      0.0544
     39  C7N       31.1480   16.8200   38.9570 C.2   300  NAP300      0.2818
     40  O7N       31.2920   16.1350   40.1830 O.2   300  NAP300     -0.2670
     41  N7N       32.1590   16.9230   38.0950 N.am  300  NAP300     -0.0839
     42  C4N       28.7780   17.3830   39.5420 C.2   300  NAP300      0.0033
     43  C5N       27.7520   18.3280   39.5170 C.2   300  NAP300      0.0157
     44  C6N       27.7770   19.3380   38.5540 C.2   300  NAP300      0.0633
     45  P2B       38.6170   28.3860   34.0300 P.3   300  NAP300      0.5328
     46  O1X       39.2100   29.3850   33.0610 O.2   300  NAP300     -0.2224
     47  O2X       39.5130   27.1570   34.0930 O.3   300  NAP300     -0.1145
     48  O3X       38.5500   29.0460   35.3930 O.3   300  NAP300     -0.1145
@<TRIPOS>BOND
     1    20    21    1
     2    20    19    1
     3    21    22    2
     4     9     8    1
     5    46    45    2
     6    19    17    2
     7    11    45    1
     8    11    10    1
     9    22    13    1
    10    22    16    1
    11    45    47    1
    12    45    48    1
    13    12    10    1
    14    12     7    1
    15    12    13    1
    16     8     6    1
    17     8    10    1
    18    26    24    2
    19     6     7    1
    20     6     5    1
    21    17    16    1
    22    17    18    1
    23    28    29    1
    24    28    27    1
    25    13    14    1
    26    16    15    2
    27    29    30    1
    28    29    31    1
    29    32    31    1
    30     5     4    1
    31     3     1    2
    32    30    35    1
    33    24    27    1
    34    24    23    1
    35    24    25    1
    36    23     1    1
    37    31    33    1
    38    14    15    1
    39     4     1    1
    40     1     2    1
    41    35    33    1
    42    35    36    1
    43    33    34    1
    44    36    37    1
    45    36    44    1
    46    37    38    1
    47    41    39   am
    48    44    43    2
    49    38    39    1
    50    38    42    2
    51    39    40    2
    52    43    42    1
