@<TRIPOS>MOLECULE
3f1n_EDO_A_1.pdb
 10 9 0 0 0
SMALL
GASTEIGER

@<TRIPOS>ATOM
      1  C1        16.4160  -42.4430   10.3060 C.3     1  EDO1        0.0673
      2  O1        16.1010  -41.2920    9.5210 O.3     1  EDO1       -0.3928
      3  C2        15.3250  -42.7660   11.2760 C.3     1  EDO1        0.0673
      4  O2        14.1830  -43.1990   10.5820 O.3     1  EDO1       -0.3928
      5  H11       17.3290  -42.2570   10.8530 H       1  EDO1        0.0580
      6  H12       16.5650  -43.2870    9.6500 H       1  EDO1        0.0580
      7  HO1       16.6280  -41.3410    8.5800 H       1  EDO1        0.2095
      8  H21       15.0830  -41.8830   11.8500 H       1  EDO1        0.0580
      9  H22       15.6570  -43.5470   11.9430 H       1  EDO1        0.0580
     10  HO2       14.2910  -44.2420   10.3260 H       1  EDO1        0.2095
@<TRIPOS>BOND
     1     7     2    1
     2     2     1    1
     3     6     1    1
     4     1     5    1
     5     1     3    1
     6    10     4    1
     7     4     3    1
     8     3     8    1
     9     3     9    1
