@<TRIPOS>MOLECULE
3f1o_2XY_A_1.pdb
 20 21 0 0 0
SMALL
GASTEIGER

@<TRIPOS>ATOM
      1  C4        15.8780  -40.8010   11.4350 C.3     1  2XY1        0.1259
      2  C1        15.2700  -43.1360   11.1800 C.3     1  2XY1        0.1259
      3  C2        16.6100  -43.3720   10.4840 C.3     1  2XY1        0.1613
      4  O2        10.0100  -40.8790   13.2180 O.2     1  2XY1       -0.1261
      5  C3        17.2370  -41.1340   10.8340 C.3     1  2XY1        0.1613
      6  O3        12.0270  -40.9270   13.2630 O.2     1  2XY1       -0.1261
      7  C5        12.5250  -41.4560   10.5980 C.ar    1  2XY1        0.1062
      8  O1        17.5850  -42.4810   10.9850 O.3     1  2XY1       -0.3507
      9  N1        14.9090  -41.7650   10.9800 N.3     1  2XY1       -0.1819
     10  N2        13.6320  -41.4930   11.5150 N.pl3   1  2XY1       -0.1621
     11  C6        12.7200  -41.6410    9.2920 C.ar    1  2XY1        0.0193
     12  C7        11.5040  -41.6970    8.3930 C.ar    1  2XY1        0.0053
     13  C8        10.3020  -41.5430    8.9300 C.ar    1  2XY1        0.0732
     14  C9         9.0510  -41.5710    8.0690 C.3     1  2XY1        0.4186
     15  F2         8.0880  -40.7950    8.6430 F       1  2XY1       -0.1659
     16  F3         8.6250  -42.8490    7.9050 F       1  2XY1       -0.1659
     17  F1         9.3190  -41.0400    6.8770 F       1  2XY1       -0.1659
     18  C10       10.0960  -41.3050   10.4220 C.ar    1  2XY1        0.0293
     19  C11       11.1480  -41.2790   11.2010 C.ar    1  2XY1        0.1591
     20  N3        11.0370  -41.1000   12.6540 N.pl3   1  2XY1        0.0590
@<TRIPOS>BOND
     1    17    14    1
     2    16    14    1
     3    14    15    1
     4    14    13    1
     5    12    13   ar
     6    12    11   ar
     7    13    18   ar
     8    11     7   ar
     9    18    19   ar
    10     3     8    1
    11     3     2    1
    12     7    19   ar
    13     7    10    1
    14     5     8    1
    15     5     1    1
    16     9     2    1
    17     9     1    1
    18     9    10    1
    19    19    20    1
    20    20     4    2
    21    20     6    2
