@<TRIPOS>MOLECULE
3f1q_BCE_A_1.pdb
 21 22 0 0 0
SMALL
GASTEIGER

@<TRIPOS>ATOM
      1  CAI        8.1110  -31.4940   -2.3240 C.ar  397  BCE397      0.0000
      2  CAG        9.0940  -30.5120   -2.1690 C.ar  397  BCE397      0.0000
      3  CAF        9.8260  -30.4130   -0.9850 C.ar  397  BCE397      0.0000
      4  CAH        9.5760  -31.3030    0.0610 C.ar  397  BCE397      0.0000
      5  CAJ        8.5910  -32.2770   -0.0950 C.ar  397  BCE397      0.0000
      6  CAT        7.8280  -32.3620   -1.2690 C.ar  397  BCE397      0.0000
      7  CAU        6.9100  -33.4140   -1.3560 C.ar  397  BCE397      0.0001
      8  CAN        6.1310  -33.8160   -0.2590 C.ar  397  BCE397      0.0013
      9  CAL        5.2820  -34.9230   -0.3790 C.ar  397  BCE397      0.0166
     10  CAM        6.8570  -34.1600   -2.5370 C.ar  397  BCE397      0.0013
     11  CAK        6.0050  -35.2590   -2.6530 C.ar  397  BCE397      0.0166
     12  CAS        5.2110  -35.6500   -1.5740 C.ar  397  BCE397      0.0737
     13  NAO        4.4140  -36.7340   -1.6440 N.am  397  BCE397     -0.1748
     14  CAQ        3.8400  -37.2270   -2.7500 C.2   397  BCE397      0.2815
     15  OAC        3.9180  -36.7140   -3.8680 O.2   397  BCE397     -0.2672
     16  CAR        2.9980  -38.4970   -2.5580 C.2   397  BCE397      0.1581
     17  CAE        2.3320  -39.0460   -3.6980 C.1   397  BCE397      0.1080
     18  NAB        1.7970  -39.4840   -4.6040 N.1   397  BCE397     -0.1906
     19  CAP        2.8460  -39.1760   -1.1940 C.2   397  BCE397      0.1876
     20  CAA        2.0010  -40.4450   -1.0390 C.3   397  BCE397      0.0782
     21  OAD        3.4710  -38.6550   -0.1080 O.2   397  BCE397     -0.2905
@<TRIPOS>BOND
     1    18    17    3
     2    15    14    2
     3    17    16    1
     4    14    16    1
     5    14    13   am
     6    11    10   ar
     7    11    12   ar
     8    16    19    2
     9    10     7   ar
    10     1     2   ar
    11     1     6   ar
    12     2     3   ar
    13    13    12    1
    14    12     9   ar
    15     7     6    1
    16     7     8   ar
    17     6     5   ar
    18    19    20    1
    19    19    21    1
    20     3     4   ar
    21     9     8   ar
    22     5     4   ar
