@<TRIPOS>MOLECULE
3f1q_FMN_A_1.pdb
 31 33 0 0 0
SMALL
GASTEIGER

@<TRIPOS>ATOM
      1  N1        -3.6180  -42.4570    8.7190 N.2   398  FMN398     -0.2887
      2  C2        -3.2290  -43.1460    9.8480 C.1   398  FMN398      0.3669
      3  O2        -3.8580  -42.9740   10.8860 O.2   398  FMN398     -0.1744
      4  N3        -2.1450  -44.0150    9.8050 N.2   398  FMN398     -0.2300
      5  C4        -1.4330  -44.1870    8.6260 C.1   398  FMN398      0.2513
      6  O4        -0.3610  -44.8020    8.6380 O.2   398  FMN398     -0.2057
      7  C4A       -1.8270  -43.4880    7.4790 C.2   398  FMN398      0.2703
      8  N5        -1.1530  -43.6470    6.2810 N.2   398  FMN398     -0.3882
      9  C5A       -1.5380  -42.9490    5.1490 C.2   398  FMN398      0.1277
     10  C6        -0.8360  -43.0940    3.9460 C.3   398  FMN398      0.0820
     11  C7        -1.2240  -42.3800    2.8080 C.2   398  FMN398     -0.0408
     12  C7M       -0.3530  -42.4190    1.5800 C.3   398  FMN398      0.0265
     13  C8        -2.3150  -41.5010    2.8780 C.2   398  FMN398     -0.0280
     14  C8M       -2.5790  -40.4850    1.8010 C.3   398  FMN398      0.0304
     15  C9        -3.0060  -41.3600    4.0780 C.2   398  FMN398      0.0123
     16  C9A       -2.6230  -42.0710    5.2140 C.2   398  FMN398      0.0793
     17  N10       -3.3160  -41.9170    6.4070 N.pl3 398  FMN398     -0.2545
     18  C10       -2.9240  -42.6180    7.5380 C.2   398  FMN398      0.2449
     19  C1'       -4.5800  -41.1180    6.4460 C.3   398  FMN398      0.1336
     20  C2'       -4.2900  -39.6410    6.7160 C.3   398  FMN398      0.2048
     21  O2'       -3.6400  -39.5100    7.9600 O.3   398  FMN398     -0.2185
     22  C3'       -5.5790  -38.8020    6.7040 C.3   398  FMN398      0.2165
     23  O3'       -6.4480  -39.2370    7.7370 O.3   398  FMN398     -0.2175
     24  C4'       -6.3150  -38.8840    5.3550 C.3   398  FMN398      0.2147
     25  O4'       -5.4070  -39.0810    4.2780 O.3   398  FMN398     -0.2176
     26  C5'       -7.1830  -37.6490    5.1020 C.3   398  FMN398      0.1892
     27  O5'       -6.4040  -36.4750    5.0210 O.3   398  FMN398     -0.2674
     28  P         -5.9410  -35.8240    3.6090 P.3   398  FMN398      0.5327
     29  O1P       -4.8580  -36.6860    3.0230 O.3   398  FMN398     -0.1145
     30  O2P       -5.4030  -34.4400    3.8830 O.3   398  FMN398     -0.1145
     31  O3P       -7.1190  -35.7930    2.6600 O.2   398  FMN398     -0.2224
@<TRIPOS>BOND
     1    12    11    1
     2    14    13    1
     3    31    28    2
     4    11    13    2
     5    11    10    1
     6    13    15    1
     7    29    28    1
     8    28    30    1
     9    28    27    1
    10    10     9    1
    11    15    16    2
    12    25    24    1
    13    27    26    1
    14    26    24    1
    15     9    16    1
    16     9     8    2
    17    16    17    1
    18    24    22    1
    19     8     7    2
    20    17    19    1
    21    17    18    1
    22    19    20    1
    23    22    20    1
    24    22    23    1
    25    20    21    1
    26     7    18    1
    27     7     5    1
    28    18     1    2
    29     5     6    2
    30     5     4    2
    31     1     2    2
    32     4     2    2
    33     2     3    2
