@<TRIPOS>MOLECULE
3f28_S7B_A_1.pdb
 16 17 0 0 0
SMALL
GASTEIGER

@<TRIPOS>ATOM
      1  C1       -10.4320   39.6090    4.9010 C.ar  5000  S7B5000     0.1140
      2  C16      -10.5460   40.8300    5.5740 C.ar  5000  S7B5000     0.0096
      3  C15      -10.5370   42.0380    4.8530 C.ar  5000  S7B5000     0.0001
      4  C14      -10.3410   42.0240    3.4630 C.ar  5000  S7B5000    -0.0012
      5  C12      -10.2330   40.7950    2.7910 C.ar  5000  S7B5000     0.0130
      6  C13      -10.0860   40.7140    1.2640 C.3   5000  S7B5000     0.0342
      7  C5       -10.2830   39.5920    3.5080 C.ar  5000  S7B5000     0.1507
      8  O6       -10.1500   38.4000    2.7780 O.3   5000  S7B5000    -0.4242
      9  C7        -8.9300   37.8370    2.8700 C.2   5000  S7B5000     0.3209
     10  O11       -8.1260   38.1520    3.7350 O.2   5000  S7B5000    -0.2497
     11  C8        -8.5740   36.7470    1.9090 C.3   5000  S7B5000     0.0995
     12  C10       -8.7720   36.9710    0.4060 C.3   5000  S7B5000     0.0117
     13  C9        -9.7910   36.1270    1.2280 C.3   5000  S7B5000     0.0117
     14  C2       -10.4750   38.3290    5.7190 C.2   5000  S7B5000     0.3907
     15  O4        -9.7580   38.2090    6.7400 O.co2 5000  S7B5000    -0.2404
     16  O3       -11.2010   37.3710    5.3340 O.co2 5000  S7B5000    -0.2404
@<TRIPOS>BOND
     1    12    13    1
     2    12    11    1
     3    13    11    1
     4     6     5    1
     5    11     9    1
     6     8     9    1
     7     8     7    1
     8     5     4   ar
     9     5     7   ar
    10     9    10    2
    11     4     3   ar
    12     7     1   ar
    13     3     2   ar
    14     1     2   ar
    15     1    14    1
    16    16    14   ar
    17    14    15   ar
