@<TRIPOS>MOLECULE
3f29_HEC_A_1.pdb
 43 50 0 0 0
SMALL
GASTEIGER

@<TRIPOS>ATOM
      1 FE         35.5500   25.0000  149.4920 Fe    1004  HEC1004     0.0000
      2  CHA       36.3590   28.0960  148.3940 C.2   1004  HEC1004     0.0000
      3  CHB       38.0240   23.6240  147.5140 C.2   1004  HEC1004     0.0000
      4  CHC       34.8070   21.9570  150.6920 C.2   1004  HEC1004     0.0000
      5  CHD       32.7130   26.2960  151.0910 C.2   1004  HEC1004     0.0000
      6  NA        36.9290   25.6960  148.2050 N.ar  1004  HEC1004     0.0000
      7  C1A       37.0570   27.0360  147.8660 C.ar  1004  HEC1004     0.0000
      8  C2A       38.0830   27.1540  146.8540 C.ar  1004  HEC1004     0.0000
      9  C3A       38.5340   25.9210  146.5980 C.ar  1004  HEC1004     0.0000
     10  C4A       37.8320   24.9830  147.4470 C.ar  1004  HEC1004     0.0000
     11  CMA       39.6400   25.5730  145.5890 C.3   1004  HEC1004     0.0000
     12  CAA       38.5520   28.4760  146.1930 C.3   1004  HEC1004     0.0000
     13  CBA       39.5470   29.2280  147.0970 C.3   1004  HEC1004     0.0000
     14  CGA       40.7610   28.3940  147.4560 C.2   1004  HEC1004     0.0000
     15  O1A       41.6160   28.1430  146.5780 O.co2 1004  HEC1004     0.0000
     16  O2A       40.8980   27.9750  148.6320 O.co2 1004  HEC1004     0.0000
     17  NB        36.2610   23.1090  149.1160 N.2   1004  HEC1004     0.0000
     18  C1B       37.3900   22.7790  148.4080 C.2   1004  HEC1004     0.0000
     19  C2B       37.7950   21.4310  148.7810 C.2   1004  HEC1004     0.0000
     20  C3B       36.8870   20.9470  149.6530 C.2   1004  HEC1004     0.0000
     21  C4B       35.9210   22.0200  149.8850 C.2   1004  HEC1004     0.0000
     22  CMB       39.0020   20.7140  148.1340 C.3   1004  HEC1004     0.0000
     23  CAB       36.8400   19.5290  150.3210 C.3   1004  HEC1004     0.0000
     24  CBB       38.1080   19.2410  151.1660 C.3   1004  HEC1004     0.0000
     25  NC        34.0190   24.2910  150.6780 N.ar  1004  HEC1004     0.0000
     26  C1C       33.9180   22.9550  151.0250 C.ar  1004  HEC1004     0.0000
     27  C2C       32.8050   22.8090  151.9420 C.ar  1004  HEC1004     0.0000
     28  C3C       32.1380   23.9860  151.9610 C.ar  1004  HEC1004     0.0000
     29  C4C       32.9480   24.9460  151.2300 C.ar  1004  HEC1004     0.0000
     30  CMC       32.2540   21.4230  152.4010 C.3   1004  HEC1004     0.0000
     31  CAC       30.7800   24.2900  152.6570 C.3   1004  HEC1004     0.0000
     32  CBC       30.7610   24.1050  154.1950 C.3   1004  HEC1004     0.0000
     33  ND        34.6840   26.8650  149.6960 N.2   1004  HEC1004     0.0000
     34  C1D       33.5530   27.1790  150.4500 C.2   1004  HEC1004     0.0000
     35  C2D       33.3770   28.6120  150.4810 C.2   1004  HEC1004     0.0000
     36  C3D       34.5150   29.1870  149.6630 C.2   1004  HEC1004     0.0000
     37  C4D       35.2600   28.0340  149.2040 C.2   1004  HEC1004     0.0000
     38  CMD       32.2690   29.4030  151.2030 C.3   1004  HEC1004     0.0000
     39  CAD       34.7380   30.7060  149.3970 C.3   1004  HEC1004     0.0000
     40  CBD       35.3090   31.4410  150.6170 C.3   1004  HEC1004     0.0000
     41  CGD       36.7880   31.1750  150.8330 C.2   1004  HEC1004     0.0000
     42  O1D       37.4820   30.6670  149.9260 O.co2 1004  HEC1004     0.0000
     43  O2D       37.2990   31.4940  151.9340 O.co2 1004  HEC1004     0.0000
@<TRIPOS>BOND
     1    11     9    1
     2    12     8    1
     3    12    13    1
     4    15    14   ar
     5     9     8   ar
     6     9    10   ar
     7     8     7   ar
     8    13    14    1
     9    10     3    2
    10    10     6   ar
    11    14    16   ar
    12     3    18    1
    13     7     6   ar
    14     7     2    2
    15    22    19    1
    16     6     1    1
    17     2    37    1
    18    18    19    1
    19    18    17    2
    20    19    20    2
    21    17     1    1
    22    17    21    1
    23    37    36    1
    24    37    33    2
    25    39    36    1
    26    39    40    1
    27     1    33    1
    28     1    25    1
    29    20    21    1
    30    20    23    1
    31    36    35    2
    32    33    34    1
    33    21     4    2
    34    42    41   ar
    35    23    24    1
    36    34    35    1
    37    34     5    2
    38    35    38    1
    39    40    41    1
    40    25    26   ar
    41    25    29   ar
    42     4    26    1
    43    41    43   ar
    44    26    27   ar
    45     5    29    1
    46    29    28   ar
    47    27    28   ar
    48    27    30    1
    49    28    31    1
    50    31    32    1
