@<TRIPOS>MOLECULE
3f2a_985_A_1.pdb
 25 27 0 0 0
SMALL
GASTEIGER

@<TRIPOS>ATOM
      1  C1        73.3120   36.8670    2.3800 C.2     1  9851        0.1513
      2  N2        73.9550   35.7990    3.0270 N.2     1  9851       -0.3879
      3  C3        74.0510   35.6590    4.3900 C.2     1  9851        0.1849
      4  C4        73.4500   36.6740    5.1930 C.3     1  9851        0.1998
      5  N5        72.8280   37.7060    4.5700 N.2     1  9851       -0.2571
      6  C6        72.7300   37.8510    3.2270 C.2     1  9851        0.1257
      7  N1        74.7200   34.5550    4.9160 N.pl3   1  9851       -0.2840
      8  C2        75.6310   33.7940    4.0240 C.3     1  9851        0.1102
      9  C11       75.0250   32.4830    3.4600 C.3     1  9851        0.0939
     10  N3        73.7600   32.0960    4.1430 N.3     1  9851       -0.2700
     11  C5        74.0560   31.7080    5.5420 C.3     1  9851        0.0739
     12  C14       73.7190   32.8540    6.5160 C.3     1  9851        0.0388
     13  C7        74.5730   34.1330    6.3410 C.3     1  9851        0.0944
     14  C8        73.1670   30.9460    3.4390 C.3     1  9851        0.0897
     15  C10       73.1610   36.8120   -2.0030 C.ar    1  9851        0.0000
     16  C16       72.9670   38.0650   -1.3260 C.ar    1  9851        0.0001
     17  C12       73.0170   38.1010    0.1070 C.ar    1  9851        0.0026
     18  C13       73.2600   36.9040    0.8740 C.ar    1  9851        0.0312
     19  C17       73.4510   35.6720    0.1690 C.ar    1  9851        0.0026
     20  C15       73.4050   35.6140   -1.2590 C.ar    1  9851        0.0003
     21  C18       73.6000   34.3320   -1.9840 C.2     1  9851        0.0068
     22  C19       74.1240   33.1950   -1.4270 C.2     1  9851        0.0861
     23  C9        74.2780   31.9400   -2.2050 C.2     1  9851        0.3880
     24  O1        74.9620   31.0730   -1.7560 O.co2   1  9851       -0.2405
     25  O2        73.6240   31.8170   -3.3860 O.co2   1  9851       -0.2405
@<TRIPOS>BOND
     1    25    23   ar
     2    23    24   ar
     3    23    22    1
     4    15    16   ar
     5    15    20   ar
     6    21    22    2
     7    21    20    1
     8    16    17   ar
     9    20    19   ar
    10    17    18   ar
    11    19    18   ar
    12    18     1    1
    13     1     2    2
    14     1     6    1
    15     2     3    2
    16     6     5    2
    17    14    10    1
    18     9     8    1
    19     9    10    1
    20     8     7    1
    21    10    11    1
    22     3     7    1
    23     3     4    1
    24     5     4    1
    25     7    13    1
    26    11    12    1
    27    13    12    1
