@<TRIPOS>MOLECULE
3f2b_DGT_A_1.pdb
 31 33 0 0 0
SMALL
GASTEIGER

@<TRIPOS>ATOM
      1  PG        51.7300   29.0050  -28.2120 P.3   1456  DGT1456     0.5373
      2  O1G       51.8660   27.6830  -28.8810 O.2   1456  DGT1456    -0.2221
      3  O2G       50.5190   29.7850  -28.6810 O.3   1456  DGT1456    -0.1143
      4  O3G       52.9940   29.8510  -28.2060 O.3   1456  DGT1456    -0.1143
      5  O3B       51.5420   28.6950  -26.6320 O.3   1456  DGT1456    -0.2258
      6  PB        50.3840   29.3560  -25.7010 P.3   1456  DGT1456     0.2277
      7  O1B       50.0950   30.7840  -26.0660 O.2   1456  DGT1456    -0.5168
      8  O2B       50.6030   28.9830  -24.2700 O.3   1456  DGT1456    -0.4368
      9  O3A       49.1230   28.4730  -26.1770 O.3   1456  DGT1456    -0.2700
     10  PA        47.6750   28.9740  -26.6770 P.3   1456  DGT1456     0.2189
     11  O1A       46.8390   27.7340  -26.7850 O.3   1456  DGT1456    -0.4371
     12  O2A       47.7090   30.0030  -27.7680 O.2   1456  DGT1456    -0.5170
     13  O5'       47.0330   29.9020  -25.5460 O.3   1456  DGT1456    -0.3112
     14  C5'       46.8420   29.2960  -24.3270 C.3   1456  DGT1456     0.1812
     15  C4'       47.0210   30.3930  -23.3380 C.3   1456  DGT1456     0.1772
     16  O4'       45.7540   30.3680  -22.6940 O.3   1456  DGT1456    -0.3347
     17  C3'       48.0400   29.7450  -22.4050 C.3   1456  DGT1456     0.1857
     18  O3'       49.2690   30.4730  -22.3320 O.3   1456  DGT1456    -0.2203
     19  C2'       47.2940   29.5980  -21.0970 C.3   1456  DGT1456     0.0865
     20  C1'       45.8190   29.6130  -21.4990 C.3   1456  DGT1456     0.1981
     21  N9        45.5760   28.1630  -21.6520 N.pl3 1456  DGT1456    -0.2374
     22  C8        45.7490   27.4020  -22.7520 C.3   1456  DGT1456     0.2245
     23  N7        45.4760   26.1020  -22.4420 N.2   1456  DGT1456    -0.2322
     24  C5        45.1470   26.0200  -21.1430 C.2   1456  DGT1456     0.2182
     25  C6        44.7920   24.9500  -20.1960 C.1   1456  DGT1456     0.2372
     26  O6        44.7090   23.7550  -20.5760 O.2   1456  DGT1456    -0.2069
     27  N1        44.5380   25.2960  -18.9350 N.2   1456  DGT1456    -0.2485
     28  C2        44.5970   26.5790  -18.5110 C.1   1456  DGT1456     0.2531
     29  N2        44.3440   26.8840  -17.1950 N.pl3 1456  DGT1456    -0.0226
     30  N3        44.9440   27.5920  -19.3450 N.2   1456  DGT1456    -0.3074
     31  C4        45.2260   27.3760  -20.6300 C.2   1456  DGT1456     0.2299
@<TRIPOS>BOND
     1     2     1    2
     2     3     1    1
     3     1     4    1
     4     1     5    1
     5    12    10    2
     6    11    10    1
     7    10     9    1
     8    10    13    1
     9     5     6    1
    10     9     6    1
    11     7     6    2
    12     6     8    1
    13    13    14    1
    14    14    15    1
    15    15    16    1
    16    15    17    1
    17    22    23    1
    18    22    21    1
    19    16    20    1
    20    23    24    2
    21    17    18    1
    22    17    19    1
    23    21    20    1
    24    21    31    1
    25    20    19    1
    26    24    31    1
    27    24    25    1
    28    31    30    2
    29    26    25    2
    30    25    27    2
    31    30    28    2
    32    27    28    2
    33    28    29    1
