@<TRIPOS>MOLECULE
3f2c_DGT_A_1.pdb
 31 33 0 0 0
SMALL
GASTEIGER

@<TRIPOS>ATOM
      1  PG        51.6460  -28.9630   28.1980 P.3   1456  DGT1456     0.5373
      2  O1G       51.9280  -27.6090   28.8120 O.3   1456  DGT1456    -0.1143
      3  O2G       50.4310  -29.6120   28.8200 O.3   1456  DGT1456    -0.1143
      4  O3G       52.8370  -29.8920   28.1050 O.2   1456  DGT1456    -0.2221
      5  O3B       51.3280  -28.6100   26.6440 O.3   1456  DGT1456    -0.2258
      6  PB        50.2490  -29.3320   25.6970 P.3   1456  DGT1456     0.2277
      7  O1B       50.0230  -30.7610   26.1270 O.3   1456  DGT1456    -0.4368
      8  O2B       50.5760  -29.0340   24.2590 O.2   1456  DGT1456    -0.5168
      9  O3A       48.9470  -28.4380   26.0160 O.3   1456  DGT1456    -0.2700
     10  PA        47.5590  -28.8960   26.6890 P.3   1456  DGT1456     0.2189
     11  O1A       46.7640  -27.6300   26.8080 O.2   1456  DGT1456    -0.5170
     12  O2A       47.6870  -29.8530   27.8350 O.3   1456  DGT1456    -0.4371
     13  O5'       46.8980  -29.8780   25.6190 O.3   1456  DGT1456    -0.3112
     14  C5'       46.5750  -29.3630   24.3720 C.3   1456  DGT1456     0.1812
     15  C4'       46.8300  -30.4280   23.3560 C.3   1456  DGT1456     0.1772
     16  O4'       45.5830  -30.4350   22.6580 O.3   1456  DGT1456    -0.3347
     17  C3'       47.8460  -29.7190   22.4590 C.3   1456  DGT1456     0.1857
     18  O3'       49.1090  -30.3850   22.3940 O.3   1456  DGT1456    -0.2203
     19  C2'       47.1490  -29.5770   21.1140 C.3   1456  DGT1456     0.0865
     20  C1'       45.6750  -29.6080   21.4780 C.3   1456  DGT1456     0.1981
     21  N9        45.4420  -28.1490   21.6300 N.pl3 1456  DGT1456    -0.2374
     22  C8        45.6190  -27.3660   22.7130 C.3   1456  DGT1456     0.2245
     23  N7        45.3440  -26.0600   22.4200 N.2   1456  DGT1456    -0.2322
     24  C5        45.0190  -25.9980   21.1120 C.2   1456  DGT1456     0.2182
     25  C6        44.6430  -24.9570   20.1310 C.1   1456  DGT1456     0.2372
     26  O6        44.5410  -23.7530   20.4540 O.2   1456  DGT1456    -0.2069
     27  N1        44.3950  -25.3360   18.8730 N.2   1456  DGT1456    -0.2485
     28  C2        44.4790  -26.6160   18.4680 C.1   1456  DGT1456     0.2531
     29  N2        44.2120  -26.9380   17.1640 N.pl3 1456  DGT1456    -0.0226
     30  N3        44.8260  -27.6020   19.3190 N.2   1456  DGT1456    -0.3074
     31  C4        45.0950  -27.3680   20.6090 C.2   1456  DGT1456     0.2299
@<TRIPOS>BOND
     1    29    28    1
     2    28    27    2
     3    28    30    2
     4    27    25    2
     5    30    31    2
     6    25    26    2
     7    25    24    1
     8    31    24    1
     9    31    21    1
    10    24    23    2
    11    19    20    1
    12    19    17    1
    13    20    21    1
    14    20    16    1
    15    21    22    1
    16    18    17    1
    17    23    22    1
    18    17    15    1
    19    16    15    1
    20    15    14    1
    21     8     6    2
    22    14    13    1
    23    13    10    1
    24     6     9    1
    25     6     7    1
    26     6     5    1
    27     9    10    1
    28     5     1    1
    29    10    11    2
    30    10    12    1
    31     4     1    2
    32     1     2    1
    33     1     3    1
