@<TRIPOS>MOLECULE
3f2d_DGT_A_1.pdb
 31 33 0 0 0
SMALL
GASTEIGER

@<TRIPOS>ATOM
      1  PG        51.6730   28.9060  -28.0460 P.3   1456  DGT1456     0.5373
      2  O1G       51.8050   27.5380  -28.6590 O.2   1456  DGT1456    -0.2221
      3  O2G       50.4920   29.6880  -28.6200 O.3   1456  DGT1456    -0.1143
      4  O3G       52.9610   29.7130  -27.9910 O.3   1456  DGT1456    -0.1143
      5  O3B       51.4820   28.6840  -26.4450 O.3   1456  DGT1456    -0.2258
      6  PB        50.2590   29.2860  -25.6030 P.3   1456  DGT1456     0.2277
      7  O1B       49.9470   30.6900  -26.0530 O.2   1456  DGT1456    -0.5168
      8  O2B       50.4330   28.9450  -24.1570 O.3   1456  DGT1456    -0.4368
      9  O3A       49.0440   28.3530  -26.1490 O.3   1456  DGT1456    -0.2700
     10  PA        47.5790   28.8340  -26.5780 P.3   1456  DGT1456     0.2189
     11  O1A       46.6680   27.6470  -26.5750 O.3   1456  DGT1456    -0.4371
     12  O2A       47.5920   29.7930  -27.7440 O.2   1456  DGT1456    -0.5170
     13  O5'       47.2140   29.8460  -25.3910 O.3   1456  DGT1456    -0.3112
     14  C5'       46.5130   29.4230  -24.2800 C.3   1456  DGT1456     0.1812
     15  C4'       46.8550   30.3780  -23.1900 C.3   1456  DGT1456     0.1772
     16  O4'       45.6350   30.3500  -22.4570 O.3   1456  DGT1456    -0.3347
     17  C3'       47.8920   29.6190  -22.3690 C.3   1456  DGT1456     0.1857
     18  O3'       49.1480   30.2990  -22.2930 O.3   1456  DGT1456    -0.2203
     19  C2'       47.2420   29.4560  -21.0050 C.3   1456  DGT1456     0.0865
     20  C1'       45.7620   29.4700  -21.3450 C.3   1456  DGT1456     0.1981
     21  N9        45.5360   28.0280  -21.5960 N.pl3 1456  DGT1456    -0.2374
     22  C8        45.7440   27.2780  -22.7110 C.3   1456  DGT1456     0.2245
     23  N7        45.4650   25.9580  -22.4450 N.2   1456  DGT1456    -0.2322
     24  C5        45.1030   25.8630  -21.1420 C.2   1456  DGT1456     0.2182
     25  C6        44.6920   24.8060  -20.1990 C.1   1456  DGT1456     0.2372
     26  O6        44.6060   23.6050  -20.5690 O.2   1456  DGT1456    -0.2069
     27  N1        44.4180   25.1620  -18.9280 N.2   1456  DGT1456    -0.2485
     28  C2        44.5020   26.4370  -18.4940 C.1   1456  DGT1456     0.2531
     29  N2        44.2040   26.7450  -17.1950 N.pl3 1456  DGT1456    -0.0226
     30  N3        44.8770   27.4440  -19.3160 N.2   1456  DGT1456    -0.3074
     31  C4        45.1690   27.2190  -20.6010 C.2   1456  DGT1456     0.2299
@<TRIPOS>BOND
     1     2     1    2
     2     3     1    1
     3     1     4    1
     4     1     5    1
     5    12    10    2
     6    10    11    1
     7    10     9    1
     8    10    13    1
     9     5     6    1
    10     9     6    1
    11     7     6    2
    12     6     8    1
    13    13    14    1
    14    14    15    1
    15    15    16    1
    16    15    17    1
    17    22    23    1
    18    22    21    1
    19    16    20    1
    20    23    24    2
    21    17    18    1
    22    17    19    1
    23    21    20    1
    24    21    31    1
    25    20    19    1
    26    24    31    1
    27    24    25    1
    28    31    30    2
    29    26    25    2
    30    25    27    2
    31    30    28    2
    32    27    28    2
    33    28    29    1
