@<TRIPOS>MOLECULE
3f2k_III_C_1.pdb
 33 34 0 0 0
SMALL
GASTEIGER

@<TRIPOS>ATOM
      1  N         43.6940   43.2470   10.5450 N.3    13  LEU13      -0.1231
      2  CA        45.1300   43.1000   11.0210 C.3    13  LEU13       0.1694
      3  C         45.4880   41.8750   11.9010 C.2    13  LEU13       0.2592
      4  O         44.6330   41.0590   12.3020 O.2    13  LEU13      -0.2718
      5  CB        45.6710   44.3880   11.6480 C.3    13  LEU13       0.0304
      6  N         46.7920   41.7580   12.1390 N.am   14  TYR14      -0.1962
      7  CA        47.4110   40.6040   12.7380 C.3    14  TYR14       0.1771
      8  C         48.1600   40.9560   14.0230 C.2    14  TYR14       0.2620
      9  O         48.5250   42.1100   14.2820 O.2    14  TYR14      -0.2715
     10  CB        48.3910   39.9850   11.7470 C.3    14  TYR14       0.0574
     11  CG        49.5330   40.9100   11.4610 C.ar   14  TYR14      -0.0198
     12  CD1       50.7000   40.8560   12.2320 C.ar   14  TYR14      -0.0009
     13  CD2       49.4560   41.8540   10.4320 C.ar   14  TYR14      -0.0009
     14  CE1       51.7570   41.7060   11.9970 C.ar   14  TYR14       0.0417
     15  CE2       50.5270   42.7300   10.1860 C.ar   14  TYR14       0.0417
     16  CZ        51.6730   42.6350   10.9760 C.ar   14  TYR14       0.1957
     17  OH        52.7580   43.4700   10.7620 O.3    14  TYR14      -0.2866
     18  N         48.4140   39.9390   14.8230 N.am   15  PHE15      -0.1960
     19  CA        49.0410   40.1410   16.1090 C.3    15  PHE15       0.1771
     20  C         50.3910   40.8450   16.0440 C.2    15  PHE15       0.2619
     21  O         51.3280   40.3860   15.3680 O.2    15  PHE15      -0.2715
     22  CB        49.2070   38.7840   16.8300 C.3    15  PHE15       0.0574
     23  CG        47.9050   38.1830   17.2460 C.ar   15  PHE15      -0.0200
     24  CD1       47.7330   36.8020   17.2540 C.ar   15  PHE15      -0.0042
     25  CD2       46.8560   38.9930   17.6510 C.ar   15  PHE15      -0.0042
     26  CE1       46.5640   36.2600   17.6400 C.ar   15  PHE15      -0.0003
     27  CE2       45.6490   38.4280   18.0360 C.ar   15  PHE15      -0.0003
     28  CZ        45.5180   37.0510   18.0190 C.ar   15  PHE15      -0.0000
     29  N         50.4370   41.9810   16.7500 N.am   16  ALA16      -0.1977
     30  CA        51.6670   42.5730   17.2230 C.3    16  ALA16       0.1597
     31  C         52.6590   41.4700   17.6180 C.2    16  ALA16       0.2287
     32  O         53.7300   41.3580   17.0480 O.2    16  ALA16      -0.2864
     33  CB        51.3570   43.4590   18.4430 C.3    16  ALA16       0.0319
@<TRIPOS>BOND
     1    15    13   ar
     2    15    16   ar
     3    13    11   ar
     4     1     2    1
     5    17    16    1
     6    16    14   ar
     7     2     5    1
     8     2     3    1
     9    11    10    1
    10    11    12   ar
    11    10     7    1
    12     3     6   am
    13     3     4    2
    14    14    12   ar
    15     6     7    1
    16     7     8    1
    17     8     9    2
    18     8    18   am
    19    18    19    1
    20    21    20    2
    21    20    19    1
    22    20    29   am
    23    19    22    1
    24    29    30    1
    25    22    23    1
    26    32    31    2
    27    30    31    1
    28    30    33    1
    29    23    24   ar
    30    23    25   ar
    31    24    26   ar
    32    26    28   ar
    33    25    27   ar
    34    28    27   ar
