@<TRIPOS>MOLECULE
3f2m_AZA_A_1.pdb
 11 12 0 0 0
SMALL
GASTEIGER

@<TRIPOS>ATOM
      1  N1        29.9350   27.6660   36.5830 N.2   302  AZA302     -0.2300
      2  C2        29.2500   27.4300   37.7210 C.1   302  AZA302      0.3745
      3  O2        28.0900   27.9010   37.8170 O.2   302  AZA302     -0.1738
      4  N3        29.7640   26.7260   38.7570 N.2   302  AZA302     -0.2491
      5  C4        30.9860   26.1840   38.6250 C.1   302  AZA302      0.1531
      6  C5        31.7900   26.3720   37.4490 C.2   302  AZA302      0.2717
      7  C6        31.1640   27.1790   36.3650 C.1   302  AZA302      0.2477
      8  O6        31.7690   27.4250   35.3080 O.2   302  AZA302     -0.2062
      9  N7        32.9940   25.7300   37.6310 N.2   302  AZA302     -0.1149
     10  N8        32.8600   25.2060   38.9360 N.pl3 302  AZA302     -0.0026
     11  N9        31.6240   25.4460   39.5760 N.2   302  AZA302     -0.0705
@<TRIPOS>BOND
     1     8     7    2
     2     7     1    2
     3     7     6    1
     4     1     2    2
     5     6     9    2
     6     6     5    1
     7     9    10    1
     8     2     3    2
     9     2     4    2
    10     5     4    2
    11     5    11    2
    12    10    11    1
