@<TRIPOS>MOLECULE
3f2n_IZZ_A_1.pdb
 23 25 0 0 0
SMALL
GASTEIGER

@<TRIPOS>ATOM
      1  OAR      -13.6360   12.8270   -8.9220 O.3   800  IZZ800     -0.2185
      2  CAT      -12.3170   13.0710   -9.2840 C.3   800  IZZ800      0.2035
      3  CAM      -12.0770   12.3470  -10.6580 C.3   800  IZZ800      0.1269
      4  CAO      -10.6420   12.6140  -11.1500 C.3   800  IZZ800      0.0226
      5  CAW      -10.3490   14.1170  -11.1520 C.3   800  IZZ800      0.0018
      6  CAV       -9.6240   11.8290  -10.3110 C.3   800  IZZ800      0.0018
      7  NAJ      -13.0860   12.7310  -11.6610 N.pl3 800  IZZ800     -0.2180
      8  CAG      -13.3520   11.8830  -12.7030 C.ar  800  IZZ800      0.1678
      9  CAK      -14.5590   11.9140  -13.3270 C.ar  800  IZZ800      0.0407
     10  CAI      -14.8380   11.0390  -14.3830 C.ar  800  IZZ800      0.0418
     11  NAC      -12.4450   10.9640  -13.0950 N.ar  800  IZZ800     -0.1472
     12  NAA      -12.6740   10.1560  -14.0540 N.ar  800  IZZ800     -0.2095
     13  CAD      -13.8320   10.1120  -14.7270 C.ar  800  IZZ800      0.1640
     14  NAE      -13.8280    9.0950  -15.6010 N.ar  800  IZZ800     -0.2234
     15  CAF      -12.6530    8.4920  -15.5400 C.ar  800  IZZ800      0.1197
     16  CAB      -11.9120    9.1180  -14.5760 C.ar  800  IZZ800      0.1036
     17  CAH      -10.6310    8.8630  -14.0950 C.ar  800  IZZ800      0.0206
     18  CAL      -10.1840    7.5320  -13.9310 C.ar  800  IZZ800      0.0196
     19  CAQ       -9.7450    9.9090  -13.7510 C.ar  800  IZZ800      0.0016
     20  CAS       -8.4610    9.6620  -13.2660 C.ar  800  IZZ800      0.0014
     21  CAU       -8.0270    8.3330  -13.1060 C.ar  800  IZZ800      0.0181
     22  CAN       -8.8980    7.2740  -13.4350 C.ar  800  IZZ800      0.0891
     23  NAP       -8.4790    5.9520  -13.2670 N.pl3 800  IZZ800     -0.1281
@<TRIPOS>BOND
     1    14    15   ar
     2    14    13   ar
     3    15    16   ar
     4    13    10   ar
     5    13    12   ar
     6    16    17    1
     7    16    12   ar
     8    10     9   ar
     9    17    18   ar
    10    17    19   ar
    11    12    11   ar
    12    18    22   ar
    13    19    20   ar
    14    22    23    1
    15    22    21   ar
    16     9     8   ar
    17    20    21   ar
    18    11     8   ar
    19     8     7    1
    20     7     3    1
    21     5     4    1
    22     4     3    1
    23     4     6    1
    24     3     2    1
    25     2     1    1
