@<TRIPOS>MOLECULE
3f2p_S3B_A_1.pdb
 15 15 0 0 0
SMALL
GASTEIGER

@<TRIPOS>ATOM
      1  C1       -10.5700   39.7600    3.2530 C.ar  3000  S3B3000     0.1507
      2  O2       -10.6990   38.6000    2.5540 O.3   3000  S3B3000    -0.4242
      3  C3        -9.6600   37.7730    2.4030 C.2   3000  S3B3000     0.3215
      4  C4        -9.9900   36.5890    1.5340 C.3   3000  S3B3000     0.1100
      5  C5        -8.7310   35.8070    1.0980 C.3   3000  S3B3000     0.0122
      6  O6        -8.5740   37.9510    2.9460 O.2   3000  S3B3000    -0.2497
      7  C7       -10.4800   40.9620    2.5260 C.ar  3000  S3B3000     0.0130
      8  C8       -10.4860   40.8910    0.9870 C.3   3000  S3B3000     0.0342
      9  C9       -10.3900   42.1910    3.1920 C.ar  3000  S3B3000    -0.0012
     10  C10      -10.3900   42.2030    4.5920 C.ar  3000  S3B3000     0.0001
     11  C11      -10.4850   41.0060    5.3160 C.ar  3000  S3B3000     0.0096
     12  C12      -10.5770   39.7730    4.6590 C.ar  3000  S3B3000     0.1140
     13  C13      -10.6230   38.4890    5.4640 C.2   3000  S3B3000     0.3907
     14  O14      -11.2960   37.5050    5.0540 O.co2 3000  S3B3000    -0.2404
     15  O15       -9.9660   38.3980    6.5330 O.co2 3000  S3B3000    -0.2404
@<TRIPOS>BOND
     1     8     7    1
     2     5     4    1
     3     4     3    1
     4     3     2    1
     5     3     6    2
     6     7     9   ar
     7     7     1   ar
     8     2     1    1
     9     9    10   ar
    10     1    12   ar
    11    10    11   ar
    12    12    11   ar
    13    12    13    1
    14    14    13   ar
    15    13    15   ar
