@<TRIPOS>MOLECULE
3f2r_HC6_A_1.pdb
 30 33 0 0 0
SMALL
GASTEIGER

@<TRIPOS>ATOM
      1  CAC       -9.6280  -12.8690    5.3340 C.3   603  HC6603     -0.0080
      2  NAA       -8.9210  -12.1390    4.2610 N.4   603  HC6603      0.3924
      3  CBA       -9.8480  -11.2960    3.4490 C.3   603  HC6603     -0.0955
      4  CBB       -7.8880  -11.3100    4.8910 C.3   603  HC6603     -0.0955
      5  CAB       -8.2660  -13.0890    3.3480 C.3   603  HC6603     -0.0403
      6  CAF       -9.3160  -13.9440    2.6380 C.3   603  HC6603      0.1229
      7  OAE      -10.0240  -14.6870    3.6910 O.3   603  HC6603     -0.3327
      8  CAD      -10.6390  -13.8910    4.7160 C.3   603  HC6603      0.2200
      9  OBC      -11.6840  -13.1350    4.0700 O.3   603  HC6603     -0.1927
     10  CAG      -11.1850  -14.8540    5.8490 C.ar  603  HC6603      0.0290
     11  CAL      -10.4740  -16.0000    6.1980 C.ar  603  HC6603      0.0004
     12  CAK      -10.9350  -16.8530    7.2030 C.ar  603  HC6603     -0.0002
     13  CAH      -12.3700  -14.5940    6.5420 C.ar  603  HC6603      0.0004
     14  CAI      -12.8350  -15.4460    7.5560 C.ar  603  HC6603     -0.0002
     15  CAJ      -12.1200  -16.6120    7.8930 C.ar  603  HC6603     -0.0000
     16  CAM      -12.5610  -17.4700    8.9340 C.ar  603  HC6603     -0.0000
     17  CAR      -11.6750  -18.2670    9.6780 C.ar  603  HC6603     -0.0002
     18  CAQ      -12.0910  -19.0970   10.7380 C.ar  603  HC6603      0.0004
     19  CAN      -13.8950  -17.5100    9.3210 C.ar  603  HC6603     -0.0002
     20  CAO      -14.3280  -18.3280   10.3650 C.ar  603  HC6603      0.0004
     21  CAP      -13.4390  -19.1350   11.0900 C.ar  603  HC6603      0.0290
     22  CAS      -13.9340  -20.0180   12.2590 C.3   603  HC6603      0.2200
     23  OBD      -15.1700  -19.5810   12.8150 O.3   603  HC6603     -0.1927
     24  CAX      -14.0710  -21.4940   11.8540 C.3   603  HC6603     -0.0080
     25  OAT      -13.0090  -19.8720   13.3220 O.3   603  HC6603     -0.3327
     26  CAU      -13.3790  -20.7040   14.4530 C.3   603  HC6603      0.1229
     27  CAV      -13.4310  -22.1800   14.0320 C.3   603  HC6603     -0.0403
     28  NAW      -14.4700  -22.3400   13.0110 N.4   603  HC6603      0.3924
     29  CAZ      -15.8030  -21.9540   13.5620 C.3   603  HC6603     -0.0955
     30  CAY      -14.5280  -23.7630   12.6260 C.3   603  HC6603     -0.0955
@<TRIPOS>BOND
     1     6     5    1
     2     6     7    1
     3     5     2    1
     4     3     2    1
     5     7     8    1
     6     9     8    1
     7     2     4    1
     8     2     1    1
     9     8     1    1
    10     8    10    1
    11    10    11   ar
    12    10    13   ar
    13    11    12   ar
    14    13    14   ar
    15    12    15   ar
    16    14    15   ar
    17    15    16    1
    18    16    19   ar
    19    16    17   ar
    20    19    20   ar
    21    17    18   ar
    22    20    21   ar
    23    18    21   ar
    24    21    22    1
    25    24    22    1
    26    24    28    1
    27    22    23    1
    28    22    25    1
    29    30    28    1
    30    28    29    1
    31    28    27    1
    32    25    26    1
    33    27    26    1
