@<TRIPOS>MOLECULE
3f2v_FMN_A_1.pdb
 31 33 0 0 0
SMALL
GASTEIGER

@<TRIPOS>ATOM
      1  N1        11.5550   -8.7950   24.8310 N.2   201  FMN201     -0.2890
      2  C2        10.4300   -8.2930   25.3490 C.1   201  FMN201      0.3669
      3  O2         9.7380   -7.6940   24.6500 O.2   201  FMN201     -0.1744
      4  N3        10.1010   -8.3570   26.8060 N.2   201  FMN201     -0.2300
      5  C4        11.0770   -8.7520   27.7950 C.1   201  FMN201      0.2513
      6  O4        10.7860   -8.3660   28.9490 O.2   201  FMN201     -0.2057
      7  C4A       12.3370   -9.1140   27.2830 C.2   201  FMN201      0.2700
      8  N5        13.4850   -9.3820   28.0300 N.2   201  FMN201     -0.3878
      9  C5A       14.7700   -9.7510   27.6520 C.2   201  FMN201      0.1320
     10  C6        15.8700   -9.8970   28.6420 C.2   201  FMN201      0.0250
     11  C7        17.2250  -10.2310   28.1520 C.2   201  FMN201     -0.0238
     12  C7M       18.3620  -10.1730   29.1890 C.3   201  FMN201      0.0308
     13  C8        17.3640  -10.3930   26.5410 C.2   201  FMN201     -0.0280
     14  C8M       18.3960  -10.4320   25.8070 C.3   201  FMN201      0.0304
     15  C9        16.3350  -10.2840   25.7700 C.2   201  FMN201     -0.0041
     16  C9A       14.9980   -9.8870   26.2200 C.3   201  FMN201      0.1497
     17  N10       13.8280   -9.6140   25.3960 N.pl3 201  FMN201     -0.2691
     18  C10       12.4920   -9.2300   25.8150 C.2   201  FMN201      0.2416
     19  C1'       13.9910   -9.7450   23.8690 C.3   201  FMN201      0.1294
     20  C2'       14.4410   -8.4310   23.2050 C.3   201  FMN201      0.2044
     21  O2'       13.5150   -7.3710   23.4550 O.3   201  FMN201     -0.2185
     22  C3'       14.5760   -8.5950   21.6980 C.3   201  FMN201      0.2164
     23  O3'       15.4190   -9.7140   21.4020 O.3   201  FMN201     -0.2175
     24  C4'       15.1900   -7.3120   21.0960 C.3   201  FMN201      0.2147
     25  O4'       14.1560   -6.3690   20.7220 O.3   201  FMN201     -0.2176
     26  C5'       15.9810   -7.5720   19.8710 C.3   201  FMN201      0.1892
     27  O5'       16.9640   -6.6490   19.7830 O.3   201  FMN201     -0.2674
     28  P         17.2720   -5.8750   18.4900 P.3   201  FMN201      0.5327
     29  O1P       18.3940   -4.9530   18.7460 O.3   201  FMN201     -0.1145
     30  O2P       17.5960   -6.9020   17.4800 O.2   201  FMN201     -0.2224
     31  O3P       16.0130   -5.2380   18.2550 O.3   201  FMN201     -0.1145
@<TRIPOS>BOND
     1    30    28    2
     2    31    28    1
     3    28    29    1
     4    28    27    1
     5    27    26    1
     6    26    24    1
     7    25    24    1
     8    24    22    1
     9    23    22    1
    10    22    20    1
    11    20    21    1
    12    20    19    1
    13    19    17    1
    14     3     2    2
    15     1     2    2
    16     1    18    2
    17     2     4    2
    18    17    18    1
    19    17    16    1
    20    15    16    1
    21    15    13    2
    22    14    13    1
    23    18     7    1
    24    16     9    1
    25    13    11    1
    26     4     5    2
    27     7     5    1
    28     7     8    2
    29     9     8    2
    30     9    10    1
    31     5     6    2
    32    11    10    2
    33    11    12    1
