@<TRIPOS>MOLECULE
3f33_PFL_A_1.pdb
 13 13 0 0 0
SMALL
GASTEIGER

@<TRIPOS>ATOM
      1  O1        33.5450    0.2120   33.8030 O.3   2001  PFL2001    -0.2872
      2  C1        33.8650    0.0430   35.0750 C.ar  2001  PFL2001     0.1877
      3  C2        32.8920   -0.0840   36.0670 C.ar  2001  PFL2001     0.0161
      4  C6        35.2210    0.0040   35.3720 C.ar  2001  PFL2001     0.0161
      5  C3        33.3130   -0.2580   37.3760 C.ar  2001  PFL2001    -0.0011
      6  C7        31.3690   -0.0410   35.8070 C.3   2001  PFL2001     0.0255
      7  C4        34.6680   -0.3090   37.6830 C.ar  2001  PFL2001    -0.0004
      8  C5        35.6250   -0.1810   36.6810 C.ar  2001  PFL2001    -0.0011
      9  C10       36.2680    0.1270   34.2530 C.3   2001  PFL2001     0.0255
     10  C8        30.8180   -1.4590   35.6570 C.3   2001  PFL2001     0.0048
     11  C9        31.0190    0.8010   34.5870 C.3   2001  PFL2001     0.0048
     12  C11       36.9660   -1.2240   34.0840 C.3   2001  PFL2001     0.0048
     13  C12       37.2920    1.2120   34.6000 C.3   2001  PFL2001     0.0048
@<TRIPOS>BOND
     1     1     2    1
     2    12     9    1
     3     9    13    1
     4     9     4    1
     5    11     6    1
     6     2     4   ar
     7     2     3   ar
     8     4     8   ar
     9    10     6    1
    10     6     3    1
    11     3     5   ar
    12     8     7   ar
    13     5     7   ar
