@<TRIPOS>MOLECULE
3f34_DIE_A_1.pdb
 11 11 0 0 0
SMALL
GASTEIGER

@<TRIPOS>ATOM
      1  C10       30.5590    0.2460   34.5090 C.3   2001  DIE2001     0.0051
      2  C9        31.4600   -0.7170   35.2990 C.3   2001  DIE2001     0.0296
      3  C6        32.8650   -0.1710   35.6390 C.ar  2001  DIE2001     0.0164
      4  C5        33.0490    0.2930   36.9310 C.ar  2001  DIE2001    -0.0011
      5  C4        34.2730    0.7960   37.3490 C.ar  2001  DIE2001    -0.0004
      6  C3        35.3510    0.8320   36.4800 C.ar  2001  DIE2001    -0.0011
      7  C2        35.2050    0.3620   35.1800 C.ar  2001  DIE2001     0.0164
      8  C7        36.4310    0.4260   34.2540 C.3   2001  DIE2001     0.0296
      9  C8        36.0200    0.5430   32.7820 C.3   2001  DIE2001     0.0051
     10  C1        33.9650   -0.1340   34.7750 C.ar  2001  DIE2001     0.1877
     11  O1        33.8330   -0.5890   33.4980 O.3   2001  DIE2001    -0.2872
@<TRIPOS>BOND
     1     9     8    1
     2    11    10    1
     3     8     7    1
     4     1     2    1
     5    10     7   ar
     6    10     3   ar
     7     7     6   ar
     8     2     3    1
     9     3     4   ar
    10     6     5   ar
    11     4     5   ar
