@<TRIPOS>MOLECULE
3f35_DIE_A_1.pdb
 11 11 0 0 0
SMALL
GASTEIGER

@<TRIPOS>ATOM
      1  C10       30.7170    0.3960   34.5790 C.3   2001  DIE2001     0.0051
      2  C9        31.4170   -0.5670   35.5430 C.3   2001  DIE2001     0.0296
      3  C6        32.9440   -0.3920   35.6750 C.ar  2001  DIE2001     0.0164
      4  C5        33.3130   -0.1120   36.9820 C.ar  2001  DIE2001    -0.0011
      5  C4        34.6390    0.0730   37.3100 C.ar  2001  DIE2001    -0.0004
      6  C3        35.6320   -0.0290   36.3440 C.ar  2001  DIE2001    -0.0011
      7  C2        35.3090   -0.3220   35.0320 C.ar  2001  DIE2001     0.0164
      8  C7        36.4360   -0.4270   33.9920 C.3   2001  DIE2001     0.0296
      9  C8        35.9730    0.0360   32.5990 C.3   2001  DIE2001     0.0051
     10  C1        33.9780   -0.5020   34.7160 C.ar  2001  DIE2001     0.1877
     11  O1        33.8260   -0.7830   33.4170 O.3   2001  DIE2001    -0.2872
@<TRIPOS>BOND
     1     9     8    1
     2    11    10    1
     3     8     7    1
     4     1     2    1
     5    10     7   ar
     6    10     3   ar
     7     7     6   ar
     8     2     3    1
     9     3     4   ar
    10     6     5   ar
    11     4     5   ar
