@<TRIPOS>MOLECULE
3f36_IP0_A_1.pdb
 10 10 0 0 0
SMALL
GASTEIGER

@<TRIPOS>ATOM
      1  C8        36.6220   -0.7870   33.4900 C.3   2001  IP02001     0.0048
      2  C7        36.1630    0.4670   34.2170 C.3   2001  IP02001     0.0255
      3  C9        37.3770    1.2350   34.7380 C.3   2001  IP02001     0.0048
      4  C2        35.2720    0.0820   35.4010 C.ar  2001  IP02001     0.0164
      5  C3        35.8480   -0.4430   36.5480 C.ar  2001  IP02001    -0.0011
      6  C4        35.0590   -0.7950   37.6350 C.ar  2001  IP02001    -0.0001
      7  C5        33.6830   -0.6180   37.5750 C.ar  2001  IP02001     0.0033
      8  C6        33.1070   -0.0900   36.4330 C.ar  2001  IP02001     0.0417
      9  C1        33.8970    0.2600   35.3460 C.ar  2001  IP02001     0.1917
     10  O1        33.3270    0.7750   34.2270 O.3   2001  IP02001    -0.2869
@<TRIPOS>BOND
     1     1     2    1
     2     2     3    1
     3     2     4    1
     4    10     9    1
     5     9     4   ar
     6     9     8   ar
     7     4     5   ar
     8     8     7   ar
     9     5     6   ar
    10     7     6   ar
