@<TRIPOS>MOLECULE
3f3a_TRP_A_1.pdb
 15 16 0 0 0
SMALL
GASTEIGER

@<TRIPOS>ATOM
      1  N        -25.1770   -3.4330  -19.1820 N.3   601  TRP601     -0.1205
      2  CA       -26.1580   -4.5040  -19.1190 C.3   601  TRP601      0.1984
      3  C        -25.7910   -5.5780  -18.0880 C.2   601  TRP601      0.3822
      4  O        -26.6200   -6.3700  -17.6510 O.co2 601  TRP601     -0.2440
      5  CB       -26.2890   -5.1750  -20.4970 C.3   601  TRP601      0.0549
      6  CG       -26.6810   -4.2690  -21.6110 C.2   601  TRP601     -0.0138
      7  CD1      -25.8810   -3.8350  -22.6350 C.2   601  TRP601      0.0907
      8  CD2      -27.9760   -3.6980  -21.8440 C.3   601  TRP601      0.0819
      9  NE1      -26.5990   -3.0380  -23.4920 N.2   601  TRP601     -0.2482
     10  CE2      -27.8880   -2.9390  -23.0400 C.2   601  TRP601      0.0665
     11  CE3      -29.2030   -3.7690  -21.1710 C.2   601  TRP601     -0.0164
     12  CZ2      -28.9740   -2.2400  -23.5720 C.2   601  TRP601      0.0153
     13  CZ3      -30.2910   -3.0720  -21.6990 C.2   601  TRP601     -0.0038
     14  CH2      -30.1660   -2.3180  -22.9010 C.2   601  TRP601      0.0009
     15  OXT      -24.6380   -5.7000  -17.6730 O.co2 601  TRP601     -0.2440
@<TRIPOS>BOND
     1    12    10    1
     2    12    14    2
     3     9    10    2
     4     9     7    1
     5    10     8    1
     6    14    13    1
     7     7     6    2
     8     8     6    1
     9     8    11    1
    10    13    11    2
    11     6     5    1
    12     5     2    1
    13     1     2    1
    14     2     3    1
    15     3    15   ar
    16     3     4   ar
