@<TRIPOS>MOLECULE
3f3c_PFF_A_1.pdb
 13 13 0 0 0
SMALL
GASTEIGER

@<TRIPOS>ATOM
      1  N         25.9520   32.2700   19.1620 N.3   601  PFF601     -0.1205
      2  CA        27.2540   31.6260   19.1260 C.3   601  PFF601      0.1986
      3  C         27.2000   30.3180   18.3880 C.2   601  PFF601      0.3822
      4  O         28.2740   29.6910   18.1950 O.co2 601  PFF601     -0.2440
      5  OXT       26.0890   29.9050   18.0060 O.co2 601  PFF601     -0.2440
      6  CB        27.7240   31.3570   20.5520 C.3   601  PFF601      0.0569
      7  CG        28.0240   32.6860   21.1950 C.ar  601  PFF601     -0.0200
      8  CD1       28.6550   33.6630   20.4380 C.ar  601  PFF601     -0.0019
      9  CD2       27.6660   32.9360   22.5200 C.ar  601  PFF601     -0.0019
     10  CE1       28.9370   34.8970   20.9980 C.ar  601  PFF601      0.0293
     11  CE2       27.9470   34.1790   23.0870 C.ar  601  PFF601      0.0293
     12  CZ        28.5800   35.1500   22.3190 C.ar  601  PFF601      0.1401
     13  F         28.8640   36.3490   22.8450 F     601  PFF601     -0.2042
@<TRIPOS>BOND
     1     5     3   ar
     2     4     3   ar
     3     3     2    1
     4     2     1    1
     5     2     6    1
     6     8    10   ar
     7     8     7   ar
     8     6     7    1
     9    10    12   ar
    10     7     9   ar
    11    12    13    1
    12    12    11   ar
    13     9    11   ar
