@<TRIPOS>MOLECULE
3f3m_PPS_A_1.pdb
 31 33 0 0 0
SMALL
GASTEIGER

@<TRIPOS>ATOM
      1  S2      -147.4570 -116.4300  110.0310 S.3   300  PPS300      0.0049
      2  OS1     -148.1540 -115.3030  109.3270 O.2   300  PPS300     -0.3449
      3  OS2     -146.6360 -115.8750  111.1570 O.3   300  PPS300     -0.2679
      4  OS3     -148.4730 -117.3880  110.5790 O.2   300  PPS300     -0.3449
      5  O6P     -146.6000 -117.1070  109.1070 O.3   300  PPS300     -0.1945
      6  P2      -146.6360 -118.7090  108.9390 P.3   300  PPS300      0.2383
      7  O4P     -148.0550 -119.1320  108.9150 O.3   300  PPS300     -0.4361
      8  O5P     -145.7740 -119.0790  107.7940 O.2   300  PPS300     -0.5161
      9  O5'     -145.9440 -119.2320  110.2960 O.3   300  PPS300     -0.3102
     10  C5'     -144.5210 -119.1810  110.4260 C.3   300  PPS300      0.1813
     11  C4'     -143.9390 -120.5440  110.8080 C.3   300  PPS300      0.1795
     12  O4'     -144.5860 -121.0000  112.0110 O.3   300  PPS300     -0.3136
     13  C1'     -145.2600 -122.2310  111.6960 C.3   300  PPS300      0.3185
     14  N9      -146.4520 -122.4100  112.5560 N.pl3 300  PPS300     -0.1439
     15  C4      -146.7320 -123.4800  113.2940 C.2   300  PPS300      0.3518
     16  N3      -146.1330 -124.6660  113.4720 N.2   300  PPS300     -0.0055
     17  C2      -146.6450 -125.5620  114.2980 C.3   300  PPS300      0.5254
     18  N1      -147.7550 -125.3270  114.9750 N.2   300  PPS300      0.0021
     19  C6      -148.4090 -124.1630  114.8480 C.2   300  PPS300      0.4393
     20  N6      -149.5110 -123.9230  115.5520 N.pl3 300  PPS300      0.2180
     21  C5      -147.9030 -123.1990  113.9850 C.2   300  PPS300      0.2526
     22  N7      -148.2910 -121.9770  113.6330 N.2   300  PPS300     -0.2095
     23  C8      -147.4040 -121.5030  112.7610 C.3   300  PPS300      0.3377
     24  C2'     -145.6460 -122.0620  110.2280 C.3   300  PPS300      0.2543
     25  O2'     -145.9240 -123.3450  109.6610 O.3   300  PPS300     -0.2131
     26  C3'     -144.2880 -121.5740  109.7300 C.3   300  PPS300      0.1928
     27  O3'     -143.3430 -122.6460  109.7810 O.3   300  PPS300     -0.2673
     28  P1      -141.9820 -122.5360  108.9300 P.3   300  PPS300      0.5327
     29  O1P     -140.7620 -122.7640  109.9550 O.3   300  PPS300     -0.1145
     30  O2P     -141.8710 -121.2530  108.2000 O.3   300  PPS300     -0.1145
     31  O3P     -142.0150 -123.8100  107.9470 O.2   300  PPS300     -0.2224
@<TRIPOS>BOND
     1     8     6    2
     2    31    28    2
     3    30    28    1
     4     7     6    1
     5    28    27    1
     6    28    29    1
     7     6     5    1
     8     6     9    1
     9     5     1    1
    10     2     1    2
    11    25    24    1
    12    26    27    1
    13    26    24    1
    14    26    11    1
    15     1     4    2
    16     1     3    1
    17    24    13    1
    18     9    10    1
    19    10    11    1
    20    11    12    1
    21    13    12    1
    22    13    14    1
    23    14    23    1
    24    14    15    1
    25    23    22    1
    26    15    16    2
    27    15    21    1
    28    16    17    1
    29    22    21    2
    30    21    19    1
    31    17    18    1
    32    19    18    2
    33    19    20    1
