@<TRIPOS>MOLECULE
3f3r_GSH_A_1.pdb
 20 19 0 0 0
SMALL
GASTEIGER

@<TRIPOS>ATOM
      1  N1        -2.0900    4.3460  -15.3600 N.3   104  GSH104     -0.1208
      2  CA1       -2.1820    5.5960  -16.0980 C.3   104  GSH104      0.1948
      3  C1        -3.6130    5.9720  -16.3950 C.2   104  GSH104      0.3819
      4  O11       -4.3410    5.1590  -17.0210 O.co2 104  GSH104     -0.2441
      5  O12       -4.0870    7.0900  -16.0500 O.co2 104  GSH104     -0.2441
      6  CB1       -1.5360    6.6850  -15.2580 C.3   104  GSH104      0.0402
      7  CG1       -0.3580    6.1400  -14.4660 C.3   104  GSH104      0.0889
      8  CD1        0.8580    6.7680  -15.0750 C.2   104  GSH104      0.2418
      9  OE1        0.8470    7.4000  -16.3370 O.2   104  GSH104     -0.2733
     10  N2         1.9510    6.7220  -14.3460 N.am  104  GSH104     -0.1968
     11  CA2        3.1080    7.3830  -14.8400 C.3   104  GSH104      0.1843
     12  C2         4.2920    6.4370  -14.6430 C.2   104  GSH104      0.2627
     13  O2         4.6140    6.0310  -13.3430 O.2   104  GSH104     -0.2714
     14  CB2        3.0160    8.7340  -14.0720 C.3   104  GSH104      0.0997
     15  SG2        1.3890    9.4800  -13.5710 S.3   104  GSH104     -0.0797
     16  N3         5.0400    5.9170  -15.6510 N.am  104  GSH104     -0.1917
     17  CA3        6.2160    5.1060  -15.2810 C.3   104  GSH104      0.2285
     18  C3         6.8120    4.0560  -16.2220 C.2   104  GSH104      0.3865
     19  O31        7.6380    4.3720  -17.1120 O.co2 104  GSH104     -0.2437
     20  O32        6.5440    2.8260  -16.1010 O.co2 104  GSH104     -0.2437
@<TRIPOS>BOND
     1    19    18   ar
     2     4     3   ar
     3     3     2    1
     4     3     5   ar
     5     9     8    2
     6    18    20   ar
     7    18    17    1
     8     2     1    1
     9     2     6    1
    10    16    17    1
    11    16    12   am
    12     6     7    1
    13     8     7    1
    14     8    10   am
    15    11    12    1
    16    11    10    1
    17    11    14    1
    18    12    13    2
    19    14    15    1
