@<TRIPOS>MOLECULE
3f3s_NAD_A_1.pdb
 44 48 0 0 0
SMALL
GASTEIGER

@<TRIPOS>ATOM
      1  PA       -24.4780    2.9950  -14.3450 P.3   601  NAD601      0.2189
      2  O1A      -24.2060    1.5530  -14.2770 O.3   601  NAD601     -0.4371
      3  O2A      -25.1290    3.6910  -15.4410 O.2   601  NAD601     -0.5170
      4  O5B      -23.0510    3.8110  -14.1630 O.3   601  NAD601     -0.3112
      5  C5B      -22.1160    3.4430  -13.1080 C.3   601  NAD601      0.1813
      6  C4B      -20.7210    3.9450  -13.4300 C.3   601  NAD601      0.1821
      7  O4B      -19.8830    3.6020  -12.2800 O.3   601  NAD601     -0.3135
      8  C3B      -20.1550    3.1350  -14.6360 C.3   601  NAD601      0.2184
      9  O3B      -19.7130    4.0410  -15.6750 O.3   601  NAD601     -0.2174
     10  C2B      -19.0410    2.2970  -14.0110 C.3   601  NAD601      0.2570
     11  O2B      -17.8960    2.1510  -14.8790 O.3   601  NAD601     -0.2130
     12  C1B      -18.6630    3.1860  -12.8260 C.3   601  NAD601      0.3186
     13  N9A      -17.9770    2.4760  -11.7980 N.pl3 601  NAD601     -0.1439
     14  C8A      -18.0890    1.2100  -11.4110 C.3   601  NAD601      0.3377
     15  N7A      -17.2630    1.0010  -10.3650 N.2   601  NAD601     -0.2095
     16  C5A      -16.6080    2.1380  -10.1080 C.2   601  NAD601      0.2526
     17  C6A      -15.6400    2.5550   -9.1810 C.2   601  NAD601      0.4393
     18  N6A      -15.0850    1.7520   -8.2740 N.pl3 601  NAD601      0.2180
     19  N1A      -15.2480    3.8220   -9.2170 N.2   601  NAD601      0.0021
     20  C2A      -15.7190    4.6950  -10.1050 C.3   601  NAD601      0.5254
     21  N3A      -16.6200    4.3360  -10.9970 N.2   601  NAD601     -0.0055
     22  C4A      -17.0660    3.0670  -11.0270 C.2   601  NAD601      0.3518
     23  O3       -25.3130    3.3740  -12.9330 O.3   601  NAD601     -0.2703
     24  PN       -26.4140    4.4870  -12.9270 P.3   601  NAD601      0.2189
     25  O1N      -27.7010    4.0310  -13.4510 O.2   601  NAD601     -0.5170
     26  O2N      -25.9370    5.7710  -13.4410 O.3   601  NAD601     -0.4371
     27  O5D      -26.6510    4.5240  -11.2880 O.3   601  NAD601     -0.3112
     28  C5D      -25.6810    5.0240  -10.4380 C.3   601  NAD601      0.1813
     29  C4D      -26.3430    5.2970   -9.0640 C.3   601  NAD601      0.1799
     30  O4D      -27.4890    6.2000   -9.3050 O.3   601  NAD601     -0.3327
     31  C3D      -26.8760    4.0430   -8.3930 C.3   601  NAD601      0.2158
     32  O3D      -26.7250    4.0760   -6.9250 O.3   601  NAD601     -0.2175
     33  C2D      -28.3340    4.0790   -8.7120 C.3   601  NAD601      0.2309
     34  O2D      -29.0820    3.4310   -7.6860 O.3   601  NAD601     -0.2158
     35  C1D      -28.5890    5.6150   -8.6570 C.3   601  NAD601      0.2263
     36  N1N      -29.7600    6.0360   -9.3980 N.pl3 601  NAD601     -0.2787
     37  C2N      -29.9990    5.4990  -10.6920 C.3   601  NAD601      0.1244
     38  C3N      -31.1270    5.8990  -11.3770 C.2   601  NAD601      0.0544
     39  C7N      -31.3820    5.2810  -12.7690 C.2   601  NAD601      0.2818
     40  O7N      -30.4840    4.7870  -13.4610 O.2   601  NAD601     -0.2670
     41  N7N      -32.6160    5.3950  -13.1790 N.am  601  NAD601     -0.0839
     42  C4N      -32.0200    6.8660  -10.8440 C.2   601  NAD601      0.0033
     43  C5N      -31.7590    7.4390   -9.6140 C.2   601  NAD601      0.0157
     44  C6N      -30.6520    7.0130   -8.8780 C.2   601  NAD601      0.0633
@<TRIPOS>BOND
     1     9     8    1
     2     3     1    2
     3    11    10    1
     4     8    10    1
     5     8     6    1
     6     1     2    1
     7     1     4    1
     8     1    23    1
     9     4     5    1
    10    10    12    1
    11    40    39    2
    12    25    24    2
    13    26    24    1
    14     6     5    1
    15     6     7    1
    16    41    39   am
    17    23    24    1
    18    24    27    1
    19    12     7    1
    20    12    13    1
    21    39    38    1
    22    13    14    1
    23    13    22    1
    24    14    15    1
    25    38    42    2
    26    38    37    1
    27    27    28    1
    28    22    21    2
    29    22    16    1
    30    21    20    1
    31    42    43    1
    32    37    36    1
    33    28    29    1
    34    15    16    2
    35    16    17    1
    36    20    19    1
    37    43    44    2
    38    36    44    1
    39    36    35    1
    40    30    29    1
    41    30    35    1
    42    19    17    2
    43    17    18    1
    44    29    31    1
    45    33    35    1
    46    33    31    1
    47    33    34    1
    48    31    32    1
