@<TRIPOS>MOLECULE
3f3t_1AU_A_1.pdb
 30 33 0 0 0
SMALL
GASTEIGER

@<TRIPOS>ATOM
      1  CBB       -5.3160   35.3030   -9.1670 C.ar    1  1AU1        0.0154
      2  CAO       -5.2040   35.0410  -10.5340 C.ar    1  1AU1        0.0013
      3  CAG       -6.1790   35.5510  -11.3950 C.ar    1  1AU1        0.0000
      4  CAF       -7.2460   36.3230  -10.9300 C.ar    1  1AU1        0.0000
      5  CAM       -7.3510   36.5850   -9.5690 C.ar    1  1AU1        0.0000
      6  CBA       -6.4010   36.0790   -8.6920 C.ar    1  1AU1        0.0013
      7  CAN       -6.5370   36.3470   -7.3330 C.ar    1  1AU1        0.0001
      8  CAI       -5.5930   35.8300   -6.4480 C.ar    1  1AU1        0.0013
      9  CAL       -4.5190   35.0780   -6.9020 C.ar    1  1AU1        0.0166
     10  CAX       -4.3570   34.7970   -8.2690 C.ar    1  1AU1        0.0749
     11  NAS       -3.3200   34.0400   -8.7110 N.am    1  1AU1       -0.1606
     12  CAU       -2.8390   32.9920   -8.0100 C.2     1  1AU1        0.3491
     13  OAE       -3.3070   32.6940   -6.9070 O.2     1  1AU1       -0.2484
     14  NAT       -1.8200   32.3100   -8.5620 N.am    1  1AU1       -0.1418
     15  CAZ       -1.1910   31.2560   -7.9900 C.ar    1  1AU1        0.1587
     16  CAQ       -1.7670   30.2030   -7.3820 C.ar    1  1AU1        0.0527
     17  CAY       -0.7350   29.4500   -6.9680 C.ar    1  1AU1        0.0811
     18  CBD       -0.7610   28.0740   -6.2210 C.3     1  1AU1        0.0372
     19  CAB       -1.4560   27.0300   -7.1120 C.3     1  1AU1        0.0060
     20  CAC        0.6670   27.6190   -5.9250 C.3     1  1AU1        0.0060
     21  CAA       -1.4570   28.1530   -4.8590 C.3     1  1AU1        0.0060
     22  NAR        0.4010   30.0380   -7.3350 N.ar    1  1AU1       -0.1683
     23  NBC        0.1480   31.0980   -7.9140 N.ar    1  1AU1       -0.2145
     24  CAW        1.1320   31.8850   -8.3950 C.ar    1  1AU1        0.0856
     25  CAP        1.1860   33.2460   -8.1640 C.ar    1  1AU1        0.0372
     26  CAK        2.1700   31.3200   -9.1490 C.ar    1  1AU1        0.0193
     27  CAH        3.2300   32.0820   -9.6820 C.ar    1  1AU1        0.0029
     28  CAJ        3.2610   33.4540   -9.4390 C.ar    1  1AU1        0.0182
     29  CAV        2.2330   34.0250   -8.6840 C.ar    1  1AU1        0.0906
     30  NAD        2.2460   35.3370   -8.4280 N.pl3   1  1AU1       -0.1280
@<TRIPOS>BOND
     1     3     4   ar
     2     3     2   ar
     3     4     5   ar
     4     2     1   ar
     5    27    28   ar
     6    27    26   ar
     7     5     6   ar
     8    28    29   ar
     9     1     6   ar
    10     1    10   ar
    11    26    24   ar
    12    11    10    1
    13    11    12   am
    14     6     7   ar
    15    29    30    1
    16    29    25   ar
    17    14    12   am
    18    14    15    1
    19    24    25   ar
    20    24    23    1
    21    10     9   ar
    22    12    13    2
    23    15    23   ar
    24    15    16   ar
    25    23    22   ar
    26    16    17   ar
    27    22    17   ar
    28     7     8   ar
    29    19    18    1
    30    17    18    1
    31     9     8   ar
    32    18    20    1
    33    18    21    1
