@<TRIPOS>MOLECULE
3f3u_1AW_A_1.pdb
 26 28 0 0 0
SMALL
GASTEIGER

@<TRIPOS>ATOM
      1  CBB       -5.1810   35.2550   -8.6540 C.ar    1  1AW1        0.0167
      2  CBA       -6.2590   36.1180   -8.3890 C.ar    1  1AW1        0.0013
      3  CAN       -6.7010   36.3220   -7.0720 C.ar    1  1AW1        0.0001
      4  CAI       -6.0470   35.6660   -6.0310 C.ar    1  1AW1        0.0013
      5  CAL       -4.9730   34.8050   -6.2990 C.ar    1  1AW1        0.0167
      6  CAX       -4.5310   34.5940   -7.6100 C.ar    1  1AW1        0.0750
      7  NAS       -3.5130   33.7850   -7.9020 N.am    1  1AW1       -0.1606
      8  CAU       -3.0360   32.7990   -7.1270 C.2     1  1AW1        0.3491
      9  OAE       -3.4930   32.5360   -6.0070 O.2     1  1AW1       -0.2484
     10  NAT       -1.9960   32.1470   -7.6780 N.am    1  1AW1       -0.1418
     11  CAZ       -1.3100   31.1030   -7.1560 C.ar    1  1AW1        0.1587
     12  CAQ       -1.8380   30.0230   -6.5880 C.ar    1  1AW1        0.0527
     13  CAY       -0.7930   29.2670   -6.2560 C.ar    1  1AW1        0.0811
     14  CBD       -0.8490   27.8950   -5.5550 C.3     1  1AW1        0.0372
     15  CAB       -1.9290   27.0950   -6.2720 C.3     1  1AW1        0.0060
     16  CAC        0.5120   27.2090   -5.6210 C.3     1  1AW1        0.0060
     17  CAA       -1.2040   28.0140   -4.0750 C.3     1  1AW1        0.0060
     18  NAR        0.3170   29.8740   -6.6260 N.ar    1  1AW1       -0.1683
     19  NBC        0.0160   30.9420   -7.1570 N.ar    1  1AW1       -0.2145
     20  CAW        0.9390   31.7760   -7.6610 C.ar    1  1AW1        0.0856
     21  CAP        0.9690   33.1570   -7.3770 C.ar    1  1AW1        0.0372
     22  CAK        1.9050   31.2140   -8.5200 C.ar    1  1AW1        0.0193
     23  CAH        2.8970   32.0070   -9.0760 C.ar    1  1AW1        0.0029
     24  CAJ        2.9200   33.3710   -8.7830 C.ar    1  1AW1        0.0182
     25  CAV        1.9750   33.9560   -7.9460 C.ar    1  1AW1        0.0906
     26  NAD        2.0510   35.2700   -7.6990 N.pl3   1  1AW1       -0.1280
@<TRIPOS>BOND
     1    23    24   ar
     2    23    22   ar
     3    24    25   ar
     4     1     2   ar
     5     1     6   ar
     6    22    20   ar
     7     2     3   ar
     8    25    26    1
     9    25    21   ar
    10     7     6    1
    11     7     8   am
    12    10    11    1
    13    10     8   am
    14    20    21   ar
    15    20    19    1
    16     6     5   ar
    17    19    11   ar
    18    19    18   ar
    19    11    12   ar
    20     8     9    2
    21     3     4   ar
    22    18    13   ar
    23    12    13   ar
    24     5     4   ar
    25    15    14    1
    26    13    14    1
    27    16    14    1
    28    14    17    1
