@<TRIPOS>MOLECULE
3f3v_1BU_A_1.pdb
 38 42 0 0 0
SMALL
GASTEIGER

@<TRIPOS>ATOM
      1  C4       -11.0050   37.0580   -6.3800 C.2     1  1BU1        0.0699
      2  C5        -9.7470   37.6040   -6.4520 C.2     1  1BU1        0.1008
      3  C6        -8.7980   36.9380   -7.1820 C.2     1  1BU1        0.3642
      4  N1        -9.1670   35.8230   -7.7430 N.2     1  1BU1       -0.0327
      5  N3       -11.2740   35.9340   -6.9890 N.2     1  1BU1       -0.2225
      6  CAA        2.1150   35.7970   -9.2860 C.3     1  1BU1        0.0311
      7  CBA        2.0660   34.3150   -9.5840 C.ar    1  1BU1       -0.0204
      8  CAQ        1.0700   33.5640   -9.0270 C.ar    1  1BU1        0.0149
      9  CAI        3.0040   33.7670  -10.4080 C.ar    1  1BU1       -0.0042
     10  CAG        2.9720   32.4450  -10.6900 C.ar    1  1BU1        0.0012
     11  CAJ        1.9880   31.6870  -10.1390 C.ar    1  1BU1        0.0192
     12  CBE        1.0400   32.2470   -9.3330 C.ar    1  1BU1        0.0839
     13  NBK        0.1640   31.4620   -8.8120 N.ar    1  1BU1       -0.2145
     14  NAV        0.5300   30.4060   -8.3540 N.ar    1  1BU1       -0.1683
     15  CBF       -0.4940   29.8160   -7.8580 C.ar    1  1BU1        0.0811
     16  CBL       -0.4440   28.4130   -7.2500 C.3     1  1BU1        0.0372
     17  CAC        0.9790   28.0920   -6.9270 C.3     1  1BU1        0.0060
     18  CAD       -1.2480   28.2390   -6.0230 C.3     1  1BU1        0.0060
     19  CAB       -1.0220   27.4540   -8.2480 C.3     1  1BU1        0.0060
     20  CAR       -1.5330   30.5910   -8.0430 C.ar    1  1BU1        0.0527
     21  CBG       -1.0880   31.6680   -8.6140 C.ar    1  1BU1        0.1587
     22  NAX       -1.7850   32.7080   -9.0140 N.am    1  1BU1       -0.1418
     23  CAZ       -2.8330   33.1740   -8.4240 C.2     1  1BU1        0.3491
     24  OAF       -3.1890   32.7220   -7.3730 O.2     1  1BU1       -0.2484
     25  NAW       -3.4090   34.1660   -9.0420 N.am    1  1BU1       -0.1606
     26  CBC       -4.4350   34.9190   -8.6220 C.ar    1  1BU1        0.0752
     27  CAL       -5.2970   35.5370   -9.5100 C.ar    1  1BU1        0.0203
     28  CAN       -6.3370   36.3370   -9.0800 C.ar    1  1BU1        0.0457
     29  CAK       -4.6500   35.1690   -7.2910 C.ar    1  1BU1        0.0203
     30  CAM       -5.6800   35.9640   -6.8690 C.ar    1  1BU1        0.0457
     31  CBD       -6.5570   36.5590   -7.7520 C.ar    1  1BU1        0.1835
     32  NAY       -7.5620   37.3420   -7.3330 N.pl3   1  1BU1       -0.0060
     33  CAS       -9.5100   38.7770   -5.7910 C.2     1  1BU1        0.0264
     34  CBB      -10.5190   39.3810   -5.0700 C.2     1  1BU1        0.0855
     35  NAE      -10.3200   40.5050   -4.4220 N.pl3   1  1BU1       -0.1284
     36  CAO      -11.7650   38.8160   -5.0140 C.2     1  1BU1       -0.0018
     37  CAP      -12.0120   37.6510   -5.6720 C.3     1  1BU1        0.0731
     38  C2       -10.3560   35.3310   -7.6420 C.3     1  1BU1        0.3917
@<TRIPOS>BOND
     1    10     9   ar
     2    10    11   ar
     3     9     7   ar
     4    11    12   ar
     5     7     6    1
     6     7     8   ar
     7    27    28   ar
     8    27    26   ar
     9    12     8   ar
    10    12    13    1
    11    28    31   ar
    12    25    26    1
    13    25    23   am
    14    22    21    1
    15    22    23   am
    16    13    21   ar
    17    13    14   ar
    18    26    29   ar
    19    21    20   ar
    20    23    24    2
    21    14    15   ar
    22    19    16    1
    23    20    15   ar
    24    15    16    1
    25    31    32    1
    26    31    30   ar
    27     4    38    1
    28     4     3    2
    29    38     5    1
    30    32     3    1
    31    29    30   ar
    32    16    17    1
    33    16    18    1
    34     3     2    1
    35     5     1    2
    36     2     1    1
    37     2    33    2
    38     1    37    1
    39    33    34    1
    40    37    36    1
    41    34    36    2
    42    34    35    1
