@<TRIPOS>MOLECULE
3f3w_1BU_A_1.pdb
 38 42 0 0 0
SMALL
GASTEIGER

@<TRIPOS>ATOM
      1  C4        11.8580   36.5880    6.2170 C.2     1  1BU1        0.0878
      2  C5        10.5810   37.1740    6.4450 C.2     1  1BU1        0.1048
      3  C6         9.6720   36.5080    7.2970 C.2     1  1BU1        0.3645
      4  N1        10.0980   35.3240    7.8340 N.2     1  1BU1       -0.0327
      5  N3        12.1710   35.3950    6.7830 N.2     1  1BU1       -0.2184
      6  CAA       -1.4980   35.7560    8.7070 C.3     1  1BU1        0.0311
      7  CBA       -1.5810   34.2180    9.0170 C.ar    1  1BU1       -0.0204
      8  CAQ       -0.6300   33.3550    8.4760 C.ar    1  1BU1        0.0149
      9  CAI       -2.5980   33.6940    9.8180 C.ar    1  1BU1       -0.0042
     10  CAG       -2.6590   32.3400   10.0760 C.ar    1  1BU1        0.0012
     11  CAJ       -1.6920   31.4950    9.5190 C.ar    1  1BU1        0.0192
     12  CBE       -0.6610   31.9860    8.7340 C.ar    1  1BU1        0.0839
     13  NBK        0.2570   31.1640    8.1880 N.ar    1  1BU1       -0.2145
     14  NAV       -0.0540   30.1120    7.6050 N.ar    1  1BU1       -0.1683
     15  CBF        1.0760   29.5610    7.1600 C.ar    1  1BU1        0.0811
     16  CBL        1.1350   28.2040    6.4140 C.3     1  1BU1        0.0372
     17  CAC       -0.3160   27.7060    6.2360 C.3     1  1BU1        0.0060
     18  CAD        1.8310   28.3070    5.0350 C.3     1  1BU1        0.0060
     19  CAB        1.9730   27.2280    7.2850 C.3     1  1BU1        0.0060
     20  CAR        2.1360   30.3360    7.4910 C.ar    1  1BU1        0.0527
     21  CBG        1.5950   31.3730    8.1210 C.ar    1  1BU1        0.1587
     22  NAX        2.2520   32.4120    8.6330 N.am    1  1BU1       -0.1418
     23  CAZ        3.3670   32.9710    8.1430 C.2     1  1BU1        0.3491
     24  OAF        3.9100   32.5540    7.1230 O.2     1  1BU1       -0.2484
     25  NAW        3.8660   34.0320    8.8240 N.am    1  1BU1       -0.1606
     26  CBC        4.9870   34.7400    8.5120 C.ar    1  1BU1        0.0752
     27  CAL        5.0360   36.1250    8.7340 C.ar    1  1BU1        0.0203
     28  CAN        6.1940   36.8660    8.4120 C.ar    1  1BU1        0.0457
     29  CAK        6.1430   34.1190    7.9940 C.ar    1  1BU1        0.0203
     30  CAM        7.2840   34.8730    7.6850 C.ar    1  1BU1        0.0457
     31  CBD        7.3330   36.2640    7.8840 C.ar    1  1BU1        0.1835
     32  NAY        8.4290   37.0110    7.5890 N.pl3   1  1BU1       -0.0060
     33  CAS       10.2610   38.3830    5.8300 C.2     1  1BU1        0.0299
     34  CBB       11.2130   38.9770    4.9950 C.2     1  1BU1        0.1032
     35  NAE       10.9360   40.1390    4.4070 N.2     1  1BU1       -0.1480
     36  CAO       12.4650   38.3900    4.7680 C.2     1  1BU1        0.0224
     37  CAP       12.7980   37.1910    5.3790 C.2     1  1BU1        0.0207
     38  C2        11.2930   34.7790    7.5750 C.3     1  1BU1        0.3920
@<TRIPOS>BOND
     1    35    34    2
     2    36    34    1
     3    36    37    2
     4    34    33    1
     5    18    16    1
     6    37     1    1
     7    33     2    2
     8     1     2    1
     9     1     5    2
    10    17    16    1
    11    16    15    1
    12    16    19    1
    13     2     3    1
    14     5    38    1
    15    24    23    2
    16    15    20   ar
    17    15    14   ar
    18     3    32    1
    19     3     4    2
    20    20    21   ar
    21    38     4    1
    22    32    31    1
    23    14    13   ar
    24    30    31   ar
    25    30    29   ar
    26    31    28   ar
    27    29    26   ar
    28    21    13   ar
    29    21    22    1
    30    23    22   am
    31    23    25   am
    32    13    12    1
    33    28    27   ar
    34     8    12   ar
    35     8     7   ar
    36    26    27   ar
    37    26    25    1
    38     6     7    1
    39    12    11   ar
    40     7     9   ar
    41    11    10   ar
    42     9    10   ar
