@<TRIPOS>MOLECULE
3f3y_4OA_A_1.pdb
 27 30 0 0 0
SMALL
GASTEIGER

@<TRIPOS>ATOM
      1  C1        11.5190   23.1600   -8.2710 C.3   326  4OA326      0.0026
      2  C10       12.3490   23.1150   -9.5860 C.3   326  4OA326      0.0002
      3  C11       11.3870   20.7680  -10.1420 C.3   326  4OA326      0.0000
      4  C12       11.6930   19.3570  -10.6760 C.3   326  4OA326      0.0000
      5  C13       12.4300   19.4260  -12.0150 C.3   326  4OA326      0.0000
      6  C14       13.7090   20.2190  -11.7980 C.3   326  4OA326      0.0000
      7  C15       14.5430   19.9930  -13.0530 C.3   326  4OA326      0.0000
      8  C16       14.1650   18.5700  -13.4900 C.3   326  4OA326      0.0000
      9  C17       13.0430   18.1040  -12.5470 C.3   326  4OA326      0.0000
     10  C18       11.5210   20.0830  -13.0870 C.3   326  4OA326      0.0000
     11  C19       11.6090   23.9260  -10.6550 C.3   326  4OA326      0.0000
     12  O1B       14.1870   22.9250   -5.6720 O.3   326  4OA326     -0.2232
     13  C2        12.2230   22.7100   -7.0370 C.3   326  4OA326      0.0329
     14  C20       12.1070   17.0670  -13.2000 C.3   326  4OA326      0.0006
     15  C21       11.1150   16.4870  -12.1970 C.3   326  4OA326      0.0000
     16  C22       12.8930   15.9280  -13.8690 C.3   326  4OA326      0.0118
     17  C23       13.7410   15.0880  -12.8830 C.3   326  4OA326      0.1141
     18  C24       14.2990   13.8140  -13.5160 C.2   326  4OA326      0.3649
     19  C3        13.5390   23.4560   -6.8380 C.3   326  4OA326      0.1520
     20  C4        14.3890   23.1840   -8.0550 C.3   326  4OA326      0.0329
     21  O4        14.5680   12.8360  -12.7640 O.co2 326  4OA326     -0.2457
     22  O4A       14.4810   13.7730  -14.7610 O.co2 326  4OA326     -0.2457
     23  C5        13.7080   23.7730   -9.3000 C.3   326  4OA326      0.0025
     24  C6        14.6340   23.7240  -10.5250 C.3   326  4OA326      0.0001
     25  C7        14.8170   22.3280  -11.0930 C.3   326  4OA326      0.0000
     26  C8        13.4820   21.6580  -11.3510 C.3   326  4OA326      0.0000
     27  C9        12.6330   21.6740  -10.0680 C.3   326  4OA326      0.0000
@<TRIPOS>BOND
     1    22    18   ar
     2    16    14    1
     3    16    17    1
     4    18    17    1
     5    18    21   ar
     6     8     7    1
     7     8     9    1
     8    14     9    1
     9    14    15    1
    10    10     5    1
    11     7     6    1
    12     9     5    1
    13     5     6    1
    14     5     4    1
    15     6    26    1
    16    26    25    1
    17    26    27    1
    18    25    24    1
    19     4     3    1
    20    11     2    1
    21    24    23    1
    22     3    27    1
    23    27     2    1
    24     2    23    1
    25     2     1    1
    26    23    20    1
    27     1    13    1
    28    20    19    1
    29    13    19    1
    30    19    12    1
