@<TRIPOS>MOLECULE
3f3y_A3P_A_1.pdb
 27 29 0 0 0
SMALL
GASTEIGER

@<TRIPOS>ATOM
      1  P1        22.9230   30.5880   -2.5500 P.3   702  A3P702      0.5327
      2  O1P       24.3730   30.4170   -2.7630 O.3   702  A3P702     -0.1145
      3  O2P       22.0690   30.8840   -3.8220 O.2   702  A3P702     -0.2224
      4  O3P       22.6170   31.4180   -1.3690 O.3   702  A3P702     -0.1145
      5  P2        18.5370   24.3810   -2.7560 P.3   702  A3P702      0.5327
      6  O4P       17.3990   24.3430   -1.8550 O.3   702  A3P702     -0.1145
      7  O5P       19.4710   23.2020   -2.5780 O.3   702  A3P702     -0.1145
      8  O6P       18.0400   24.6710   -4.1990 O.2   702  A3P702     -0.2224
      9  O5'       19.4260   25.5750   -2.2840 O.3   702  A3P702     -0.2675
     10  C5'       20.3460   26.3240   -3.0690 C.3   702  A3P702      0.1859
     11  C4'       21.3000   27.0690   -2.1200 C.3   702  A3P702      0.1796
     12  O4'       22.1550   26.1440   -1.3930 O.3   702  A3P702     -0.3136
     13  C3'       22.2440   27.9960   -2.8600 C.3   702  A3P702      0.1928
     14  O3'       22.4380   29.1440   -2.0340 O.3   702  A3P702     -0.2673
     15  C2'       23.4800   27.1390   -2.9120 C.3   702  A3P702      0.2543
     16  O2'       24.6800   27.8390   -3.2030 O.3   702  A3P702     -0.2131
     17  C1'       23.5000   26.5100   -1.5510 C.3   702  A3P702      0.3185
     18  N9        24.4730   25.3830   -1.5620 N.pl3 702  A3P702     -0.1439
     19  C8        24.5190   24.3430   -2.4490 C.3   702  A3P702      0.3377
     20  N7        25.6000   23.5490   -2.1950 N.2   702  A3P702     -0.2095
     21  C5        26.2270   24.0770   -1.1470 C.2   702  A3P702      0.2526
     22  C6        27.4220   23.7450   -0.3990 C.2   702  A3P702      0.4393
     23  N6        28.0970   22.6400   -0.7070 N.pl3 702  A3P702      0.2180
     24  N1        27.7720   24.5630    0.6330 N.2   702  A3P702      0.0021
     25  C2        27.0700   25.6530    0.9630 C.3   702  A3P702      0.5254
     26  N3        25.9610   25.9980    0.3190 N.2   702  A3P702     -0.0055
     27  C4        25.5180   25.2790   -0.7440 C.2   702  A3P702      0.3518
@<TRIPOS>BOND
     1     8     5    2
     2     3     1    2
     3    16    15    1
     4    10     9    1
     5    10    11    1
     6    15    13    1
     7    15    17    1
     8    13    11    1
     9    13    14    1
    10     2     1    1
    11     5     7    1
    12     5     9    1
    13     5     6    1
    14     1    14    1
    15     1     4    1
    16    19    20    1
    17    19    18    1
    18    20    21    2
    19    11    12    1
    20    18    17    1
    21    18    27    1
    22    17    12    1
    23    21    27    1
    24    21    22    1
    25    27    26    2
    26    23    22    1
    27    22    24    2
    28    26    25    1
    29    24    25    1
