@<TRIPOS>MOLECULE
3f4b_TCL_A_1.pdb
 17 18 0 0 0
SMALL
GASTEIGER

@<TRIPOS>ATOM
      1  C1        -0.3070  -17.4150    0.6820 C.ar  400  TCL400      0.0566
      2  C2        -1.4880  -16.8490    0.2120 C.ar  400  TCL400      0.0611
      3  C6         0.3350  -18.3810   -0.0890 C.ar  400  TCL400      0.2307
      4  C5        -0.2010  -18.7590   -1.3000 C.ar  400  TCL400      0.1840
      5  C4        -1.3720  -18.1780   -1.7780 C.ar  400  TCL400      0.0417
      6  C3        -2.0280  -17.2290   -1.0090 C.ar  400  TCL400      0.0147
      7  C11       -0.5340  -23.6680   -2.0930 C.ar  400  TCL400      0.0587
      8  C10        0.4250  -23.1780   -2.9560 C.ar  400  TCL400      0.0259
      9  C9         0.7310  -21.8390   -2.9130 C.ar  400  TCL400      0.0929
     10  C8         0.1000  -21.0010   -2.0270 C.ar  400  TCL400      0.1559
     11  C12       -1.1850  -22.8290   -1.1890 C.ar  400  TCL400      0.0146
     12  C13       -0.8750  -21.4730   -1.1550 C.ar  400  TCL400      0.0392
     13  O7         0.4580  -19.6870   -2.0540 O.3   400  TCL400     -0.4494
     14 CL14       -2.3370  -15.6160    1.1720 Cl    400  TCL400     -0.0821
     15 CL15       -0.9000  -25.4120   -2.1880 Cl    400  TCL400     -0.0822
     16 CL16        1.9660  -21.1790   -4.0250 Cl    400  TCL400     -0.0790
     17  O17        1.4840  -18.9780    0.3200 O.3   400  TCL400     -0.2833
@<TRIPOS>BOND
     1    16     9    1
     2     8     9   ar
     3     8     7   ar
     4     9    10   ar
     5    15     7    1
     6     7    11   ar
     7    13    10    1
     8    13     4    1
     9    10    12   ar
    10     5     4   ar
    11     5     6   ar
    12     4     3   ar
    13    11    12   ar
    14     6     2   ar
    15     3    17    1
    16     3     1   ar
    17     2     1   ar
    18     2    14    1
