@<TRIPOS>MOLECULE
3f4b_NAD_A_1.pdb
 44 48 0 0 0
SMALL
GASTEIGER

@<TRIPOS>ATOM
      1  PA         1.9600  -18.9240   -8.3830 P.3   450  NAD450      0.2189
      2  O1A        2.0670  -17.6960   -9.2510 O.2   450  NAD450     -0.5170
      3  O2A        0.9250  -19.9850   -8.6600 O.3   450  NAD450     -0.4371
      4  O5B        3.4200  -19.6000   -8.3030 O.3   450  NAD450     -0.3112
      5  C5B        3.6570  -20.8790   -7.6950 C.3   450  NAD450      0.1813
      6  C4B        4.5240  -21.6750   -8.6630 C.3   450  NAD450      0.1821
      7  O4B        5.0880  -22.8740   -8.1110 O.3   450  NAD450     -0.3135
      8  C3B        3.6500  -22.0990   -9.8280 C.3   450  NAD450      0.2184
      9  O3B        4.2100  -21.5960  -11.0400 O.3   450  NAD450     -0.2174
     10  C2B        3.6750  -23.6130   -9.7990 C.3   450  NAD450      0.2570
     11  O2B        3.6160  -24.1180  -11.1390 O.3   450  NAD450     -0.2130
     12  C1B        5.0100  -23.8930   -9.1210 C.3   450  NAD450      0.3186
     13  N9A        5.1930  -25.2770   -8.5880 N.pl3 450  NAD450     -0.1439
     14  C8A        4.2980  -26.0110   -7.9060 C.3   450  NAD450      0.3377
     15  N7A        4.8530  -27.2020   -7.5940 N.2   450  NAD450     -0.2095
     16  C5A        6.1100  -27.2120   -8.0830 C.2   450  NAD450      0.2526
     17  C6A        7.1500  -28.1420   -8.0730 C.2   450  NAD450      0.4393
     18  N6A        7.0040  -29.3490   -7.4760 N.pl3 450  NAD450      0.2180
     19  N1A        8.3250  -27.8310   -8.6780 N.2   450  NAD450      0.0021
     20  C2A        8.5020  -26.6430   -9.2710 C.3   450  NAD450      0.5254
     21  N3A        7.5130  -25.7390   -9.2880 N.2   450  NAD450     -0.0055
     22  C4A        6.3140  -25.9950   -8.7070 C.2   450  NAD450      0.3518
     23  O3         1.6650  -18.4940   -6.8550 O.3   450  NAD450     -0.2703
     24  PN         2.3720  -17.2980   -6.0550 P.3   450  NAD450      0.2189
     25  O1N        3.1340  -16.3990   -7.0030 O.2   450  NAD450     -0.5170
     26  O2N        1.3070  -16.7380   -5.1480 O.3   450  NAD450     -0.4371
     27  O5D        3.4690  -18.0850   -5.1870 O.3   450  NAD450     -0.3112
     28  C5D        4.8240  -17.6600   -5.1080 C.3   450  NAD450      0.1813
     29  C4D        5.2560  -17.7960   -3.6580 C.3   450  NAD450      0.1799
     30  O4D        4.7100  -16.7010   -2.9220 O.3   450  NAD450     -0.3327
     31  C3D        4.7220  -19.0670   -2.9960 C.3   450  NAD450      0.2158
     32  O3D        5.7140  -19.6610   -2.1670 O.3   450  NAD450     -0.2175
     33  C2D        3.6040  -18.5820   -2.1100 C.3   450  NAD450      0.2309
     34  O2D        3.4550  -19.4430   -0.9890 O.3   450  NAD450     -0.2158
     35  C1D        4.1150  -17.2040   -1.7170 C.3   450  NAD450      0.2263
     36  N1N        3.0690  -16.2880   -1.2430 N.pl3 450  NAD450     -0.2787
     37  C2N        2.0050  -16.0090   -2.0140 C.3   450  NAD450      0.1244
     38  C3N        1.0260  -15.1300   -1.5550 C.2   450  NAD450      0.0544
     39  C7N       -0.1770  -14.8070   -2.3980 C.2   450  NAD450      0.2818
     40  O7N       -1.1050  -14.2300   -1.8480 O.2   450  NAD450     -0.2670
     41  N7N       -0.2310  -15.1970   -3.6790 N.am  450  NAD450     -0.0839
     42  C4N        1.1680  -14.5110   -0.3140 C.2   450  NAD450      0.0033
     43  C5N        2.2800  -14.8210    0.4460 C.2   450  NAD450      0.0157
     44  C6N        3.2320  -15.7080   -0.0450 C.2   450  NAD450      0.0633
@<TRIPOS>BOND
     1    11    10    1
     2     9     8    1
     3     8    10    1
     4     8     6    1
     5    10    12    1
     6    21    20    1
     7    21    22    2
     8    20    19    1
     9     2     1    2
    10    12    13    1
    11    12     7    1
    12    22    13    1
    13    22    16    1
    14    19    17    2
    15     6     7    1
    16     6     5    1
    17     3     1    1
    18    13    14    1
    19     1     4    1
    20     1    23    1
    21     4     5    1
    22    16    17    1
    23    16    15    2
    24    17    18    1
    25    14    15    1
    26    25    24    2
    27    23    24    1
    28    24    27    1
    29    24    26    1
    30    27    28    1
    31    28    29    1
    32    41    39   am
    33    29    31    1
    34    29    30    1
    35    31    32    1
    36    31    33    1
    37    30    35    1
    38    39    40    2
    39    39    38    1
    40    33    35    1
    41    33    34    1
    42    37    38    1
    43    37    36    1
    44    35    36    1
    45    38    42    2
    46    36    44    1
    47    42    43    1
    48    44    43    2
