@<TRIPOS>MOLECULE
3f4f_UMP_A_1.pdb
 20 21 0 0 0
SMALL
GASTEIGER

@<TRIPOS>ATOM
      1  N1       -13.5020  -24.8600   11.0870 N.3   200  UMP200     -0.2110
      2  C2       -13.5840  -24.9400    9.6420 C.3   200  UMP200      0.2945
      3  N3       -12.4250  -25.5990    9.1070 N.3   200  UMP200     -0.1446
      4  C4       -11.2320  -24.8780    9.3720 C.3   200  UMP200      0.2301
      5  C5       -10.9670  -24.9310   10.8550 C.3   200  UMP200      0.0690
      6  C6       -12.1800  -24.7200   11.7250 C.3   200  UMP200      0.0820
      7  O2       -14.8230  -25.4830    9.1970 O.3   200  UMP200     -0.1842
      8  O4       -10.1590  -25.4690    8.7300 O.3   200  UMP200     -0.2035
      9  C1'      -14.6860  -24.8320   11.9460 C.3   200  UMP200      0.1818
     10  C2'      -14.7630  -26.1630   12.6790 C.3   200  UMP200      0.0824
     11  C3'      -14.0790  -25.9590   14.0190 C.3   200  UMP200      0.1854
     12  C4'      -13.9050  -24.4340   14.1060 C.3   200  UMP200      0.1771
     13  O3'      -14.7610  -26.6010   15.1170 O.3   200  UMP200     -0.2203
     14  O4'      -14.5390  -23.8230   12.9450 O.3   200  UMP200     -0.3380
     15  C5'      -14.1530  -23.8080   15.4700 C.3   200  UMP200      0.1858
     16  O5'      -14.1830  -22.3890   15.4590 O.3   200  UMP200     -0.2675
     17  P        -13.7380  -21.5140   16.7630 P.3   200  UMP200      0.5327
     18  OP1      -12.3170  -21.0770   16.5030 O.2   200  UMP200     -0.2224
     19  OP2      -14.6900  -20.3430   16.6960 O.3   200  UMP200     -0.1145
     20  OP3      -13.9110  -22.4390   17.9420 O.3   200  UMP200     -0.1145
@<TRIPOS>BOND
     1     8     4    1
     2     3     4    1
     3     3     2    1
     4     7     2    1
     5     4     5    1
     6     2     1    1
     7     5     6    1
     8     1     6    1
     9     1     9    1
    10     9    10    1
    11     9    14    1
    12    10    11    1
    13    14    12    1
    14    11    12    1
    15    11    13    1
    16    12    15    1
    17    16    15    1
    18    16    17    1
    19    18    17    2
    20    19    17    1
    21    17    20    1
