@<TRIPOS>MOLECULE
3f4n_PXP_A_1.pdb
 16 16 0 0 0
SMALL
GASTEIGER

@<TRIPOS>ATOM
      1  N1        29.2150    6.4480   12.4200 N.ar  501  PXP501     -0.2452
      2  C2        28.6040    5.9790   11.3200 C.ar  501  PXP501      0.0979
      3  C2A       29.3020    5.0840   10.3380 C.3   501  PXP501      0.0555
      4  C3        27.2210    6.3340   11.0260 C.ar  501  PXP501      0.2073
      5  O3        26.5520    5.8840    9.9310 O.3   501  PXP501     -0.2856
      6  C4        26.5560    7.2030   11.9910 C.ar  501  PXP501      0.0506
      7  C4A       25.1790    7.6080   11.6990 C.3   501  PXP501      0.2116
      8  O4A       25.1570    8.2960   10.6840 O.3   501  PXP501     -0.2151
      9  C5        27.3270    7.6790   13.1630 C.ar  501  PXP501      0.0286
     10  C6        28.6520    7.2550   13.3260 C.ar  501  PXP501      0.0966
     11  C5A       26.6310    8.5820   14.1540 C.3   501  PXP501      0.1816
     12  O4P       26.0680    7.7880   15.2140 O.3   501  PXP501     -0.2653
     13  P         25.1910    8.6040   16.2810 P.3   501  PXP501      0.5329
     14  O1P       26.2110    9.1690   17.2260 O.3   501  PXP501     -0.1145
     15  O2P       24.3300    7.4620   16.8240 O.3   501  PXP501     -0.1145
     16  O3P       24.4440    9.6590   15.5130 O.2   501  PXP501     -0.2224
@<TRIPOS>BOND
     1     5     4    1
     2     3     2    1
     3     8     7    1
     4     4     2   ar
     5     4     6   ar
     6     2     1   ar
     7     7     6    1
     8     6     9   ar
     9     1    10   ar
    10     9    10   ar
    11     9    11    1
    12    11    12    1
    13    12    13    1
    14    16    13    2
    15    13    15    1
    16    13    14    1
