@<TRIPOS>MOLECULE
3f4x_KLT_A_1.pdb
 22 24 0 0 0
SMALL
GASTEIGER

@<TRIPOS>ATOM
      1  O1        -5.3770    1.2270   18.1710 O.2   300  KLT300     -0.1503
      2  S1        -5.8570    0.9990   16.6590 S.O2  300  KLT300      0.0943
      3  O2        -7.3460    0.8780   16.6530 O.2   300  KLT300     -0.1503
      4  N1        -5.2300   -0.2680   16.1110 N.3   300  KLT300      0.0392
      5  C1        -5.4270    2.4330   15.6740 C.ar  300  KLT300      0.1354
      6  C2        -4.6370    2.3300   14.5210 C.ar  300  KLT300      0.0212
      7  C3        -5.8970    3.6920   16.0590 C.ar  300  KLT300      0.0763
      8 CL1        -6.8690    3.8740   17.4770 Cl    300  KLT300     -0.0809
      9  C4        -5.5910    4.8330   15.3170 C.ar  300  KLT300      0.0126
     10  C5        -4.8060    4.7270   14.1810 C.ar  300  KLT300      0.0013
     11  C6        -4.3290    3.4790   13.7730 C.ar  300  KLT300      0.0325
     12  C7        -3.4490    3.4020   12.5090 C.3   300  KLT300      0.2578
     13  O8        -2.6180    2.2380   12.5430 O.3   300  KLT300     -0.1906
     14  C9        -2.5710    4.6590   12.4000 C.ar  300  KLT300      0.0420
     15  C10       -1.6230    5.2360   13.2530 C.ar  300  KLT300      0.0011
     16  C11       -0.9790    6.4150   12.8690 C.ar  300  KLT300     -0.0001
     17  C12       -1.2780    7.0140   11.6440 C.ar  300  KLT300      0.0007
     18  C13       -2.2260    6.4400   10.7990 C.ar  300  KLT300      0.0115
     19  C14       -2.8700    5.2600   11.1760 C.ar  300  KLT300      0.0834
     20  C15       -3.8380    4.4890   10.5390 C.1   300  KLT300      0.1526
     21  O3        -4.2990    4.7760    9.4410 O.2   300  KLT300     -0.2222
     22  N2        -4.2210    3.4250   11.2460 N.2   300  KLT300     -0.1674
@<TRIPOS>BOND
     1    21    20    2
     2    20    19    1
     3    20    22    2
     4    18    19   ar
     5    18    17   ar
     6    19    14   ar
     7    22    12    1
     8    17    16   ar
     9    14    12    1
    10    14    15   ar
    11    12    13    1
    12    12    11    1
    13    16    15   ar
    14    11    10   ar
    15    11     6   ar
    16    10     9   ar
    17     6     5   ar
    18     9     7   ar
    19     5     7   ar
    20     5     2    1
    21     7     8    1
    22     4     2    1
    23     3     2    2
    24     2     1    2
