@<TRIPOS>MOLECULE
3f53_SIA_A_1.pdb
 21 21 0 0 0
SMALL
GASTEIGER

@<TRIPOS>ATOM
      1  C1        -8.1510   27.8190   -8.8750 C.2   401  SIA401      0.4179
      2  C2        -8.4620   28.6230   -7.6120 C.3   401  SIA401      0.3155
      3  C3        -9.7580   28.1650   -6.9360 C.3   401  SIA401      0.1056
      4  C4        -9.6100   26.8350   -6.2010 C.3   401  SIA401      0.1798
      5  C5        -8.4040   26.8630   -5.2680 C.3   401  SIA401      0.1554
      6  C6        -7.1640   27.2230   -6.0920 C.3   401  SIA401      0.1734
      7  C7        -5.8800   27.2780   -5.2760 C.3   401  SIA401      0.2135
      8  C8        -4.7430   27.9320   -6.0510 C.3   401  SIA401      0.2173
      9  C9        -3.4210   27.5770   -5.3730 C.3   401  SIA401      0.2175
     10  C10       -8.3950   25.1370   -3.4750 C.2   401  SIA401      0.2420
     11  C11       -8.8460   26.1940   -2.5060 C.3   401  SIA401      0.0964
     12  N5        -8.2020   25.5110   -4.7490 N.am  401  SIA401     -0.2020
     13  O1A       -6.9730   27.4880   -9.1140 O.co2 401  SIA401     -0.2401
     14  O1B       -9.0750   27.5640   -9.6610 O.co2 401  SIA401     -0.2401
     15  O2        -8.6440   29.9980   -7.9740 O.3   401  SIA401     -0.1830
     16  O4       -10.8200   26.5670   -5.4840 O.3   401  SIA401     -0.2210
     17  O6        -7.3530   28.5040   -6.7120 O.3   401  SIA401     -0.3220
     18  O7        -6.1130   28.0310   -4.0850 O.3   401  SIA401     -0.2176
     19  O8        -4.7380   27.4650   -7.4170 O.3   401  SIA401     -0.2175
     20  O9        -2.3550   28.1720   -6.1240 O.3   401  SIA401     -0.2175
     21  O10       -8.2070   23.9720   -3.1060 O.2   401  SIA401     -0.2733
@<TRIPOS>BOND
     1    14     1   ar
     2    13     1   ar
     3     1     2    1
     4    15     2    1
     5     2     3    1
     6     2    17    1
     7    19     8    1
     8     3     4    1
     9    17     6    1
    10     4    16    1
    11     4     5    1
    12    20     9    1
    13     6     7    1
    14     6     5    1
    15     8     9    1
    16     8     7    1
    17     7    18    1
    18     5    12    1
    19    12    10   am
    20    10    21    2
    21    10    11    1
