@<TRIPOS>MOLECULE
3f5a_SIA_A_1.pdb
 21 21 0 0 0
SMALL
GASTEIGER

@<TRIPOS>ATOM
      1  C1        -8.0700   27.8890   -8.8270 C.2   401  SIA401      0.4179
      2  C2        -8.3920   28.6230   -7.5210 C.3   401  SIA401      0.3155
      3  C3        -9.7060   28.1710   -6.8810 C.3   401  SIA401      0.1056
      4  C4        -9.5520   26.8580   -6.1230 C.3   401  SIA401      0.1798
      5  C5        -8.3360   26.8710   -5.1920 C.3   401  SIA401      0.1554
      6  C6        -7.0820   27.2370   -5.9910 C.3   401  SIA401      0.1734
      7  C7        -5.7960   27.3160   -5.1680 C.3   401  SIA401      0.2135
      8  C8        -4.6580   27.9510   -5.9700 C.3   401  SIA401      0.2173
      9  C9        -3.3090   27.6740   -5.3080 C.3   401  SIA401      0.2175
     10  C10       -8.3550   25.1680   -3.3820 C.2   401  SIA401      0.2420
     11  C11       -8.7590   26.2430   -2.4110 C.3   401  SIA401      0.0964
     12  N5        -8.1720   25.5140   -4.6680 N.am  401  SIA401     -0.2020
     13  O1A       -8.9850   27.6570   -9.6480 O.co2 401  SIA401     -0.2401
     14  O1B       -6.8850   27.5660   -9.0540 O.co2 401  SIA401     -0.2401
     15  O2        -8.6460   29.9770   -7.8050 O.3   401  SIA401     -0.1830
     16  O4       -10.7640   26.6120   -5.4100 O.3   401  SIA401     -0.2210
     17  O6        -7.2960   28.5310   -6.6050 O.3   401  SIA401     -0.3220
     18  O7        -6.0220   28.1490   -4.0220 O.3   401  SIA401     -0.2176
     19  O8        -4.6420   27.4490   -7.3200 O.3   401  SIA401     -0.2175
     20  O9        -2.2890   28.3490   -6.0510 O.3   401  SIA401     -0.2175
     21  O10       -8.1970   24.0070   -2.9970 O.2   401  SIA401     -0.2733
@<TRIPOS>BOND
     1    13     1   ar
     2    14     1   ar
     3     1     2    1
     4    15     2    1
     5     2     3    1
     6     2    17    1
     7    19     8    1
     8     3     4    1
     9    17     6    1
    10     4    16    1
    11     4     5    1
    12    20     9    1
    13     6     5    1
    14     6     7    1
    15     8     9    1
    16     8     7    1
    17     5    12    1
    18     7    18    1
    19    12    10   am
    20    10    21    2
    21    10    11    1
