@<TRIPOS>MOLECULE
3f5e_SIA_A_1.pdb
 21 21 0 0 0
SMALL
GASTEIGER

@<TRIPOS>ATOM
      1  C1        -8.1310   27.7980   -8.7920 C.2   401  SIA401      0.4179
      2  C2        -8.4510   28.5850   -7.5160 C.3   401  SIA401      0.3155
      3  C3        -9.7630   28.1190   -6.8640 C.3   401  SIA401      0.1056
      4  C4        -9.5910   26.7940   -6.1180 C.3   401  SIA401      0.1798
      5  C5        -8.3870   26.8420   -5.1770 C.3   401  SIA401      0.1554
      6  C6        -7.1400   27.2000   -5.9890 C.3   401  SIA401      0.1734
      7  C7        -5.8630   27.2770   -5.1650 C.3   401  SIA401      0.2135
      8  C8        -4.7090   27.8660   -5.9690 C.3   401  SIA401      0.2173
      9  C9        -3.3900   27.5560   -5.2690 C.3   401  SIA401      0.2175
     10  C10       -8.5250   25.1340   -3.3620 C.2   401  SIA401      0.2420
     11  C11       -9.1680   26.1510   -2.4520 C.3   401  SIA401      0.0964
     12  N5        -8.1850   25.5040   -4.6130 N.am  401  SIA401     -0.2020
     13  O1A       -6.9620   27.4200   -8.9910 O.co2 401  SIA401     -0.2401
     14  O1B       -9.0310   27.5980   -9.6270 O.co2 401  SIA401     -0.2401
     15  O2        -8.6360   29.9590   -7.8610 O.3   401  SIA401     -0.1830
     16  O4       -10.7820   26.5240   -5.3800 O.3   401  SIA401     -0.2210
     17  O6        -7.3500   28.4850   -6.5910 O.3   401  SIA401     -0.3220
     18  O7        -6.0960   28.1250   -4.0380 O.3   401  SIA401     -0.2176
     19  O8        -4.6950   27.3490   -7.3160 O.3   401  SIA401     -0.2175
     20  O9        -2.3350   28.1340   -6.0400 O.3   401  SIA401     -0.2175
     21  O10       -8.3220   23.9880   -2.9620 O.2   401  SIA401     -0.2733
@<TRIPOS>BOND
     1    14     1   ar
     2    13     1   ar
     3     1     2    1
     4    15     2    1
     5     2     3    1
     6     2    17    1
     7    19     8    1
     8     3     4    1
     9    17     6    1
    10     4    16    1
    11     4     5    1
    12    20     9    1
    13     6     5    1
    14     6     7    1
    15     8     9    1
    16     8     7    1
    17     5    12    1
    18     7    18    1
    19    12    10   am
    20    10    21    2
    21    10    11    1
