@<TRIPOS>MOLECULE
3f5f_A3P_A_1.pdb
 27 29 0 0 0
SMALL
GASTEIGER

@<TRIPOS>ATOM
      1  P1        58.0930   73.0500   43.9030 P.3   673  A3P673      0.5327
      2  O1P       56.8020   72.3740   43.9720 O.3   673  A3P673     -0.1145
      3  O2P       57.9520   74.4320   43.4580 O.2   673  A3P673     -0.2224
      4  O3P       58.7530   72.9760   45.2170 O.3   673  A3P673     -0.1145
      5  P2        58.4730   68.0150   38.3030 P.3   673  A3P673      0.5327
      6  O4P       59.0530   68.6800   37.1190 O.2   673  A3P673     -0.2224
      7  O5P       59.0890   66.7110   38.5380 O.3   673  A3P673     -0.1145
      8  O6P       57.0040   67.8640   38.1300 O.3   673  A3P673     -0.1145
      9  O5'       58.7870   68.9000   39.5890 O.3   673  A3P673     -0.2675
     10  C5'       58.3630   70.2490   39.7840 C.3   673  A3P673      0.1859
     11  C4'       59.1910   70.8710   40.9390 C.3   673  A3P673      0.1796
     12  O4'       60.5100   71.2230   40.4140 O.3   673  A3P673     -0.3136
     13  C3'       58.6450   72.1800   41.4810 C.3   673  A3P673      0.1928
     14  O3'       58.9790   72.2760   42.8660 O.3   673  A3P673     -0.2673
     15  C2'       59.3540   73.2010   40.6290 C.3   673  A3P673      0.2543
     16  O2'       59.2880   74.5440   41.0570 O.3   673  A3P673     -0.2131
     17  C1'       60.7570   72.6130   40.6000 C.3   673  A3P673      0.3185
     18  N9        61.5820   73.1350   39.4870 N.pl3 673  A3P673     -0.1439
     19  C8        61.2280   73.3410   38.1710 C.3   673  A3P673      0.3377
     20  N7        62.1810   73.8190   37.4150 N.2   673  A3P673     -0.2095
     21  C5        63.2450   73.9420   38.2690 C.2   673  A3P673      0.2526
     22  C6        64.5760   74.4010   38.0820 C.2   673  A3P673      0.4393
     23  N6        65.0390   74.8340   36.8920 N.pl3 673  A3P673      0.2180
     24  N1        65.4280   74.3970   39.1720 N.2   673  A3P673      0.0021
     25  C2        64.9880   73.9650   40.3900 C.3   673  A3P673      0.5254
     26  N3        63.7280   73.5060   40.6850 N.2   673  A3P673     -0.0055
     27  C4        62.9050   73.5230   39.5730 C.2   673  A3P673      0.3518
@<TRIPOS>BOND
     1    23    22    1
     2     6     5    2
     3    20    19    1
     4    20    21    2
     5    22    21    1
     6    22    24    2
     7     8     5    1
     8    19    18    1
     9    21    27    1
    10     5     7    1
    11     5     9    1
    12    24    25    1
    13    18    27    1
    14    18    17    1
    15    27    26    2
    16     9    10    1
    17    10    11    1
    18    25    26    1
    19    12    17    1
    20    12    11    1
    21    17    15    1
    22    15    16    1
    23    15    13    1
    24    11    13    1
    25    13    14    1
    26    14     1    1
    27     3     1    2
    28     1     2    1
    29     1     4    1
