@<TRIPOS>MOLECULE
3f5f_GLC_A_1.pdb
 11 11 0 0 0
SMALL
GASTEIGER

@<TRIPOS>ATOM
      1  C1        88.0880   70.4210    3.7220 C.3   671  GLC671      0.1777
      2  C2        88.3850   68.9450    3.8990 C.3   671  GLC671      0.2141
      3  C3        87.0630   68.1910    4.0840 C.3   671  GLC671      0.2173
      4  C4        86.3550   68.7540    5.3240 C.3   671  GLC671      0.2142
      5  C5        86.1390   70.2610    5.1560 C.3   671  GLC671      0.1810
      6  C6        85.5820   70.8900    6.4200 C.3   671  GLC671      0.2141
      7  O2        89.0850   68.4670    2.7660 O.3   671  GLC671     -0.2176
      8  O3        87.3180   66.8070    4.2490 O.3   671  GLC671     -0.2175
      9  O4        85.1050   68.1060    5.5400 O.3   671  GLC671     -0.2176
     10  O5        87.3970   70.9170    4.8670 O.3   671  GLC671     -0.3481
     11  O6        85.8840   72.2790    6.5020 O.3   671  GLC671     -0.2176
@<TRIPOS>BOND
     1     7     2    1
     2     1     2    1
     3     1    10    1
     4     2     3    1
     5     3     8    1
     6     3     4    1
     7    10     5    1
     8     5     4    1
     9     5     6    1
    10     4     9    1
    11     6    11    1
