@<TRIPOS>MOLECULE
3f5g_ADP_A_1.pdb
 27 29 0 0 0
SMALL
GASTEIGER

@<TRIPOS>ATOM
      1  PB        17.9580   -1.5880   10.9830 P.3     1  ADP1        0.5373
      2  O1B       17.1980   -1.9020    9.7310 O.2     1  ADP1       -0.2221
      3  O2B       18.5360   -2.8510   11.5650 O.3     1  ADP1       -0.1143
      4  O3B       17.2670   -0.6880   11.9960 O.3     1  ADP1       -0.1143
      5  PA        19.7950    0.6690   10.9460 P.3     1  ADP1        0.2231
      6  O1A       19.1340    1.2250   12.1720 O.3     1  ADP1       -0.4370
      7  O2A       19.9280    1.6210    9.7670 O.2     1  ADP1       -0.5169
      8  O3A       19.2950   -0.7830   10.4950 O.3     1  ADP1       -0.2261
      9  O5'       21.3150    0.4690   11.4580 O.3     1  ADP1       -0.3111
     10  C5'       21.6120   -0.2350   12.6790 C.3     1  ADP1        0.1813
     11  C4'       22.5810    0.5030   13.5830 C.3     1  ADP1        0.1821
     12  O4'       23.7950    0.7600   12.8550 O.3     1  ADP1       -0.3135
     13  C3'       22.1270    1.8820   14.0500 C.3     1  ADP1        0.2184
     14  O3'       21.2350    1.8950   15.1860 O.3     1  ADP1       -0.2174
     15  C2'       23.4390    2.6150   14.2720 C.3     1  ADP1        0.2570
     16  O2'       24.0560    2.3210   15.5530 O.3     1  ADP1       -0.2130
     17  C1'       24.3330    2.0500   13.1700 C.3     1  ADP1        0.3186
     18  N9        24.2990    2.9050   11.9290 N.pl3   1  ADP1       -0.1439
     19  C8        23.3470    2.8790   10.9740 C.3     1  ADP1        0.3377
     20  N7        23.6180    3.7590    9.9750 N.2     1  ADP1       -0.2095
     21  C5        24.7540    4.3580   10.3080 C.2     1  ADP1        0.2526
     22  C6        25.6110    5.3960    9.7180 C.2     1  ADP1        0.4393
     23  N6        25.2890    5.9840    8.5250 N.pl3   1  ADP1        0.2180
     24  N1        26.7250    5.7060   10.3870 N.2     1  ADP1        0.0021
     25  C2        27.0940    5.1630   11.5570 C.3     1  ADP1        0.5254
     26  N3        26.3550    4.2220   12.1470 N.2     1  ADP1       -0.0055
     27  C4        25.2000    3.7980   11.5910 C.2     1  ADP1        0.3518
@<TRIPOS>BOND
     1    23    22    1
     2    22    21    1
     3    22    24    2
     4     2     1    2
     5     7     5    2
     6    20    21    2
     7    20    19    1
     8    21    27    1
     9    24    25    1
    10     8     5    1
    11     8     1    1
    12     5     9    1
    13     5     6    1
    14    19    18    1
    15     1     3    1
    16     1     4    1
    17     9    10    1
    18    25    26    1
    19    27    18    1
    20    27    26    2
    21    18    17    1
    22    10    11    1
    23    12    17    1
    24    12    11    1
    25    17    15    1
    26    11    13    1
    27    13    15    1
    28    13    14    1
    29    15    16    1
