@<TRIPOS>MOLECULE
3f5j_CTT_A_1.pdb
 45 48 0 0 0
SMALL
GASTEIGER

@<TRIPOS>ATOM
      1  O1B       -2.5320   -0.8940   51.8550 O.3   1000  CTT1000    -0.1869
      2  C1B       -1.3140   -0.4650   51.2130 C.3   1000  CTT1000     0.3023
      3  C2B       -0.8350   -1.6100   50.3300 C.3   1000  CTT1000     0.2433
      4  O2B       -0.5050   -2.7550   51.1230 O.3   1000  CTT1000    -0.2148
      5  C3B        0.3820   -1.1910   49.5270 C.3   1000  CTT1000     0.2168
      6  O3B        0.7530   -2.2840   48.6690 O.3   1000  CTT1000    -0.2175
      7  O5B       -1.5930    0.7250   50.4530 O.3   1000  CTT1000    -0.3237
      8  C5B       -0.6350    1.2020   49.4910 C.3   1000  CTT1000     0.1804
      9  C6B       -1.4160    2.0720   48.4970 C.3   1000  CTT1000     0.2141
     10  O6B       -1.4290    3.4540   48.8620 O.3   1000  CTT1000    -0.2176
     11  C4B        0.0710    0.0710   48.7100 C.3   1000  CTT1000     0.1804
     12  O4B        1.2930    0.5390   48.1280 O.3   1000  CTT1000    -0.3257
     13  C1C        1.2070    0.7230   46.6710 C.3   1000  CTT1000     0.2695
     14  C2C        2.4600    1.4270   46.1250 C.3   1000  CTT1000     0.2404
     15  O2C        2.5970    2.6720   46.8150 O.3   1000  CTT1000    -0.2149
     16  C3C        2.3610    1.6680   44.6170 C.3   1000  CTT1000     0.2167
     17  O3C        3.6050    2.1910   44.1000 O.3   1000  CTT1000    -0.2175
     18  O5C        0.9950   -0.5290   45.9960 O.3   1000  CTT1000    -0.3257
     19  C5C        0.7680   -0.2920   44.5920 C.3   1000  CTT1000     0.1803
     20  C6C        0.3590   -1.6020   43.9540 C.3   1000  CTT1000     0.2141
     21  O6C       -0.9530   -1.7840   44.4820 O.3   1000  CTT1000    -0.2176
     22  C4C        1.9470    0.3870   43.8770 C.3   1000  CTT1000     0.1804
     23  O4C        1.5100    0.7420   42.5610 O.3   1000  CTT1000    -0.3257
     24  C1D        2.4280    0.4540   41.4790 C.3   1000  CTT1000     0.2695
     25  C2D        1.6930    0.4520   40.1430 C.3   1000  CTT1000     0.2404
     26  O2D        0.6760   -0.5470   40.1980 O.3   1000  CTT1000    -0.2149
     27  C3D        2.6790    0.1500   39.0220 C.3   1000  CTT1000     0.2167
     28  O3D        2.0720    0.1720   37.7070 O.3   1000  CTT1000    -0.2175
     29  O5D        3.4390    1.4570   41.3520 O.3   1000  CTT1000    -0.3257
     30  C5D        4.4850    1.1160   40.4150 C.3   1000  CTT1000     0.1803
     31  C6D        5.6440    2.0940   40.5650 C.3   1000  CTT1000     0.2141
     32  O6D        6.0020    2.1900   41.9650 O.3   1000  CTT1000    -0.2176
     33  C4D        3.8780    1.0840   39.0130 C.3   1000  CTT1000     0.1804
     34  O4D        4.7230    0.4460   38.0650 O.3   1000  CTT1000    -0.3257
     35  C1E        5.5230    1.2320   37.1220 C.3   1000  CTT1000     0.2695
     36  C2E        5.8550    0.3820   35.8440 C.3   1000  CTT1000     0.2406
     37  O2E        7.2640    0.1910   35.5420 O.3   1000  CTT1000    -0.2149
     38  C3E        5.1830    0.9040   34.5900 C.3   1000  CTT1000     0.2198
     39  O3E        5.1180   -0.1210   33.5850 O.3   1000  CTT1000    -0.2174
     40  C4E        3.8240    1.4330   35.0470 C.3   1000  CTT1000     0.2144
     41  O4E        3.0590    1.6690   33.8820 O.3   1000  CTT1000    -0.2176
     42  O5E        4.9490    2.5650   36.9060 O.3   1000  CTT1000    -0.3256
     43  C5E        4.1460    2.7720   35.7170 C.3   1000  CTT1000     0.1835
     44  C6E        2.9670    3.7130   36.0480 C.3   1000  CTT1000     0.2142
     45  O6E        1.8760    3.0400   36.7450 O.3   1000  CTT1000    -0.2176
@<TRIPOS>BOND
     1    39    38    1
     2    41    40    1
     3    38    40    1
     4    38    36    1
     5    40    43    1
     6    37    36    1
     7    43    44    1
     8    43    42    1
     9    36    35    1
    10    44    45    1
    11    42    35    1
    12    35    34    1
    13    28    27    1
    14    34    33    1
    15    33    27    1
    16    33    30    1
    17    27    25    1
    18    25    26    1
    19    25    24    1
    20    30    31    1
    21    30    29    1
    22    31    32    1
    23    29    24    1
    24    24    23    1
    25    23    22    1
    26    22    19    1
    27    22    16    1
    28    20    21    1
    29    20    19    1
    30    17    16    1
    31    19    18    1
    32    16    14    1
    33    18    13    1
    34    14    13    1
    35    14    15    1
    36    13    12    1
    37    12    11    1
    38     9    10    1
    39     9     8    1
    40     6     5    1
    41    11     8    1
    42    11     5    1
    43     8     7    1
    44     5     3    1
    45     3     4    1
    46     3     2    1
    47     7     2    1
    48     2     1    1
