@<TRIPOS>MOLECULE
3f5l_LB2_A_1.pdb
 23 24 0 0 0
SMALL
GASTEIGER

@<TRIPOS>ATOM
      1  O1D        5.6100    2.2490   42.7050 O.3   1000  LB21000    -0.1869
      2  C1D        4.7580    2.2460   41.5570 C.3   1000  LB21000     0.3022
      3  C2D        5.5070    1.6310   40.3800 C.3   1000  LB21000     0.2403
      4  O2D        6.7120    2.3620   40.1510 O.3   1000  LB21000    -0.2149
      5  O5D        3.6140    1.4430   41.8260 O.3   1000  LB21000    -0.3236
      6  C5D        2.6820    1.4860   40.7440 C.3   1000  LB21000     0.1835
      7  C6D        1.4350    0.6990   41.1420 C.3   1000  LB21000     0.2142
      8  O6D        1.8120   -0.5610   41.7180 O.3   1000  LB21000    -0.2176
      9  C4D        3.3160    0.9270   39.4680 C.3   1000  LB21000     0.2113
     10  O4D        2.4170    1.1130   38.3710 O.3   1000  LB21000    -0.2177
     11  C3D        4.6490    1.5850   39.1250 C.3   1000  LB21000     0.1859
     12  O3D        5.3210    0.7550   38.1710 O.3   1000  LB21000    -0.3255
     13  C1E        5.5420    1.3310   36.8470 C.3   1000  LB21000     0.2695
     14  C2E        5.9900    0.4490   35.7000 C.3   1000  LB21000     0.2406
     15  O2E        7.4010    0.1970   35.4640 O.3   1000  LB21000    -0.2149
     16  C3E        5.3620    0.9830   34.4290 C.3   1000  LB21000     0.2198
     17  O3E        5.1660   -0.1510   33.5850 O.3   1000  LB21000    -0.2174
     18  C4E        4.0380    1.6380   34.8260 C.3   1000  LB21000     0.2144
     19  O4E        3.2000    1.8160   33.6710 O.3   1000  LB21000    -0.2176
     20  O5E        5.2400    2.7400   36.6230 O.3   1000  LB21000    -0.3256
     21  C5E        4.3440    2.9640   35.5230 C.3   1000  LB21000     0.1835
     22  C6E        3.1020    3.7190   36.0050 C.3   1000  LB21000     0.2142
     23  O6E        2.2160    2.8640   36.7470 O.3   1000  LB21000    -0.2176
@<TRIPOS>BOND
     1    17    16    1
     2    19    18    1
     3    16    18    1
     4    16    14    1
     5    18    21    1
     6    15    14    1
     7    21    22    1
     8    21    20    1
     9    14    13    1
    10    22    23    1
    11    20    13    1
    12    13    12    1
    13    12    11    1
    14    10     9    1
    15    11     9    1
    16    11     3    1
    17     9     6    1
    18     4     3    1
    19     3     2    1
    20     6     7    1
    21     6     5    1
    22     7     8    1
    23     2     5    1
    24     2     1    1
