@<TRIPOS>MOLECULE
3f5m_ATP_A_1.pdb
 31 33 0 0 0
SMALL
GASTEIGER

@<TRIPOS>ATOM
      1  PG         7.4140  -17.1810   14.2360 P.3   1001  ATP1001     0.5373
      2  O1G        5.9640  -17.5950   14.1910 O.2   1001  ATP1001    -0.2221
      3  O2G        8.2250  -17.9370   15.2790 O.3   1001  ATP1001    -0.1143
      4  O3G        7.6250  -15.6860   14.2140 O.3   1001  ATP1001    -0.1143
      5  PB         7.4400  -18.9300   11.9750 P.3   1001  ATP1001     0.2277
      6  O1B        6.6060  -19.8420   12.8320 O.3   1001  ATP1001    -0.4368
      7  O2B        8.5220  -19.5680   11.1530 O.2   1001  ATP1001    -0.5168
      8  O3B        8.0830  -17.7470   12.8670 O.3   1001  ATP1001    -0.2258
      9  PA         5.0410  -18.4590   10.5540 P.3   1001  ATP1001     0.2189
     10  O1A        4.3670  -17.1480   10.2670 O.2   1001  ATP1001    -0.5170
     11  O2A        4.3700  -19.4270   11.4820 O.3   1001  ATP1001    -0.4371
     12  O3A        6.5270  -18.0600   11.0100 O.3   1001  ATP1001    -0.2700
     13  O5'        5.4140  -19.2340    9.1970 O.3   1001  ATP1001    -0.3112
     14  C5'        6.1560  -18.5830    8.1680 C.3   1001  ATP1001     0.1813
     15  C4'        5.6370  -19.0160    6.8000 C.3   1001  ATP1001     0.1821
     16  O4'        5.6500  -20.4480    6.6120 O.3   1001  ATP1001    -0.3135
     17  C3'        4.2030  -18.5490    6.6710 C.3   1001  ATP1001     0.2184
     18  O3'        4.1020  -17.8710    5.4160 O.3   1001  ATP1001    -0.2174
     19  C2'        3.3810  -19.8330    6.7380 C.3   1001  ATP1001     0.2570
     20  O2'        2.1800  -19.7810    5.9550 O.3   1001  ATP1001    -0.2130
     21  C1'        4.3410  -20.9270    6.2720 C.3   1001  ATP1001     0.3186
     22  N9         3.9840  -22.2390    6.8940 N.pl3 1001  ATP1001    -0.1439
     23  C8         3.7190  -22.4430    8.1990 C.3   1001  ATP1001     0.3377
     24  N7         3.4070  -23.7410    8.4550 N.2   1001  ATP1001    -0.2095
     25  C5         3.4490  -24.3980    7.2800 C.2   1001  ATP1001     0.2526
     26  C6         3.2150  -25.7930    6.8410 C.2   1001  ATP1001     0.4393
     27  N6         2.8730  -26.7660    7.7250 N.pl3 1001  ATP1001     0.2180
     28  N1         3.3530  -26.0590    5.5290 N.2   1001  ATP1001     0.0021
     29  C2         3.6870  -25.1070    4.6440 C.3   1001  ATP1001     0.5254
     30  N3         3.9180  -23.8270    4.9730 N.2   1001  ATP1001    -0.0055
     31  C4         3.8140  -23.4100    6.2560 C.2   1001  ATP1001     0.3518
@<TRIPOS>BOND
     1    29    30    1
     2    29    28    1
     3    30    31    2
     4    18    17    1
     5    28    26    2
     6    20    19    1
     7    31    22    1
     8    31    25    1
     9    21    16    1
    10    21    19    1
    11    21    22    1
    12    16    15    1
    13    17    19    1
    14    17    15    1
    15    15    14    1
    16    26    25    1
    17    26    27    1
    18    22    23    1
    19    25    24    2
    20    14    13    1
    21    23    24    1
    22    13     9    1
    23    10     9    2
    24     9    12    1
    25     9    11    1
    26    12     5    1
    27     7     5    2
    28     5     6    1
    29     5     8    1
    30     8     1    1
    31     2     1    2
    32     4     1    1
    33     1     3    1
