@<TRIPOS>MOLECULE
3f5o_UOC_A_1.pdb
 12 11 0 0 0
SMALL
GASTEIGER

@<TRIPOS>ATOM
      1  CCG       16.5050    6.7540   15.0110 C.3   149  UOC149      0.0000
      2  CCF       17.0650    5.7260   14.0420 C.3   149  UOC149      0.0000
      3  CCE       18.2750    5.0280   14.6400 C.3   149  UOC149      0.0000
      4  CCD       19.3620    4.6330   13.6190 C.3   149  UOC149      0.0000
      5  CCC       20.6760    5.4620   13.7610 C.3   149  UOC149      0.0000
      6  CCB       21.9490    4.6370   13.4110 C.3   149  UOC149      0.0000
      7  CCA       22.8520    5.3930   12.4990 C.3   149  UOC149      0.0004
      8  CBZ       23.4420    6.5620   13.2690 C.3   149  UOC149      0.0077
      9  CBY       22.7170    7.8930   13.1070 C.3   149  UOC149      0.0645
     10  CBX       23.5160    8.9670   13.8940 C.2   149  UOC149      0.1511
     11  OCH       23.8550    8.7050   15.0330 O.2   149  UOC149     -0.2960
     12  CBW       23.8000   10.3480   13.3320 C.3   149  UOC149      0.0722
@<TRIPOS>BOND
     1     7     8    1
     2     7     6    1
     3     9     8    1
     4     9    10    1
     5    12    10    1
     6     6     5    1
     7     4     5    1
     8     4     3    1
     9    10    11    2
    10     2     3    1
    11     2     1    1
