@<TRIPOS>MOLECULE
3f5o_COA_A_1.pdb
 38 38 0 0 0
SMALL
GASTEIGER

@<TRIPOS>ATOM
      1  C1B       33.8000    8.2940    6.3820 C.3   150  COA150      0.1776
      2  C2B       32.4320    8.3240    5.7670 C.3   150  COA150      0.2113
      3  O2B       31.9590    7.0370    5.4530 O.3   150  COA150     -0.2177
      4  C3B       32.6200    9.1060    4.5550 C.3   150  COA150      0.1884
      5  O3B       32.0590    8.4290    3.5290 O.3   150  COA150     -0.2674
      6  P3B       30.5030    8.0560    3.5080 P.3   150  COA150      0.5327
      7  O7A       30.0160    8.6230    2.1740 O.2   150  COA150     -0.2224
      8  O8A       29.7740    8.8650    4.6120 O.3   150  COA150     -0.1145
      9  O9A       30.3050    6.6260    3.7540 O.3   150  COA150     -0.1145
     10  C4B       34.1360    9.3190    4.4250 C.3   150  COA150      0.1754
     11  O4B       34.5300    9.3780    5.7820 O.3   150  COA150     -0.3483
     12  C5B       34.6710   10.5840    3.6440 C.3   150  COA150      0.1811
     13  O5B       35.3690   11.5050    4.4650 O.3   150  COA150     -0.3112
     14  P1A       35.2480   13.0700    4.3620 P.3   150  COA150      0.2189
     15  O1A       35.8810   13.3580    5.7890 O.3   150  COA150     -0.4371
     16  O2A       35.9790   13.3750    3.1920 O.2   150  COA150     -0.5170
     17  O3A       33.8220   13.3080    4.2110 O.3   150  COA150     -0.2703
     18  P2A       32.9930   14.4380    3.8420 P.3   150  COA150      0.2188
     19  O4A       33.6210   15.6830    3.9070 O.3   150  COA150     -0.4371
     20  O5A       32.2410   14.2730    2.6750 O.2   150  COA150     -0.5170
     21  O6A       32.1260   14.1930    5.0930 O.3   150  COA150     -0.3138
     22  CBP       32.6140   14.4060    7.4840 C.3   150  COA150      0.0645
     23  CCP       31.9910   14.9730    6.1940 C.3   150  COA150      0.1519
     24  CDP       33.2440   12.9980    7.2250 C.3   150  COA150      0.0056
     25  CEP       33.6070   15.4700    7.9050 C.3   150  COA150      0.0056
     26  CAP       31.5740   14.4000    8.5900 C.3   150  COA150      0.2312
     27  OAP       31.4600   15.7560    9.0360 O.3   150  COA150     -0.2131
     28  C9P       31.5760   13.3380    9.7780 C.2   150  COA150      0.2719
     29  O9P       31.6030   12.1150    9.6490 O.2   150  COA150     -0.2706
     30  N8P       31.3520   13.8680   10.9310 N.am  150  COA150     -0.2028
     31  C7P       31.1150   13.0930   12.1140 C.3   150  COA150      0.1248
     32  C6P       29.6140   13.1420   12.2700 C.3   150  COA150      0.1102
     33  C5P       29.2170   12.3450   13.4350 C.2   150  COA150      0.2432
     34  O5P       29.8910   11.3640   13.7130 O.2   150  COA150     -0.2733
     35  N4P       28.0950   12.7310   14.0350 N.am  150  COA150     -0.2044
     36  C3P       27.4930   12.1000   15.2570 C.3   150  COA150      0.1276
     37  C2P       26.5020   10.9360   14.9900 C.3   150  COA150      0.0920
     38  S1P       25.5010   11.1470   13.4890 S.3   150  COA150     -0.0802
@<TRIPOS>BOND
     1     7     6    2
     2    20    18    2
     3    16    14    2
     4     6     5    1
     5     6     9    1
     6     6     8    1
     7     5     4    1
     8    12    10    1
     9    12    13    1
    10    18    19    1
    11    18    17    1
    12    18    21    1
    13    17    14    1
    14    14    13    1
    15    14    15    1
    16    10     4    1
    17    10    11    1
    18     4     2    1
    19    21    23    1
    20     3     2    1
    21     2     1    1
    22    11     1    1
    23    23    22    1
    24    24    22    1
    25    22    25    1
    26    22    26    1
    27    26    27    1
    28    26    28    1
    29    29    28    2
    30    28    30   am
    31    30    31    1
    32    31    32    1
    33    32    33    1
    34    33    34    2
    35    33    35   am
    36    38    37    1
    37    35    36    1
    38    37    36    1
