@<TRIPOS>MOLECULE
3f5p_741_A_1.pdb
 38 41 0 0 0
SMALL
GASTEIGER

@<TRIPOS>ATOM
      1  C1        84.2180   51.7900  148.1120 C.2     1  7411        0.1505
      2  C2        84.5920   52.5290  146.9690 C.2     1  7411        0.1517
      3  C3        83.7380   52.6000  145.8500 C.3     1  7411        0.1121
      4  C4        82.4970   51.9500  145.8910 C.ar    1  7411        0.0644
      5  C5        82.0920   51.2120  147.0640 C.ar    1  7411        0.0154
      6  C6        82.9670   51.1500  148.1660 C.3     1  7411        0.0955
      7  N7        81.6680   52.0260  144.8010 N.ar    1  7411       -0.2472
      8  C8        80.4900   51.4190  144.8160 C.ar    1  7411        0.1100
      9  C9        80.0320   50.6840  145.9210 C.ar    1  7411        0.1024
     10  C10       80.8170   50.5670  147.0880 C.ar    1  7411        0.0791
     11  O11       85.0180   51.6900  149.2500 O.2     1  7411       -0.4726
     12  O12       85.8610   53.1040  146.9640 O.2     1  7411       -0.4766
     13  C13       86.6000   53.4220  145.7800 C.3     1  7411        0.2065
     14  C14       87.0770   54.8470  146.1100 C.3     1  7411        0.0646
     15  C15       87.4430   55.3100  147.5310 C.3     1  7411        0.0761
     16  C16       85.6960   52.8910  149.6060 C.3     1  7411        0.2521
     17  N17       80.4420   49.8530  148.2280 N.pl3   1  7411       -0.2120
     18  C18       79.7320   48.6650  148.1990 C.ar    1  7411        0.0714
     19  C19       78.7720   48.4130  149.1990 C.ar    1  7411        0.0171
     20  C20       78.0160   47.2270  149.2160 C.ar    1  7411        0.0087
     21  C21       78.2130   46.2710  148.2180 C.ar    1  7411        0.0429
     22  C22       79.1650   46.5150  147.2190 C.ar    1  7411        0.0650
     23  C23       79.9240   47.6960  147.1960 C.ar    1  7411        0.0284
     24 CL24       79.3910   45.3060  145.9930 Cl      1  7411       -0.0817
     25  S25       77.2430   44.7580  148.2400 S.3     1  7411       -0.0495
     26  C26       75.9520   45.0590  149.4420 C.ar    1  7411        0.1756
     27  N27       76.1290   44.8910  150.7640 N.ar    1  7411       -0.2192
     28  C28       74.9200   45.2840  151.2500 C.ar    1  7411        0.1197
     29  C29       74.0810   45.6690  150.1800 C.ar    1  7411        0.0984
     30  N30       74.7740   45.5320  149.0180 N.ar    1  7411       -0.3030
     31  C31       74.3500   45.7830  147.6400 C.3     1  7411        0.1325
     32  C32       78.7080   50.1590  145.8030 C.1     1  7411        0.1033
     33  N33       77.5920   49.8520  145.7560 N.1     1  7411       -0.1907
     34  N34       88.6150   56.2000  147.3570 N.3     1  7411       -0.2692
     35  C35       88.5500   57.5800  147.8840 C.3     1  7411        0.1081
     36  C36       89.9380   55.5500  147.4100 C.3     1  7411        0.0897
     37  C37       89.9330   58.2670  147.8840 C.3     1  7411        0.1993
     38  O38       90.8250   57.6850  148.8560 O.3     1  7411       -0.2189
@<TRIPOS>BOND
     1     7     8   ar
     2     7     4   ar
     3     8     9   ar
     4    33    32    3
     5    13    14    1
     6    13    12    1
     7    32     9    1
     8     3     4    1
     9     3     2    1
    10     4     5   ar
    11     9    10   ar
    12    24    22    1
    13    14    15    1
    14    12     2    1
    15     2     1    2
    16     5    10   ar
    17     5     6    1
    18    10    17    1
    19    23    22   ar
    20    23    18   ar
    21    22    21   ar
    22    34    36    1
    23    34    15    1
    24    34    35    1
    25    31    30    1
    26    35    37    1
    27    37    38    1
    28     1     6    1
    29     1    11    1
    30    18    17    1
    31    18    19   ar
    32    21    25    1
    33    21    20   ar
    34    25    26    1
    35    30    26   ar
    36    30    29   ar
    37    19    20   ar
    38    11    16    1
    39    26    27   ar
    40    29    28   ar
    41    27    28   ar
