@<TRIPOS>MOLECULE
3f5u_ANP_A_1.pdb
 31 33 0 0 0
SMALL
GASTEIGER

@<TRIPOS>ATOM
      1  PG        16.3040   -1.4200   13.1040 P.3   296  ANP296      0.4884
      2  O1G       15.8990   -2.8870   13.2090 O.2   296  ANP296     -0.2331
      3  O2G       15.2700   -0.3930   13.5570 O.3   296  ANP296     -0.1240
      4  O3G       17.7070   -1.2110   13.6390 O.3   296  ANP296     -0.1240
      5  PB        17.7560   -1.8720   10.5860 P.3   296  ANP296      0.4669
      6  O1B       18.1560   -3.1970   11.1380 O.3   296  ANP296     -0.1253
      7  O2B       17.3170   -1.9900    9.1270 O.2   296  ANP296     -0.2351
      8  N3B       16.4390   -1.1330   11.4020 N.3   296  ANP296     -0.0163
      9  PA        19.6190    0.5550   10.9250 P.3   296  ANP296      0.2220
     10  O1A       19.1630    1.2390   12.1570 O.3   296  ANP296     -0.4370
     11  O2A       19.5790    1.4260    9.7000 O.2   296  ANP296     -0.5170
     12  O3A       19.1490   -0.9820   10.6570 O.3   296  ANP296     -0.2360
     13  O5'       21.1740    0.2680   11.2650 O.3   296  ANP296     -0.3111
     14  C5'       21.4700   -0.4030   12.5000 C.3   296  ANP296      0.1813
     15  C4'       22.4040    0.3600   13.4200 C.3   296  ANP296      0.1821
     16  O4'       23.5960    0.6240   12.6990 O.3   296  ANP296     -0.3135
     17  C3'       21.9390    1.7240   13.8960 C.3   296  ANP296      0.2184
     18  O3'       21.1760    1.6840   15.1130 O.3   296  ANP296     -0.2174
     19  C2'       23.2490    2.4690   14.1030 C.3   296  ANP296      0.2570
     20  O2'       23.8380    2.0720   15.3730 O.3   296  ANP296     -0.2130
     21  C1'       24.1340    1.9270   12.9860 C.3   296  ANP296      0.3186
     22  N9        24.0780    2.7840   11.7800 N.pl3 296  ANP296     -0.1439
     23  C8        23.1060    2.7620   10.8140 C.3   296  ANP296      0.3377
     24  N7        23.3490    3.6460    9.8110 N.2   296  ANP296     -0.2095
     25  C5        24.4760    4.2870   10.1700 C.2   296  ANP296      0.2526
     26  C6        25.3050    5.3410    9.5830 C.2   296  ANP296      0.4393
     27  N6        24.9560    5.9410    8.4090 N.pl3 296  ANP296      0.2180
     28  N1        26.4390    5.6890   10.2430 N.2   296  ANP296      0.0021
     29  C2        26.8010    5.1400   11.4170 C.3   296  ANP296      0.5254
     30  N3        26.1120    4.1410   11.9930 N.2   296  ANP296     -0.0055
     31  C4        24.9440    3.7250   11.4500 C.2   296  ANP296      0.3518
@<TRIPOS>BOND
     1    27    26    1
     2     7     5    2
     3    26    25    1
     4    26    28    2
     5    11     9    2
     6    24    25    2
     7    24    23    1
     8    25    31    1
     9    28    29    1
    10     5    12    1
    11     5     6    1
    12     5     8    1
    13    12     9    1
    14    23    22    1
    15     9    13    1
    16     9    10    1
    17    13    14    1
    18     8     1    1
    19    29    30    1
    20    31    22    1
    21    31    30    2
    22    22    21    1
    23    14    15    1
    24    16    21    1
    25    16    15    1
    26    21    19    1
    27     1     2    2
    28     1     3    1
    29     1     4    1
    30    15    17    1
    31    17    19    1
    32    17    18    1
    33    19    20    1
