@<TRIPOS>MOLECULE
3f5x_EZV_A_1.pdb
 32 37 0 0 0
SMALL
GASTEIGER

@<TRIPOS>ATOM
      1  C1         0.1170   90.2580   30.1060 C.2   300  EZV300     -0.0038
      2  C2         0.6310   89.4510   31.1000 C.2   300  EZV300      0.0010
      3  C3         0.7680   89.9140   32.3940 C.2   300  EZV300      0.0172
      4  C4         0.3820   91.2180   32.5930 C.2   300  EZV300      0.0907
      5  C5        -0.1290   92.0360   31.6080 C.3   300  EZV300      0.1176
      6  C6        -0.2900   91.5540   30.3180 C.2   300  EZV300     -0.0136
      7  N7         0.3810   91.9790   33.7220 N.2   300  EZV300     -0.1512
      8  N8        -0.0510   93.2360   33.5550 N.2   300  EZV300     -0.1398
      9  C9        -0.3730   93.2700   32.2620 C.2   300  EZV300      0.1744
     10  C10       -0.8170   94.5120   31.6050 C.1   300  EZV300      0.1547
     11  N11       -1.1450   95.6680   32.2490 N.2   300  EZV300     -0.3362
     12  C12       -1.4470   96.6070   31.3070 C.ar  300  EZV300      0.1754
     13  C13       -1.2870   95.9590   30.0980 C.ar  300  EZV300      0.1873
     14  N14       -0.8860   94.6630   30.3030 N.2   300  EZV300     -0.3349
     15  C15       -1.8410   97.9200   31.4350 C.ar  300  EZV300      0.0358
     16  C16       -2.0610   98.5620   30.2380 C.ar  300  EZV300      0.0041
     17  C17       -1.8990   97.9370   29.0210 C.ar  300  EZV300      0.0173
     18  C18       -1.5060   96.6190   28.8960 C.ar  300  EZV300      0.0815
     19  C19        1.1220   88.1410   30.7490 C.ar  300  EZV300      0.0001
     20  N20       -1.3380   95.9830   27.6480 N.pl3 300  EZV300     -0.3026
     21  C21        0.0570   95.6260   27.4530 C.3   300  EZV300      0.1082
     22  C22        0.1260   94.6390   26.3060 C.3   300  EZV300      0.0938
     23  N23       -0.4840   95.3010   25.1160 N.3   300  EZV300     -0.2686
     24  C24       -1.8510   95.8580   25.3190 C.3   300  EZV300      0.0938
     25  C25       -1.8490   96.7620   26.5320 C.3   300  EZV300      0.1082
     26  C26       -0.4470   94.4100   23.9350 C.3   300  EZV300      0.0897
     27  C27        0.5020   87.3270   29.8250 C.ar  300  EZV300      0.0014
     28  C28        1.0640   86.1100   29.5060 C.ar  300  EZV300      0.0181
     29  C29        2.2360   85.6770   30.0920 C.ar  300  EZV300      0.0891
     30  C30        2.8610   86.4830   31.0140 C.ar  300  EZV300      0.0181
     31  C31        2.3030   87.7040   31.3220 C.ar  300  EZV300      0.0014
     32  N32        2.7800   84.4340   29.7590 N.pl3 300  EZV300     -0.1281
@<TRIPOS>BOND
     1    26    23    1
     2    23    24    1
     3    23    22    1
     4    24    25    1
     5    22    21    1
     6    25    20    1
     7    21    20    1
     8    20    18    1
     9    18    17   ar
    10    18    13   ar
    11    17    16   ar
    12    28    27   ar
    13    28    29   ar
    14    32    29    1
    15    27    19   ar
    16    29    30   ar
    17    13    14    2
    18    13    12   ar
    19     1     6    2
    20     1     2    1
    21    16    15   ar
    22    14    10    2
    23     6     5    1
    24    19     2    1
    25    19    31   ar
    26    30    31   ar
    27     2     3    2
    28    12    15   ar
    29    12    11    2
    30    10    11    2
    31    10     9    1
    32     5     9    1
    33     5     4    1
    34     9     8    2
    35     3     4    1
    36     4     7    2
    37     8     7    1
