@<TRIPOS>MOLECULE
3f61_ADP_A_1.pdb
 27 29 0 0 0
SMALL
GASTEIGER

@<TRIPOS>ATOM
      1  PB       -10.9940   10.7540  -11.4670 P.3   340  ADP340      0.5373
      2  O1B      -10.8710   11.2850  -12.8800 O.2   340  ADP340     -0.2221
      3  O2B      -12.2760   10.0960  -11.0890 O.3   340  ADP340     -0.1143
      4  O3B       -9.7970    9.8680  -11.1510 O.3   340  ADP340     -0.1143
      5  PA        -9.9980   13.3260  -10.5700 P.3   340  ADP340      0.2231
      6  O1A       -9.4580   13.7180   -9.2310 O.3   340  ADP340     -0.4370
      7  O2A       -9.0380   13.2900  -11.7390 O.2   340  ADP340     -0.5169
      8  O3A      -10.8820   11.9870  -10.4240 O.3   340  ADP340     -0.2261
      9  O5'      -11.1170   14.3920  -10.9460 O.3   340  ADP340     -0.3111
     10  C5'      -12.2720   14.4260  -10.1030 C.3   340  ADP340      0.1813
     11  C4'      -13.4340   15.1160  -10.8090 C.3   340  ADP340      0.1821
     12  O4'      -13.1320   16.4980  -10.9130 O.3   340  ADP340     -0.3135
     13  C3'      -13.5930   14.7080  -12.2540 C.3   340  ADP340      0.2184
     14  O3'      -14.3720   13.5260  -12.4350 O.3   340  ADP340     -0.2174
     15  C2'      -14.3090   15.8840  -12.8480 C.3   340  ADP340      0.2570
     16  O2'      -15.6820   15.8730  -12.4070 O.3   340  ADP340     -0.2130
     17  C1'      -13.6810   17.0460  -12.1170 C.3   340  ADP340      0.3186
     18  N9       -12.5500   17.6110  -12.8940 N.pl3 340  ADP340     -0.1439
     19  C8       -11.3130   17.0700  -12.9890 C.3   340  ADP340      0.3377
     20  N7       -10.5200   17.8770  -13.7420 N.2   340  ADP340     -0.2095
     21  C5       -11.2530   18.9430  -14.1460 C.2   340  ADP340      0.2526
     22  C6       -10.9880   20.1380  -14.9860 C.2   340  ADP340      0.4393
     23  N6        -9.7620   20.3540  -15.5120 N.pl3 340  ADP340      0.2180
     24  N1       -12.0100   20.9950  -15.1660 N.2   340  ADP340      0.0021
     25  C2       -13.2230   20.7800  -14.5930 C.3   340  ADP340      0.5254
     26  N3       -13.5460   19.6940  -13.8330 N.2   340  ADP340     -0.0055
     27  C4       -12.5900   18.7640  -13.5790 C.2   340  ADP340      0.3518
@<TRIPOS>BOND
     1    23    22    1
     2    24    22    2
     3    24    25    1
     4    22    21    1
     5    25    26    1
     6    21    20    2
     7    21    27    1
     8    26    27    2
     9    20    19    1
    10    27    18    1
    11    19    18    1
    12    18    17    1
    13     2     1    2
    14    15    16    1
    15    15    13    1
    16    15    17    1
    17    14    13    1
    18    13    11    1
    19    17    12    1
    20     7     5    2
    21     1     4    1
    22     1     3    1
    23     1     8    1
    24     9     5    1
    25     9    10    1
    26    12    11    1
    27    11    10    1
    28     5     8    1
    29     5     6    1
