@<TRIPOS>MOLECULE
3f63_GTX_A_1.pdb
 26 25 0 0 0
SMALL
GASTEIGER

@<TRIPOS>ATOM
      1  N1        -3.0910   19.1420   28.3890 N.3   220  GTX220     -0.1208
      2  CA1       -2.6380   18.1420   29.3690 C.3   220  GTX220      0.1948
      3  C1        -3.8130   17.6290   30.1660 C.2   220  GTX220      0.3819
      4  O11       -3.7530   16.5150   30.7400 O.co2 220  GTX220     -0.2441
      5  O12       -4.8660   18.3070   30.2660 O.co2 220  GTX220     -0.2441
      6  CB1       -1.6200   18.7920   30.3120 C.3   220  GTX220      0.0402
      7  CG1       -0.8590   17.7290   31.0980 C.3   220  GTX220      0.0889
      8  CD1        0.4070   18.3030   31.6950 C.2   220  GTX220      0.2418
      9  OE1        1.3920   18.7790   30.8140 O.2   220  GTX220     -0.2733
     10  N2         0.5490   18.2810   33.0310 N.am  220  GTX220     -0.1969
     11  CA2        1.6910   18.9210   33.6690 C.3   220  GTX220      0.1834
     12  C2         2.9060   18.0350   33.6550 C.2   220  GTX220      0.2626
     13  O2         2.7040   16.6830   33.9400 O.2   220  GTX220     -0.2714
     14  CB2        1.3400   19.2200   35.1240 C.3   220  GTX220      0.0886
     15  SG2       -0.1480   20.2620   35.2400 S.3   220  GTX220     -0.1379
     16  C1S        0.8150   21.7890   35.4190 C.3   220  GTX220      0.0576
     17  C2S        1.3010   22.0280   36.8500 C.3   220  GTX220      0.0116
     18  C3S        2.4310   23.0520   36.9500 C.3   220  GTX220      0.0009
     19  C4S        3.5810   22.7840   35.9690 C.3   220  GTX220      0.0000
     20  C5S        4.4860   21.6470   36.4530 C.3   220  GTX220      0.0000
     21  C6S        5.7200   21.4840   35.5690 C.3   220  GTX220      0.0000
     22  N3         4.0950   18.6020   33.3940 N.am  220  GTX220     -0.1917
     23  CA3        5.3270   17.8260   33.3160 C.3   220  GTX220      0.2285
     24  C3         5.6640   17.3870   31.9070 C.2   220  GTX220      0.3865
     25  O31        6.8080   16.9370   31.6680 O.co2 220  GTX220     -0.2437
     26  O32        4.8290   17.4660   30.9710 O.co2 220  GTX220     -0.2437
@<TRIPOS>BOND
     1     1     2    1
     2     2     3    1
     3     2     6    1
     4     3     5   ar
     5     3     4   ar
     6     6     7    1
     7     9     8    2
     8    26    24   ar
     9     7     8    1
    10    25    24   ar
    11     8    10   am
    12    24    23    1
    13    10    11    1
    14    23    22    1
    15    22    12   am
    16    12    11    1
    17    12    13    2
    18    11    14    1
    19    14    15    1
    20    15    16    1
    21    16    17    1
    22    21    20    1
    23    19    20    1
    24    19    18    1
    25    17    18    1
