@<TRIPOS>MOLECULE
3f64_LEC_A_1.pdb
 24 25 0 0 0
SMALL
GASTEIGER

@<TRIPOS>ATOM
      1  C8        35.8960   50.2090   14.0330 C.3   178  LEC178      0.0964
      2  C7        36.9330   49.8050   15.0650 C.2   178  LEC178      0.2421
      3  O7        36.9390   50.3180   16.2060 O.2   178  LEC178     -0.2733
      4  N2        37.7790   48.8480   14.6540 N.am  178  LEC178     -0.1979
      5  C2        37.7640   48.2300   13.3070 C.3   178  LEC178      0.1978
      6  C3        37.6850   46.6870   13.4390 C.3   178  LEC178      0.2107
      7  O3        36.3610   46.3000   13.8670 O.3   178  LEC178     -0.2182
      8  C4        38.0710   45.9390   12.1340 C.3   178  LEC178      0.2137
      9  O4        38.1840   44.5220   12.3860 O.3   178  LEC178     -0.2176
     10  C5        39.3860   46.4780   11.5430 C.3   178  LEC178      0.1845
     11  C6        39.7830   45.7700   10.2140 C.3   178  LEC178      0.2142
     12  O6        38.8740   46.1140    9.1690 O.3   178  LEC178     -0.2176
     13  O5        39.3300   47.9200   11.3260 O.3   178  LEC178     -0.3163
     14  C1        39.0220   48.7040   12.5350 C.3   178  LEC178      0.3109
     15  O1        38.7510   50.0660   12.1300 O.3   178  LEC178     -0.4510
     16  C1'       39.7780   50.8480   11.6520 C.ar  178  LEC178      0.1415
     17  C2'       40.6700   50.3930   10.6870 C.ar  178  LEC178      0.0387
     18  C3'       41.6910   51.2100   10.1860 C.ar  178  LEC178      0.0272
     19  C4'       41.8180   52.5160   10.6470 C.ar  178  LEC178      0.1431
     20  N1'       42.7840   53.3400   10.2020 N.pl3 178  LEC178      0.0577
     21  O2'       43.8140   52.9180    9.3450 O.2   178  LEC178     -0.1261
     22  O1'       42.7920   54.6670   10.6280 O.2   178  LEC178     -0.1261
     23  C5'       40.9220   52.9710   11.6090 C.ar  178  LEC178      0.0272
     24  C6'       39.9080   52.1560   12.1010 C.ar  178  LEC178      0.0387
@<TRIPOS>BOND
     1    12    11    1
     2    21    20    2
     3    18    19   ar
     4    18    17   ar
     5    20    22    2
     6    20    19    1
     7    11    10    1
     8    19    23   ar
     9    17    16   ar
    10    13    10    1
    11    13    14    1
    12    10     8    1
    13    23    24   ar
    14    16    24   ar
    15    16    15    1
    16    15    14    1
    17     8     9    1
    18     8     6    1
    19    14     5    1
    20     5     6    1
    21     5     4    1
    22     6     7    1
    23     1     2    1
    24     4     2   am
    25     2     3    2
