@<TRIPOS>MOLECULE
3f66_IHX_A_1.pdb
 28 31 0 0 0
SMALL
GASTEIGER

@<TRIPOS>ATOM
      1  C1        -1.2730  -19.8400   31.0320 C.ar    1  IHX1        0.0033
      2  C2        -1.3350  -21.2170   30.9190 C.ar    1  IHX1        0.0003
      3  C3        -1.3180  -19.0680   29.8830 C.ar    1  IHX1        0.0420
      4  C4        -1.4740  -21.8150   29.6760 C.ar    1  IHX1        0.0057
      5  C5        -1.4340  -19.6750   28.6330 C.ar    1  IHX1        0.1957
      6  C6        -1.5140  -21.0620   28.5160 C.ar    1  IHX1        0.0421
      7  C7        -1.5620  -23.2760   29.6370 C.ar    1  IHX1        0.0312
      8  C8        -0.8940  -24.0720   28.7190 C.ar    1  IHX1        0.1497
      9  C11       -2.4040  -23.8800   30.5600 C.ar    1  IHX1        0.0065
     10  C12       -2.5700  -25.2610   30.5600 C.ar    1  IHX1        0.0731
     11  C18        0.6150  -24.3380   26.9130 C.2     1  IHX1        0.1850
     12  C19        0.4480  -25.7090   27.0320 C.3     1  IHX1        0.1997
     13  N22        1.4250  -23.7200   25.9600 N.pl3   1  IHX1       -0.2826
     14  C24        3.4040  -23.8820   24.4200 C.3     1  IHX1        0.0939
     15  C27        1.5200  -22.2460   25.9290 C.3     1  IHX1        0.1102
     16  F17       -4.5530  -25.1880   31.8050 F       1  IHX1       -0.1659
     17  C14       -3.4430  -25.8770   31.6180 C.3     1  IHX1        0.4186
     18  F15       -2.7630  -25.7790   32.7710 F       1  IHX1       -0.1659
     19  F16       -3.7730  -27.1450   31.3940 F       1  IHX1       -0.1659
     20  O13       -1.4640  -18.9110   27.5140 O.3     1  IHX1       -0.2866
     21  C10       -1.8970  -26.0450   29.6890 C.ar    1  IHX1        0.0251
     22  C9        -1.0550  -25.4600   28.7760 C.ar    1  IHX1        0.1060
     23  N21       -0.3800  -26.2800   27.9430 N.2     1  IHX1       -0.2587
     24  N20       -0.0500  -23.5130   27.7810 N.2     1  IHX1       -0.3879
     25  C25        2.7810  -21.6770   25.2400 C.3     1  IHX1        0.0939
     26  N23        3.2360  -22.4640   24.0730 N.3     1  IHX1       -0.2686
     27  C28        4.5280  -21.9420   23.6090 C.3     1  IHX1        0.0897
     28  C26        2.0680  -24.4680   24.8500 C.3     1  IHX1        0.1102
@<TRIPOS>BOND
     1    27    26    1
     2    26    14    1
     3    26    25    1
     4    14    28    1
     5    28    13    1
     6    25    15    1
     7    15    13    1
     8    13    11    1
     9    11    12    1
    10    11    24    2
    11    12    23    1
    12    20     5    1
    13    24     8    2
    14    23    22    2
    15     6     5   ar
    16     6     4   ar
    17     5     3   ar
    18     8    22   ar
    19     8     7   ar
    20    22    21   ar
    21     7     4    1
    22     7     9   ar
    23     4     2   ar
    24    21    10   ar
    25     3     1   ar
    26    10     9   ar
    27    10    17    1
    28     2     1   ar
    29    19    17    1
    30    17    16    1
    31    17    18    1
