@<TRIPOS>MOLECULE
3f68_91U_H_1.pdb
 30 32 0 0 0
SMALL
GASTEIGER

@<TRIPOS>ATOM
      1  C47       17.2460  -17.0620   23.7640 C.2   901  91U901      0.2423
      2  O48       18.0830  -17.7930   23.2470 O.2   901  91U901     -0.2733
      3  C49       16.6730  -17.5100   25.0830 C.3   901  91U901      0.0964
      4  C1        19.5960  -14.3690   25.0120 C.3   901  91U901      0.0022
      5  C6        20.4340  -14.4730   23.7030 C.3   901  91U901      0.0001
      6  C5        21.9310  -14.6710   24.0480 C.3   901  91U901      0.0000
      7  C4        22.4320  -13.5320   24.9550 C.3   901  91U901      0.0000
      8  C3        21.5350  -13.2610   26.1780 C.3   901  91U901      0.0000
      9  C2        20.0410  -13.0960   25.7820 C.3   901  91U901      0.0001
     10  N         16.8970  -15.8960   23.1390 N.am  901  91U901     -0.1978
     11  C15       17.8040  -14.7420   23.1940 C.3   901  91U901      0.1712
     12  C31       18.0660  -14.4250   24.7040 C.3   901  91U901      0.0310
     13  C14       17.2690  -13.5320   22.4620 C.2   901  91U901      0.2458
     14  O32       16.2220  -13.0730   22.9020 O.2   901  91U901     -0.2730
     15  N1        17.9290  -12.9930   21.3930 N.am  901  91U901     -0.2716
     16  C32       17.4840  -11.7760   20.7390 C.3   901  91U901      0.1536
     17  C7        15.9990  -11.7370   20.4600 C.2   901  91U901      0.2598
     18  O22       15.4200  -12.7430   20.0720 O.2   901  91U901     -0.2715
     19  C35       18.2600  -11.9090   19.3920 C.3   901  91U901      0.0310
     20  C34       19.5780  -12.6040   19.7990 C.3   901  91U901      0.0237
     21  C33       19.0900  -13.6780   20.8010 C.3   901  91U901      0.0939
     22  N23       15.3080  -10.5830   20.6460 N.am  901  91U901     -0.1992
     23  C24       13.8730  -10.5960   20.3560 C.3   901  91U901      0.1415
     24  C25       13.0160  -10.4950   21.6230 C.ar  901  91U901      0.0003
     25  C26       12.1440  -11.5250   21.9710 C.ar  901  91U901     -0.0025
     26  C27       11.3700  -11.4470   23.1350 C.ar  901  91U901      0.0006
     27  C28       11.4280  -10.2920   23.9420 C.ar  901  91U901      0.0114
     28  C29       12.3220   -9.2710   23.6070 C.ar  901  91U901      0.0574
     29  C30       13.0730   -9.3430   22.4230 C.ar  901  91U901      0.0088
     30 CL21       12.4570   -7.8540   24.6340 Cl    901  91U901     -0.0823
@<TRIPOS>BOND
     1    19    20    1
     2    19    16    1
     3    20    21    1
     4    18    17    2
     5    23    22    1
     6    23    24    1
     7    17    22   am
     8    17    16    1
     9    16    15    1
    10    21    15    1
    11    15    13   am
    12    24    25   ar
    13    24    29   ar
    14    25    26   ar
    15    29    28   ar
    16    13    14    2
    17    13    11    1
    18    26    27   ar
    19    10    11    1
    20    10     1   am
    21    11    12    1
    22     2     1    2
    23    28    27   ar
    24    28    30    1
    25     5     6    1
    26     5     4    1
    27     1     3    1
    28     6     7    1
    29    12     4    1
    30     7     8    1
    31     4     9    1
    32     9     8    1
