@<TRIPOS>MOLECULE
3f69_XDR_A_1.pdb
 35 42 0 0 0
SMALL
GASTEIGER

@<TRIPOS>ATOM
      1  CAR      -42.0940  -49.8320    3.7870 C.3   309  XDR309      0.2557
      2  OAV      -43.3730  -49.1310    4.0980 O.3   309  XDR309     -0.4426
      3  CAY      -44.0480  -48.4850    3.1000 C.2   309  XDR309      0.3492
      4  OAD      -43.5930  -48.4370    1.9590 O.2   309  XDR309     -0.2472
      5  CBM      -45.4570  -48.0020    3.3740 C.3   309  XDR309      0.2594
      6  OAE      -46.1730  -47.4230    2.3000 O.3   309  XDR309     -0.2096
      7  CAT      -46.1030  -48.2840    4.7430 C.3   309  XDR309      0.0997
      8  CBL      -45.1920  -47.7420    5.8470 C.3   309  XDR309      0.2096
      9  OAW      -44.4270  -46.7430    5.1980 O.3   309  XDR309     -0.3180
     10  CBN      -45.0760  -46.5560    3.9290 C.3   309  XDR309      0.2010
     11  CAB      -44.0700  -45.7770    3.0800 C.3   309  XDR309      0.0572
     12  NBK      -46.2240  -45.5780    4.1600 N.ar  309  XDR309     -0.3050
     13  CBE      -46.5870  -44.6440    3.2740 C.ar  309  XDR309      0.0617
     14  CAM      -46.1090  -44.3320    2.0100 C.ar  309  XDR309      0.0172
     15  CAI      -46.6940  -43.2850    1.2940 C.ar  309  XDR309      0.0015
     16  CAF      -47.7570  -42.5620    1.8320 C.ar  309  XDR309      0.0001
     17  CAJ      -48.2490  -42.8720    3.0970 C.ar  309  XDR309      0.0015
     18  CBB      -47.6590  -43.9090    3.8000 C.ar  309  XDR309      0.0171
     19  CBF      -47.9290  -44.4340    5.0480 C.ar  309  XDR309      0.0173
     20  CBI      -47.0090  -45.4560    5.2250 C.ar  309  XDR309      0.0774
     21  CBH      -47.0390  -46.1750    6.3920 C.ar  309  XDR309      0.0783
     22  NBJ      -46.2390  -47.1820    6.7160 N.ar  309  XDR309     -0.3039
     23  CBD      -46.6150  -47.6240    7.9250 C.ar  309  XDR309      0.0618
     24  CAL      -46.1250  -48.6620    8.7110 C.ar  309  XDR309      0.0172
     25  CAH      -46.7180  -48.9520    9.9320 C.ar  309  XDR309      0.0015
     26  CAG      -47.7780  -48.1770   10.3840 C.ar  309  XDR309      0.0001
     27  CAK      -48.2530  -47.1010    9.6290 C.ar  309  XDR309      0.0015
     28  CBC      -47.6890  -46.8360    8.3860 C.ar  309  XDR309      0.0180
     29  CBG      -47.9640  -45.8910    7.4040 C.ar  309  XDR309      0.0293
     30  CBA      -48.9000  -44.8660    7.2480 C.ar  309  XDR309      0.0822
     31  CAZ      -48.8560  -44.1450    6.0620 C.ar  309  XDR309      0.0154
     32  CAS      -49.9240  -43.0650    6.0900 C.3   309  XDR309      0.1650
     33  NAU      -50.5530  -43.2910    7.3930 N.2   309  XDR309     -0.1976
     34  CAX      -49.9420  -44.3110    8.0260 C.1   309  XDR309      0.1501
     35  OAC      -50.3210  -44.7000    9.1530 O.2   309  XDR309     -0.2222
@<TRIPOS>BOND
     1    15    16   ar
     2    15    14   ar
     3    16    17   ar
     4     4     3    2
     5    14    13   ar
     6     6     5    1
     7    11    10    1
     8    17    18   ar
     9     3     5    1
    10     3     2    1
    11    13    18   ar
    12    13    12   ar
    13     5    10    1
    14     5     7    1
    15     1     2    1
    16    18    19   ar
    17    10    12    1
    18    10     9    1
    19    12    20   ar
    20     7     8    1
    21    19    20   ar
    22    19    31   ar
    23     9     8    1
    24    20    21   ar
    25     8    22    1
    26    31    32    1
    27    31    30   ar
    28    32    33    1
    29    21    22   ar
    30    21    29   ar
    31    22    23   ar
    32    30    29   ar
    33    30    34    1
    34    33    34    2
    35    29    28   ar
    36    23    28   ar
    37    23    24   ar
    38    34    35    2
    39    28    27   ar
    40    24    25   ar
    41    27    26   ar
    42    25    26   ar
