@<TRIPOS>MOLECULE
3f6b_8PA_X_1.pdb
 36 38 0 0 0
SMALL
GASTEIGER

@<TRIPOS>ATOM
      1  C1I       64.6750   57.9240  157.6060 C.ar  602  8PA602      0.0031
      2  C1G       64.2550   59.2610  157.5050 C.ar  602  8PA602      0.0207
      3  C1H       64.6660   60.2050  158.4640 C.ar  602  8PA602      0.0989
      4  N1K       65.4480   59.8540  159.5070 N.ar  602  8PA602     -0.2423
      5  C1J       65.8480   58.5850  159.6350 C.ar  602  8PA602      0.0988
      6  C1N       65.4640   57.6050  158.7190 C.ar  602  8PA602      0.0189
      7  C1F       66.0360   56.3460  159.0020 C.2   602  8PA602     -0.0004
      8  C1E       65.4730   55.1300  158.9420 C.2   602  8PA602      0.0088
      9  C1M       66.2010   53.9450  159.2200 C.3   602  8PA602      0.2026
     10  O1D       66.0760   52.9620  158.2430 O.3   602  8PA602     -0.2155
     11  C1Q       66.7860   53.5020  160.5540 C.3   602  8PA602      0.1602
     12  S1        66.3210   54.3780  162.0220 S.3   602  8PA602     -0.0948
     13  C5        66.8140   53.0110  163.0040 C.2   602  8PA602      0.0164
     14  C6        66.6250   53.0530  164.5050 C.3   602  8PA602      0.0661
     15  C7        67.6250   53.9480  165.2830 C.3   602  8PA602      0.1544
     16  O7        67.2590   53.7770  166.7000 O.3   602  8PA602     -0.3134
     17  P1A       67.8300   54.7650  167.7560 P.3   602  8PA602      0.2230
     18  O2A       67.6420   54.0910  169.1040 O.3   602  8PA602     -0.4370
     19  O1A       69.1920   55.2700  167.4180 O.2   602  8PA602     -0.5169
     20  O3A       66.9080   56.0190  167.6890 O.3   602  8PA602     -0.2261
     21  P1B       65.2490   56.1910  167.8510 P.3   602  8PA602      0.5373
     22  O2B       64.6850   55.8370  166.4760 O.2   602  8PA602     -0.2221
     23  O1B       64.7930   55.2320  168.9460 O.3   602  8PA602     -0.1143
     24  O3B       65.0540   57.6270  168.1990 O.3   602  8PA602     -0.1143
     25  C4        67.3340   51.9980  162.2080 C.2   602  8PA602      0.0279
     26  C4M       67.9040   50.6880  162.7840 C.3   602  8PA602      0.0473
     27  N3        67.3050   52.2690  160.8890 N.pl3 602  8PA602     -0.2967
     28  C7S       67.8730   51.3050  159.9310 C.3   602  8PA602      0.1238
     29  C5S       69.3860   51.4310  159.7200 C.2   602  8PA602      0.0654
     30  C6S       70.1280   50.2900  159.9120 C.2   602  8PA602      0.1115
     31  N1S       71.4710   50.2400  159.6850 N.2   602  8PA602     -0.1861
     32  C2S       72.0760   51.3840  159.3330 C.1   602  8PA602      0.0663
     33  C2M       73.5950   51.3500  159.0490 C.3   602  8PA602      0.1291
     34  N3S       71.4060   52.5040  159.0870 N.2   602  8PA602     -0.3368
     35  C4S       70.0860   52.5560  159.2760 C.2   602  8PA602      0.2292
     36  N4S       69.4830   53.6900  158.9960 N.pl3 602  8PA602     -0.0925
@<TRIPOS>BOND
     1     2     1   ar
     2     2     3   ar
     3     1     6   ar
     4    10     9    1
     5     3     4   ar
     6     6     7    1
     7     6     5   ar
     8     8     7    2
     9     8     9    1
    10    36    35    1
    11    33    32    1
    12    34    35    2
    13    34    32    2
    14     9    11    1
    15    35    29    1
    16    32    31    2
    17     4     5   ar
    18    31    30    1
    19    29    30    2
    20    29    28    1
    21    28    27    1
    22    11    27    1
    23    11    12    1
    24    27    25    1
    25    12    13    1
    26    25    26    1
    27    25    13    2
    28    13    14    1
    29    14    15    1
    30    15    16    1
    31    22    21    2
    32    16    17    1
    33    19    17    2
    34    20    17    1
    35    20    21    1
    36    17    18    1
    37    21    24    1
    38    21    23    1
