@<TRIPOS>MOLECULE
3f6d_GTX_A_1.pdb
 26 25 0 0 0
SMALL
GASTEIGER

@<TRIPOS>ATOM
      1  N1        -3.1780   18.9120   28.0940 N.3   220  GTX220     -0.1208
      2  CA1       -2.6660   18.0310   29.1530 C.3   220  GTX220      0.1948
      3  C1        -3.8070   17.4940   29.9650 C.2   220  GTX220      0.3819
      4  O11       -3.7200   16.4040   30.5980 O.co2 220  GTX220     -0.2441
      5  O12       -4.8900   18.1310   30.0040 O.co2 220  GTX220     -0.2441
      6  CB1       -1.7300   18.8690   30.0080 C.3   220  GTX220      0.0402
      7  CG1       -0.9480   17.9920   30.9930 C.3   220  GTX220      0.0889
      8  CD1        0.0660   18.8130   31.7510 C.2   220  GTX220      0.2418
      9  OE1        0.3360   20.1380   31.4000 O.2   220  GTX220     -0.2733
     10  N2         0.6980   18.2370   32.7760 N.am  220  GTX220     -0.1969
     11  CA2        1.8950   18.8550   33.3460 C.3   220  GTX220      0.1834
     12  C2         3.0460   17.9170   33.2040 C.2   220  GTX220      0.2626
     13  O2         2.7680   16.5820   33.4100 O.2   220  GTX220     -0.2714
     14  CB2        1.6830   19.1300   34.8310 C.3   220  GTX220      0.0886
     15  SG2        0.2900   20.2610   35.0790 S.3   220  GTX220     -0.1379
     16  C1S        1.2640   21.7870   35.0350 C.3   220  GTX220      0.0576
     17  C2S        2.1950   22.0370   36.2100 C.3   220  GTX220      0.0116
     18  C3S        2.6570   23.4880   36.1630 C.3   220  GTX220      0.0009
     19  C4S        3.7770   23.7680   37.1680 C.3   220  GTX220      0.0000
     20  C5S        4.0560   25.2670   37.3290 C.3   220  GTX220      0.0000
     21  C6S        4.8920   25.8400   36.1940 C.3   220  GTX220      0.0000
     22  N3         4.2510   18.3930   32.8930 N.am  220  GTX220     -0.1917
     23  CA3        5.4130   17.5080   32.7660 C.3   220  GTX220      0.2285
     24  C3         5.7040   17.1360   31.3300 C.2   220  GTX220      0.3865
     25  O31        6.8520   16.7540   30.9820 O.co2 220  GTX220     -0.2437
     26  O32        4.7940   17.1880   30.4700 O.co2 220  GTX220     -0.2437
@<TRIPOS>BOND
     1     1     2    1
     2     2     3    1
     3     2     6    1
     4     3     5   ar
     5     3     4   ar
     6     6     7    1
     7    26    24   ar
     8    25    24   ar
     9     7     8    1
    10    24    23    1
    11     9     8    2
    12     8    10   am
    13    23    22    1
    14    10    11    1
    15    22    12   am
    16    12    11    1
    17    12    13    2
    18    11    14    1
    19    14    15    1
    20    16    15    1
    21    16    17    1
    22    18    17    1
    23    18    19    1
    24    21    20    1
    25    19    20    1
