@<TRIPOS>MOLECULE
3f6e_8PA_X_1.pdb
 36 38 0 0 0
SMALL
GASTEIGER

@<TRIPOS>ATOM
      1  C1I       64.4320   57.7560  157.5260 C.ar  602  8PA602      0.0031
      2  C1G       63.9260   59.0520  157.4030 C.ar  602  8PA602      0.0207
      3  C1H       64.2370   60.0260  158.3710 C.ar  602  8PA602      0.0989
      4  N1K       65.0040   59.7110  159.4230 N.ar  602  8PA602     -0.2423
      5  C1J       65.5210   58.4760  159.5680 C.ar  602  8PA602      0.0988
      6  C1N       65.2530   57.4720  158.6260 C.ar  602  8PA602      0.0189
      7  C1F       65.8230   56.2120  158.7890 C.2   602  8PA602     -0.0004
      8  C1E       65.1030   55.0590  158.9690 C.2   602  8PA602      0.0088
      9  C1M       65.7620   53.8200  159.1380 C.3   602  8PA602      0.2026
     10  O1D       65.5950   52.8290  158.1540 O.3   602  8PA602     -0.2155
     11  C1Q       66.4820   53.4590  160.4850 C.3   602  8PA602      0.1602
     12  S1        65.9630   54.2980  162.0240 S.3   602  8PA602     -0.0948
     13  C5        66.4580   52.8900  163.0010 C.2   602  8PA602      0.0164
     14  C6        66.2640   52.9320  164.4500 C.3   602  8PA602      0.0661
     15  C7        67.2580   53.8180  165.2560 C.3   602  8PA602      0.1544
     16  O7        66.8430   53.6320  166.6480 O.3   602  8PA602     -0.3134
     17  P1A       67.4140   54.6360  167.7020 P.3   602  8PA602      0.2230
     18  O2A       67.2470   53.9400  168.9950 O.3   602  8PA602     -0.4370
     19  O1A       68.7840   55.1650  167.4130 O.2   602  8PA602     -0.5169
     20  O3A       66.5800   55.8650  167.6330 O.3   602  8PA602     -0.2261
     21  P1B       64.8450   56.0590  167.7980 P.3   602  8PA602      0.5373
     22  O2B       64.2240   55.7100  166.4380 O.2   602  8PA602     -0.2221
     23  O1B       64.4580   55.0980  168.9060 O.3   602  8PA602     -0.1143
     24  O3B       64.6480   57.4570  168.1550 O.3   602  8PA602     -0.1143
     25  C4        66.8630   51.8840  162.1600 C.2   602  8PA602      0.0279
     26  C4M       67.3700   50.5200  162.7110 C.3   602  8PA602      0.0473
     27  N3        66.8900   52.1940  160.8490 N.pl3 602  8PA602     -0.2967
     28  C7S       67.4540   51.2040  159.8520 C.3   602  8PA602      0.1238
     29  C5S       69.0080   51.2820  159.6610 C.2   602  8PA602      0.0654
     30  C6S       69.7020   50.1070  159.8180 C.2   602  8PA602      0.1115
     31  N1S       71.0470   50.0890  159.6520 N.2   602  8PA602     -0.1861
     32  C2S       71.5800   51.2490  159.2670 C.1   602  8PA602      0.0663
     33  C2M       73.1190   51.1910  159.0170 C.3   602  8PA602      0.1291
     34  N3S       70.9520   52.4060  159.0330 N.2   602  8PA602     -0.3368
     35  C4S       69.6030   52.4590  159.1820 C.2   602  8PA602      0.2292
     36  N4S       69.0630   53.5930  158.9120 N.pl3 602  8PA602     -0.0925
@<TRIPOS>BOND
     1     2     1   ar
     2     2     3   ar
     3     1     6   ar
     4    10     9    1
     5     3     4   ar
     6     6     7    1
     7     6     5   ar
     8     7     8    2
     9    36    35    1
    10     8     9    1
    11    33    32    1
    12    34    35    2
    13    34    32    2
    14     9    11    1
    15    35    29    1
    16    32    31    2
    17     4     5   ar
    18    31    30    1
    19    29    30    2
    20    29    28    1
    21    28    27    1
    22    11    27    1
    23    11    12    1
    24    27    25    1
    25    12    13    1
    26    25    26    1
    27    25    13    2
    28    13    14    1
    29    14    15    1
    30    15    16    1
    31    22    21    2
    32    16    17    1
    33    19    17    2
    34    20    17    1
    35    20    21    1
    36    17    18    1
    37    21    24    1
    38    21    23    1
