@<TRIPOS>MOLECULE
3f6j_MBG_A_1.pdb
 12 12 0 0 0
SMALL
GASTEIGER

@<TRIPOS>ATOM
      1  C1        42.2250   52.3990   11.1890 C.3   179  MBG179      0.2669
      2  C2        41.0530   51.6850   11.8700 C.3   179  MBG179      0.2105
      3  C3        40.9770   50.2190   11.4140 C.3   179  MBG179      0.0737
      4  C4        41.0950   50.0310    9.8610 C.3   179  MBG179      0.1843
      5  C5        42.2580   50.8730    9.3090 C.3   179  MBG179      0.1809
      6  C6        42.3520   50.9310    7.7660 C.3   179  MBG179      0.2141
      7  C7        43.4830   54.4140   11.0920 C.3   179  MBG179      0.1769
      8  O1        42.2200   53.7990   11.4860 O.3   179  MBG179     -0.3259
      9  O2        41.2110   51.7300   13.3100 O.3   179  MBG179     -0.2176
     10  O4        39.8640   50.4130    9.2580 O.3   179  MBG179     -0.2204
     11  O5        42.1250   52.2350    9.7480 O.3   179  MBG179     -0.3258
     12  O6        43.5660   51.6150    7.4570 O.3   179  MBG179     -0.2176
@<TRIPOS>BOND
     1    12     6    1
     2     6     5    1
     3    10     4    1
     4     5    11    1
     5     5     4    1
     6    11     1    1
     7     4     3    1
     8     7     8    1
     9     1     8    1
    10     1     2    1
    11     3     2    1
    12     2     9    1
