@<TRIPOS>MOLECULE
3f6j_NAG_A_1.pdb
 15 15 0 0 0
SMALL
GASTEIGER

@<TRIPOS>ATOM
      1  C1        39.7300   48.3830   12.3410 C.3   178  NAG178      0.2917
      2  C2        38.3760   48.0140   13.0330 C.3   178  NAG178      0.1871
      3  C3        38.1850   46.4910   13.2440 C.3   178  NAG178      0.2095
      4  C4        38.5470   45.6690   11.9730 C.3   178  NAG178      0.2136
      5  C5        39.9240   46.1360   11.4450 C.3   178  NAG178      0.1835
      6  C6        40.3840   45.4190   10.1700 C.3   178  NAG178      0.2142
      7  C7        37.4420   49.7160   14.5070 C.2   178  NAG178      0.2421
      8  C8        36.5470   50.0920   13.3160 C.3   178  NAG178      0.0964
      9  N2        38.2850   48.7030   14.3300 N.am  178  NAG178     -0.1991
     10  O1        39.7210   49.7780   11.9610 O.3   178  NAG178     -0.1879
     11  O3        36.8140   46.3170   13.6330 O.3   178  NAG178     -0.2183
     12  O4        38.5740   44.2590   12.2320 O.3   178  NAG178     -0.2176
     13  O5        39.8620   47.5780   11.1480 O.3   178  NAG178     -0.3242
     14  O6        39.5030   45.7920    9.1240 O.3   178  NAG178     -0.2176
     15  O7        37.3530   50.3200   15.5760 O.2   178  NAG178     -0.2733
@<TRIPOS>BOND
     1    14     6    1
     2     6     5    1
     3    13     5    1
     4    13     1    1
     5     5     4    1
     6    10     1    1
     7     4    12    1
     8     4     3    1
     9     1     2    1
    10     2     3    1
    11     2     9    1
    12     3    11    1
    13     8     7    1
    14     9     7   am
    15     7    15    2
