@<TRIPOS>MOLECULE
3f6k_III_N_1.pdb
 36 37 0 0 0
SMALL
GASTEIGER

@<TRIPOS>ATOM
      1  N         18.2930   71.1150   26.7340 N.3    10  PRO10      -0.2102
      2  CA        17.2490   71.7490   27.5560 C.3    10  PRO10       0.1504
      3  C         17.6670   73.1100   28.1200 C.2    10  PRO10       0.2576
      4  O         18.8540   73.3850   28.2540 O.2    10  PRO10      -0.2718
      5  CB        17.0080   70.7220   28.6660 C.3    10  PRO10       0.0282
      6  CG        17.3020   69.3860   28.0000 C.3    10  PRO10       0.0208
      7  CD        18.3420   69.6490   26.9130 C.3    10  PRO10       0.0893
      8  N         16.6690   73.9170   28.4760 N.am   11  TYR11      -0.1963
      9  CA        16.7230   75.3740   28.6220 C.3    11  TYR11       0.1771
     10  C         15.8560   75.7050   29.8250 C.2    11  TYR11       0.2619
     11  O         14.6390   75.5930   29.7310 O.2    11  TYR11      -0.2715
     12  CB        15.9230   75.9330   27.4720 C.3    11  TYR11       0.0574
     13  CG        16.4030   77.1360   26.7700 C.ar   11  TYR11      -0.0198
     14  CD1       16.9900   78.2020   27.4450 C.ar   11  TYR11      -0.0009
     15  CD2       16.2130   77.2300   25.3970 C.ar   11  TYR11      -0.0009
     16  CE1       17.4220   79.3330   26.7400 C.ar   11  TYR11       0.0417
     17  CE2       16.6250   78.3350   24.6930 C.ar   11  TYR11       0.0417
     18  CZ        17.2280   79.3930   25.3530 C.ar   11  TYR11       0.1957
     19  OH        17.6250   80.4840   24.5840 O.3    11  TYR11      -0.2866
     20  N         16.4610   76.1370   30.9260 N.am   12  ILE12      -0.1963
     21  CA        15.7490   76.2900   32.1950 C.3    12  ILE12       0.1727
     22  C         15.0980   77.6590   32.3420 C.2    12  ILE12       0.2617
     23  O         15.6560   78.6760   31.9440 O.2    12  ILE12      -0.2715
     24  CB        16.7120   76.0540   33.3660 C.3    12  ILE12       0.0290
     25  CG1       17.5040   74.7580   33.1390 C.3    12  ILE12       0.0022
     26  CG2       15.9840   76.0740   34.7000 C.3    12  ILE12       0.0023
     27  CD1       16.6960   73.5000   33.1240 C.3    12  ILE12       0.0001
     28  N         13.9180   77.6680   32.9300 N.am   13  LEU13      -0.1942
     29  CA        13.1750   78.8940   33.2080 C.3    13  LEU13       0.1978
     30  C         12.5580   78.8610   34.6350 C.2    13  LEU13       0.3842
     31  O         12.0280   79.8870   35.1300 O.co2  13  LEU13      -0.2437
     32  CB        12.0500   79.0640   32.1720 C.3    13  LEU13       0.0333
     33  CG        12.2910   79.0570   30.6500 C.3    13  LEU13       0.0023
     34  CD1       11.0450   78.5480   29.8980 C.3    13  LEU13       0.0001
     35  CD2       12.6990   80.4370   30.1620 C.3    13  LEU13       0.0001
     36  OXT       12.5570   77.8060   35.3160 O.co2  13  LEU13      -0.2437
@<TRIPOS>BOND
     1    19    18    1
     2    17    18   ar
     3    17    15   ar
     4    18    16   ar
     5    15    13   ar
     6     1     7    1
     7     1     2    1
     8    16    14   ar
     9    13    14   ar
    10    13    12    1
    11     7     6    1
    12    12     9    1
    13     2     3    1
    14     2     5    1
    15     6     5    1
    16     3     4    2
    17     3     8   am
    18     8     9    1
    19     9    10    1
    20    11    10    2
    21    10    20   am
    22    34    33    1
    23    35    33    1
    24    33    32    1
    25    20    21    1
    26    23    22    2
    27    32    29    1
    28    21    22    1
    29    21    24    1
    30    22    28   am
    31    28    29    1
    32    27    25    1
    33    25    24    1
    34    29    30    1
    35    24    26    1
    36    30    31   ar
    37    30    36   ar
