@<TRIPOS>MOLECULE
3f6r_FMN_A_1.pdb
 31 33 0 0 0
SMALL
GASTEIGER

@<TRIPOS>ATOM
      1  N1        18.4570    3.8490  -14.5690 N.2   149  FMN149     -0.2887
      2  C2        19.5650    4.2410  -13.8500 C.1   149  FMN149      0.3669
      3  O2        20.0800    3.4730  -13.0430 O.2   149  FMN149     -0.1744
      4  N3        20.1000    5.4970  -14.0370 N.2   149  FMN149     -0.2300
      5  C4        19.5330    6.3770  -14.9410 C.1   149  FMN149      0.2513
      6  O4        20.1270    7.4170  -15.2290 O.2   149  FMN149     -0.2057
      7  C4A       18.4150    5.9900  -15.6690 C.2   149  FMN149      0.2706
      8  N5        17.8330    6.8490  -16.5820 N.2   149  FMN149     -0.3841
      9  C5A       16.7220    6.4420  -17.3010 C.2   149  FMN149      0.1452
     10  C6        16.1330    7.3020  -18.2230 C.2   149  FMN149      0.0252
     11  C7        15.0110    6.9030  -18.9450 C.2   149  FMN149     -0.0375
     12  C7M       14.4680    7.7830  -20.0410 C.3   149  FMN149      0.0268
     13  C8        14.4770    5.6270  -18.7640 C.3   149  FMN149      0.0417
     14  C8M       13.7900    4.9870  -19.9410 C.3   149  FMN149      0.0091
     15  C9        15.0670    4.7750  -17.8330 C.2   149  FMN149     -0.0049
     16  C9A       16.1860    5.1720  -17.1060 C.2   149  FMN149      0.0795
     17  N10       16.7760    4.3150  -16.1940 N.pl3 149  FMN149     -0.2545
     18  C10       17.8830    4.7180  -15.4770 C.2   149  FMN149      0.2449
     19  C1'       16.2730    2.9150  -16.0230 C.3   149  FMN149      0.1336
     20  C2'       15.0950    2.9780  -15.0590 C.3   149  FMN149      0.2048
     21  O2'       15.4480    3.7020  -13.8950 O.3   149  FMN149     -0.2185
     22  C3'       14.5930    1.6090  -14.6350 C.3   149  FMN149      0.2165
     23  O3'       14.5760    0.7590  -15.7480 O.3   149  FMN149     -0.2175
     24  C4'       13.1640    1.8150  -14.1660 C.3   149  FMN149      0.2147
     25  O4'       13.0850    2.9860  -13.3770 O.3   149  FMN149     -0.2176
     26  C5'       12.6070    0.6470  -13.3660 C.3   149  FMN149      0.1892
     27  O5'       12.2810    1.1390  -12.0850 O.3   149  FMN149     -0.2674
     28  P         10.7470    1.3790  -11.6580 P.3   149  FMN149      0.5327
     29  O1P        9.8710    0.4040  -12.4060 O.2   149  FMN149     -0.2224
     30  O2P       10.2970    2.7750  -11.9960 O.3   149  FMN149     -0.1145
     31  O3P       10.6320    1.1380  -10.1660 O.3   149  FMN149     -0.1145
@<TRIPOS>BOND
     1    12    11    1
     2    14    13    1
     3    11    13    1
     4    11    10    2
     5    13    15    1
     6    10     9    1
     7    15    16    2
     8     9    16    1
     9     9     8    2
    10    16    17    1
    11     8     7    2
    12    17    19    1
    13    17    18    1
    14    19    20    1
    15    23    22    1
    16     7    18    1
    17     7     5    1
    18    18     1    2
    19     6     5    2
    20    20    22    1
    21    20    21    1
    22     5     4    2
    23    22    24    1
    24     1     2    2
    25    24    25    1
    26    24    26    1
    27     4     2    2
    28     2     3    2
    29    26    27    1
    30    29    28    2
    31    27    28    1
    32    30    28    1
    33    28    31    1
