@<TRIPOS>MOLECULE
3f6s_FMN_A_1.pdb
 31 33 0 0 0
SMALL
GASTEIGER

@<TRIPOS>ATOM
      1  N1       -18.7430   -1.0940   -6.7580 N.2   149  FMN149     -0.2887
      2  C2       -18.3370   -2.4090   -6.8400 C.1   149  FMN149      0.3669
      3  O2       -19.0580   -3.3020   -6.4050 O.2   149  FMN149     -0.1744
      4  N3       -17.1220   -2.7260   -7.4050 N.2   149  FMN149     -0.2300
      5  C4       -16.3000   -1.7420   -7.8930 C.1   149  FMN149      0.2513
      6  O4       -15.4800   -2.0630   -8.7480 O.2   149  FMN149     -0.2057
      7  C4A      -16.6990   -0.4100   -7.8070 C.2   149  FMN149      0.2706
      8  N5       -15.8790    0.6000   -8.2860 N.2   149  FMN149     -0.3841
      9  C5A      -16.2890    1.9210   -8.2070 C.2   149  FMN149      0.1452
     10  C6       -15.4710    2.9390   -8.6940 C.2   149  FMN149      0.0252
     11  C7       -15.8750    4.2680   -8.6170 C.2   149  FMN149     -0.0375
     12  C7M      -14.8470    5.3440   -8.7780 C.3   149  FMN149      0.0268
     13  C8       -17.1120    4.5860   -8.0530 C.3   149  FMN149      0.0417
     14  C8M      -17.7310    5.9220   -8.3240 C.3   149  FMN149      0.0091
     15  C9       -17.9230    3.5660   -7.5660 C.2   149  FMN149     -0.0049
     16  C9A      -17.5200    2.2350   -7.6410 C.2   149  FMN149      0.0795
     17  N10      -18.3330    1.2290   -7.1510 N.pl3 149  FMN149     -0.2545
     18  C10      -17.9300   -0.0890   -7.2430 C.2   149  FMN149      0.2449
     19  C1'      -19.6040    1.5570   -6.4280 C.3   149  FMN149      0.1336
     20  C2'      -19.3600    2.1670   -5.0510 C.3   149  FMN149      0.2048
     21  O2'      -18.5950    1.3020   -4.2380 O.3   149  FMN149     -0.2185
     22  C3'      -20.7160    2.4540   -4.4030 C.3   149  FMN149      0.2165
     23  O3'      -21.1310    3.7670   -4.7250 O.3   149  FMN149     -0.2175
     24  C4'      -20.7270    2.2540   -2.8890 C.3   149  FMN149      0.2147
     25  O4'      -22.0640    2.2820   -2.4340 O.3   149  FMN149     -0.2176
     26  C5'      -19.9130    3.3020   -2.1290 C.3   149  FMN149      0.1892
     27  O5'      -19.8270    2.9180   -0.7710 O.3   149  FMN149     -0.2674
     28  P        -19.3080    3.9170    0.3800 P.3   149  FMN149      0.5327
     29  O1P      -20.0530    5.2150    0.2460 O.2   149  FMN149     -0.2224
     30  O2P      -17.8200    4.1390    0.2690 O.3   149  FMN149     -0.1145
     31  O3P      -19.6060    3.3400    1.7420 O.3   149  FMN149     -0.1145
@<TRIPOS>BOND
     1    12    11    1
     2     6     5    2
     3    10    11    2
     4    10     9    1
     5    11    13    1
     6    14    13    1
     7     8     9    2
     8     8     7    2
     9     9    16    1
    10    13    15    1
    11     5     7    1
    12     5     4    2
    13     7    18    1
    14    16    15    2
    15    16    17    1
    16     4     2    2
    17    18    17    1
    18    18     1    2
    19    17    19    1
    20     2     1    2
    21     2     3    2
    22    19    20    1
    23    20    22    1
    24    20    21    1
    25    23    22    1
    26    22    24    1
    27    24    25    1
    28    24    26    1
    29    26    27    1
    30    27    28    1
    31    29    28    2
    32    30    28    1
    33    28    31    1
