@<TRIPOS>MOLECULE
3f6x_IHH_A_1.pdb
 29 33 0 0 0
SMALL
GASTEIGER

@<TRIPOS>ATOM
      1  C1        -6.9940   -4.3000   14.9010 C.2     1  IHH1       -0.0036
      2  C2        -8.0980   -3.5150   14.5880 C.2     1  IHH1        0.0020
      3  C3        -8.4560   -3.3380   13.2570 C.2     1  IHH1        0.0294
      4  C4        -6.2380   -4.9040   13.9000 C.2     1  IHH1       -0.0084
      5  C5        -6.5910   -4.7250   12.5690 C.3     1  IHH1        0.1716
      6  C6        -7.7010   -3.9480   12.2620 C.2     1  IHH1        0.1369
      7  C8        -7.3620   -4.3920   10.0040 C.1     1  IHH1        0.2272
      8  C10       -5.8760   -5.3350   11.5430 C.2     1  IHH1        0.3131
      9  C12       -7.1130   -4.3160    7.6440 C.ar    1  IHH1        0.0835
     10  C13       -7.7120   -3.9370    6.4480 C.ar    1  IHH1        0.0171
     11  C14       -7.0040   -4.0100    5.2540 C.ar    1  IHH1       -0.0019
     12  C15       -5.6870   -4.4560    5.2580 C.ar    1  IHH1       -0.0070
     13  C28       -3.2680   -7.4890    6.8940 C.3     1  IHH1        0.0061
     14  C29       -4.0220   -8.7660    7.2740 C.3     1  IHH1        0.0061
     15  C27       -2.8010   -8.3280    8.0860 C.3     1  IHH1        0.0406
     16  C24       -3.0920   -7.7210    9.4610 C.2     1  IHH1        0.0951
     17  C23       -4.1170   -6.9280    9.7590 C.3     1  IHH1        0.1690
     18  N25       -2.3630   -7.9430   10.5510 N.2     1  IHH1       -0.0426
     19  N26       -2.8840   -7.3470   11.4940 N.2     1  IHH1        0.0793
     20  C22       -3.9720   -6.7120   11.0630 C.2     1  IHH1        0.3768
     21  N21       -4.7700   -6.0090   11.8670 N.pl3   1  IHH1        0.0227
     22  N9        -6.2810   -5.1460   10.2790 N.2     1  IHH1       -0.2868
     23  N7        -8.0620   -3.8070   10.9830 N.2     1  IHH1       -0.3303
     24  N11       -7.7490   -4.0440    8.7800 N.pl3   1  IHH1       -0.1254
     25  C17       -5.8010   -4.7740    7.6460 C.ar    1  IHH1        0.0171
     26  C16       -5.0900   -4.8440    6.4520 C.ar    1  IHH1       -0.0019
     27  C18       -4.8850   -4.4430    3.9540 C.3     1  IHH1        0.1316
     28  C19       -3.9490   -5.5720    3.8920 C.1     1  IHH1        0.0780
     29  N20       -3.2250   -6.4490    3.8540 N.1     1  IHH1       -0.1955
@<TRIPOS>BOND
     1    29    28    3
     2    28    27    1
     3    27    12    1
     4    11    12   ar
     5    11    10   ar
     6    12    26   ar
     7    10     9   ar
     8    26    25   ar
     9    13    14    1
    10    13    15    1
    11    14    15    1
    12     9    25   ar
    13     9    24    1
    14    15    16    1
    15    24     7    1
    16    16    17    1
    17    16    18    2
    18    17    20    1
    19     7    22    2
    20     7    23    2
    21    22     8    2
    22    18    19    1
    23    23     6    2
    24    20    19    2
    25    20    21    1
    26     8    21    1
    27     8     5    1
    28     6     5    1
    29     6     3    1
    30     5     4    1
    31     3     2    2
    32     4     1    2
    33     2     1    1
