@<TRIPOS>MOLECULE
3f70_MLZ_A_1.pdb
 10 9 0 0 0
SMALL
GASTEIGER

@<TRIPOS>ATOM
      1  N         30.0160   21.8440  -56.9690 N.3    20  MLZ20      -0.1245
      2  CA        29.5160   20.9120  -55.9250 C.3    20  MLZ20       0.1561
      3  CB        29.3400   19.5140  -56.5190 C.3    20  MLZ20       0.0271
      4  CG        29.0710   18.3960  -55.4940 C.3    20  MLZ20       0.0034
      5  CD        28.1100   17.3820  -56.1140 C.3    20  MLZ20       0.0189
      6  CE        28.2780   15.9960  -55.5150 C.3    20  MLZ20       0.0888
      7  NZ        27.2820   15.0470  -56.0130 N.3    20  MLZ20      -0.2165
      8  CM        27.0490   13.8980  -55.1360 C.3    20  MLZ20       0.1075
      9  C         30.4380   20.9270  -54.7220 C.2    20  MLZ20       0.2260
     10  O         29.9150   20.9890  -53.5880 O.2    20  MLZ20      -0.2867
@<TRIPOS>BOND
     1     1     2    1
     2     3     2    1
     3     3     4    1
     4     5     6    1
     5     5     4    1
     6     7     6    1
     7     7     8    1
     8     2     9    1
     9     9    10    2
