@<TRIPOS>MOLECULE
3f78_ICF_A_1.pdb
 10 9 0 0 0
SMALL
GASTEIGER

@<TRIPOS>ATOM
      1  FAC       27.4000   17.1820    3.8110 F       1  ICF1       -0.1663
      2  CAJ       28.2080   17.2250    4.8700 C.3     1  ICF1        0.4372
      3  FAD       29.1390   18.1490    4.6670 F       1  ICF1       -0.1663
      4  FAE       28.8090   16.0650    5.0390 F       1  ICF1       -0.1663
      5  CAI       27.3980   17.5840    6.1190 C.3     1  ICF1        0.2944
      6 CLAF       26.2020   16.2800    6.6240 Cl      1  ICF1       -0.0734
      7  OAG       26.6990   18.7920    5.7910 O.3     1  ICF1       -0.2779
      8  CAH       26.6070   19.7000    6.9060 C.3     1  ICF1        0.4510
      9  FAB       26.3150   19.0230    8.0300 F       1  ICF1       -0.1663
     10  FAA       27.7460   20.4040    7.0710 F       1  ICF1       -0.1663
@<TRIPOS>BOND
     1     1     2    1
     2     3     2    1
     3     2     4    1
     4     2     5    1
     5     7     5    1
     6     7     8    1
     7     5     6    1
     8     8    10    1
     9     8     9    1
