@<TRIPOS>MOLECULE
3f7b_AG5_A_1.pdb
 28 30 0 0 0
SMALL
GASTEIGER

@<TRIPOS>ATOM
      1  O14      -53.4040  -62.2710    5.6680 O.2   302  AG5302     -0.2683
      2  C1       -52.4270  -62.9370    5.2580 C.2   302  AG5302      0.2668
      3  N15      -52.6110  -64.1860    4.7250 N.am  302  AG5302     -0.2013
      4  C16      -53.9380  -64.8760    4.6420 C.3   302  AG5302      0.1201
      5  C17      -54.3440  -65.4740    5.9960 C.3   302  AG5302      0.0498
      6  C18      -53.1530  -66.0220    6.8030 C.ar  302  AG5302     -0.0204
      7  C24      -52.5430  -65.2000    7.6680 C.ar  302  AG5302     -0.0042
      8  C25      -51.4880  -65.6160    8.3660 C.ar  302  AG5302     -0.0003
      9  C26      -50.9520  -66.8520    8.2310 C.ar  302  AG5302     -0.0000
     10  C27      -51.5540  -67.7360    7.3820 C.ar  302  AG5302     -0.0003
     11  C28      -52.6650  -67.2870    6.6670 C.ar  302  AG5302     -0.0042
     12  C6       -51.0330  -62.3260    5.2850 C.ar  302  AG5302      0.0802
     13  C7       -49.8600  -63.0710    5.3730 C.ar  302  AG5302      0.0282
     14  C5       -50.9740  -60.9450    5.0790 C.ar  302  AG5302      0.1152
     15  N4       -49.8310  -60.3190    5.0570 N.ar  302  AG5302     -0.2358
     16  C3       -48.7000  -60.9940    5.2100 C.ar  302  AG5302      0.1194
     17  C2       -48.6950  -62.3600    5.3970 C.ar  302  AG5302      0.1443
     18  S8       -47.1010  -63.1280    5.5880 S.O2  302  AG5302      0.0950
     19  O11      -46.5410  -63.0810    4.2480 O.2   302  AG5302     -0.1502
     20  O12      -46.4500  -62.4200    6.6570 O.2   302  AG5302     -0.1502
     21  N9       -47.3530  -64.7470    6.0440 N.3   302  AG5302      0.0393
     22  S10      -52.4770  -60.0170    4.8350 S.3   302  AG5302     -0.0679
     23  C13      -52.0820  -58.3510    4.5350 C.ar  302  AG5302      0.0309
     24  C19      -51.4040  -58.0270    3.3540 C.ar  302  AG5302      0.0065
     25  C20      -51.1230  -56.6970    3.0900 C.ar  302  AG5302      0.0005
     26  C21      -51.5000  -55.7090    4.0090 C.ar  302  AG5302      0.0000
     27  C22      -52.1710  -56.0470    5.1910 C.ar  302  AG5302      0.0005
     28  C23      -52.4910  -57.3830    5.4710 C.ar  302  AG5302      0.0065
@<TRIPOS>BOND
     1    25    24   ar
     2    25    26   ar
     3    24    23   ar
     4    26    27   ar
     5    19    18    2
     6    23    22    1
     7    23    28   ar
     8     4     3    1
     9     4     5    1
    10     3     2   am
    11    22    14    1
    12    15    14   ar
    13    15    16   ar
    14    14    12   ar
    15    27    28   ar
    16    16    17   ar
    17     2    12    1
    18     2     1    2
    19    12    13   ar
    20    13    17   ar
    21    17    18    1
    22    18    21    1
    23    18    20    2
    24     5     6    1
    25    11     6   ar
    26    11    10   ar
    27     6     7   ar
    28    10     9   ar
    29     7     8   ar
    30     9     8   ar
