@<TRIPOS>MOLECULE
3f7g_389_E_1.pdb
 34 36 0 0 0
SMALL
GASTEIGER

@<TRIPOS>ATOM
      1  N1        22.5020   49.1180   -7.5500 N.3     1  3891       -0.1231
      2  C2        22.9340   48.7090   -6.1850 C.3     1  3891        0.1694
      3  C3        22.6830   49.8270   -5.1820 C.3     1  3891        0.0304
      4  C4        22.2090   47.4320   -5.7710 C.2     1  3891        0.2592
      5  O5        21.1600   47.1070   -6.3200 O.2     1  3891       -0.2718
      6  N6        22.8090   46.6970   -4.8360 N.am    1  3891       -0.1966
      7  C7        22.2400   45.4670   -4.2880 C.3     1  3891        0.1712
      8  C8        22.9910   44.1880   -4.7680 C.3     1  3891        0.0289
      9  C9        22.6970   43.8900   -6.2470 C.3     1  3891        0.0023
     10  C10       24.5000   44.2980   -4.5140 C.3     1  3891        0.0023
     11  C11       22.3200   45.5430   -2.7610 C.2     1  3891        0.2458
     12  O12       23.1850   46.2330   -2.2140 O.2     1  3891       -0.2730
     13  N13       21.4100   44.8440   -2.0660 N.am    1  3891       -0.2716
     14  C14       21.5160   44.7850   -0.6130 C.3     1  3891        0.1535
     15  C15       20.2200   44.0800   -0.1890 C.3     1  3891        0.0310
     16  C16       19.7520   43.3520   -1.3840 C.3     1  3891        0.0237
     17  C17       20.2510   44.0980   -2.5790 C.3     1  3891        0.0939
     18  C18       22.7660   44.0000   -0.1740 C.2     1  3891        0.2595
     19  O19       23.2480   43.1520   -0.9280 O.2     1  3891       -0.2716
     20  C20       24.5710   43.6400    1.3980 C.3     1  3891        0.1238
     21  N21       23.3080   44.2800    1.0140 N.am    1  3891       -0.2033
     22  C22       24.9990   43.9090    2.8350 C.3     1  3891        0.0662
     23  C23       26.1380   43.0110    3.1340 C.ar    1  3891       -0.0167
     24  C24       27.4300   43.3270    2.7200 C.ar    1  3891       -0.0039
     25  C25       28.4830   42.4630    3.0170 C.ar    1  3891       -0.0003
     26  C26       28.2440   41.2910    3.7230 C.ar    1  3891       -0.0000
     27  C27       26.9500   40.9750    4.1320 C.ar    1  3891       -0.0003
     28  C28       25.8980   41.8340    3.8370 C.ar    1  3891       -0.0039
     29  C29       25.2990   45.3390    3.1420 C.ar    1  3891       -0.0167
     30  C30       25.5060   46.3050    2.1550 C.ar    1  3891       -0.0039
     31  C31       25.7590   47.6230    2.5080 C.ar    1  3891       -0.0003
     32  C32       25.8080   48.0050    3.8400 C.ar    1  3891       -0.0000
     33  C33       25.5980   47.0470    4.8270 C.ar    1  3891       -0.0003
     34  C34       25.3440   45.7240    4.4810 C.ar    1  3891       -0.0039
@<TRIPOS>BOND
     1     1     2    1
     2     5     4    2
     3     9     8    1
     4     2     4    1
     5     2     3    1
     6     4     6   am
     7     6     7    1
     8     8    10    1
     9     8     7    1
    10     7    11    1
    11    11    12    2
    12    11    13   am
    13    17    13    1
    14    17    16    1
    15    13    14    1
    16    16    15    1
    17    19    18    2
    18    14    15    1
    19    14    18    1
    20    18    21   am
    21    21    20    1
    22    20    22    1
    23    30    31   ar
    24    30    29   ar
    25    31    32   ar
    26    24    25   ar
    27    24    23   ar
    28    22    23    1
    29    22    29    1
    30    25    26   ar
    31    23    28   ar
    32    29    34   ar
    33    26    27   ar
    34    28    27   ar
    35    32    33   ar
    36    34    33   ar
