@<TRIPOS>MOLECULE
3f7h_419_A_1.pdb
 38 41 0 0 0
SMALL
GASTEIGER

@<TRIPOS>ATOM
      1  O6        85.3720   62.2020   13.1570 O.2     1  4191       -0.2718
      2  C5        84.7820   61.7570   14.1440 C.2     1  4191        0.2576
      3  C3        85.5940   61.3040   15.3840 C.3     1  4191        0.1505
      4  N2        86.9710   60.9420   14.9460 N.3     1  4191       -0.2087
      5  C1        87.1230   59.7810   14.0340 C.3     1  4191        0.1080
      6  C4        85.5830   62.3640   16.5130 C.3     1  4191        0.0287
      7  N7        83.4480   61.6480   14.2140 N.am    1  4191       -0.1967
      8  C8        82.5300   61.9650   13.0860 C.3     1  4191        0.1711
      9  C9        82.0500   60.6830   12.2980 C.3     1  4191        0.0269
     10  C10       83.2860   59.8370   11.8730 C.3     1  4191        0.0022
     11  C11       81.0800   59.7640   13.0970 C.3     1  4191        0.0022
     12  C12       81.3260   61.1090   10.9870 C.3     1  4191        0.0022
     13  C13       81.3550   62.8040   13.6940 C.2     1  4191        0.2455
     14  O14       80.8900   62.4410   14.7930 O.2     1  4191       -0.2730
     15  N15       80.8200   63.8780   13.0420 N.am    1  4191       -0.2781
     16  C16       79.5450   64.4970   13.4570 C.3     1  4191        0.0952
     17  C19       81.3890   64.5620   11.8670 C.3     1  4191        0.0935
     18  C18       80.8250   65.9720   11.9890 C.3     1  4191        0.0232
     19  C17       79.4230   65.7550   12.5730 C.3     1  4191        0.0217
     20  C20       78.3110   65.4340   11.5520 C.3     1  4191        0.0036
     21  C21       78.0580   63.9310   11.6530 C.3     1  4191        0.0234
     22  C22       78.3180   63.6100   13.1300 C.3     1  4191        0.1134
     23  N25       77.1440   63.9600   13.9590 N.am    1  4191       -0.2049
     24  C26       76.6100   63.1280   14.8560 C.2     1  4191        0.2491
     25  O27       76.9390   61.9450   14.9680 O.2     1  4191       -0.2726
     26  C28       75.5060   63.7150   15.7820 C.3     1  4191        0.1226
     27  C29       75.9150   63.8990   17.2840 C.ar    1  4191       -0.0097
     28  C30       75.0350   64.6350   18.1000 C.ar    1  4191       -0.0035
     29  C31       75.3260   64.8380   19.4430 C.ar    1  4191       -0.0003
     30  C32       76.4880   64.3140   19.9970 C.ar    1  4191       -0.0000
     31  C33       77.3640   63.5830   19.2120 C.ar    1  4191       -0.0003
     32  C34       77.0880   63.3710   17.8640 C.ar    1  4191       -0.0035
     33  C35       74.2470   62.8270   15.5600 C.ar    1  4191       -0.0097
     34  C36       73.8840   61.7930   16.4490 C.ar    1  4191       -0.0035
     35  C37       72.7470   61.0220   16.2070 C.ar    1  4191       -0.0003
     36  C38       71.9680   61.2710   15.0800 C.ar    1  4191       -0.0000
     37  C39       72.3150   62.2880   14.1950 C.ar    1  4191       -0.0003
     38  C40       73.4510   63.0640   14.4280 C.ar    1  4191       -0.0035
@<TRIPOS>BOND
     1    12     9    1
     2    20    21    1
     3    20    19    1
     4    21    22    1
     5    17    18    1
     6    17    15    1
     7    10     9    1
     8    18    19    1
     9     9     8    1
    10     9    11    1
    11    19    16    1
    12    15    16    1
    13    15    13   am
    14     8    13    1
    15     8     7    1
    16    22    16    1
    17    22    23    1
    18     1     2    2
    19    13    14    2
    20    23    24   am
    21     5     4    1
    22     2     7   am
    23     2     3    1
    24    37    38   ar
    25    37    36   ar
    26    38    33   ar
    27    24    25    2
    28    24    26    1
    29     4     3    1
    30    36    35   ar
    31     3     6    1
    32    33    26    1
    33    33    34   ar
    34    26    27    1
    35    35    34   ar
    36    27    32   ar
    37    27    28   ar
    38    32    31   ar
    39    28    29   ar
    40    31    30   ar
    41    29    30   ar
