@<TRIPOS>MOLECULE
3f7i_G13_A_1.pdb
 35 38 0 0 0
SMALL
GASTEIGER

@<TRIPOS>ATOM
      1  O25       75.6050   61.0330   15.5380 O.2     1  G131       -0.2684
      2  C24       75.8890   62.0910   16.0720 C.2     1  G131        0.2648
      3  C26       75.4480   62.3850   17.4890 C.ar    1  G131        0.0550
      4  C27       76.4370   62.7600   18.3930 C.ar    1  G131        0.0046
      5  C28       76.1240   63.0660   19.7170 C.ar    1  G131        0.0001
      6  C29       74.8000   62.9990   20.1410 C.ar    1  G131        0.0000
      7  C30       73.8030   62.6310   19.2380 C.ar    1  G131        0.0001
      8  C32       72.4830   62.5710   19.6830 C.ar    1  G131        0.0000
      9  C31       74.1160   62.3260   17.9120 C.ar    1  G131        0.0044
     10  C35       73.0820   61.9610   17.0380 C.ar    1  G131        0.0001
     11  C34       71.7640   61.9030   17.4860 C.ar    1  G131        0.0000
     12  C33       71.4620   62.2070   18.8100 C.ar    1  G131        0.0000
     13  N23       76.5930   63.0400   15.4490 N.am    1  G131       -0.2017
     14  C20       77.3110   62.8560   14.2020 C.3     1  G131        0.1137
     15  C16       78.5740   63.7180   14.2000 C.3     1  G131        0.0953
     16  C17       78.3230   64.9030   13.2880 C.3     1  G131        0.0217
     17  C22       77.0360   64.6260   12.5160 C.3     1  G131        0.0036
     18  C21       76.4460   63.3210   13.0430 C.3     1  G131        0.0234
     19  C18       79.5300   65.0110   12.3800 C.3     1  G131        0.0232
     20  C19       80.1300   63.6170   12.3500 C.3     1  G131        0.0935
     21  N15       79.7220   63.0090   13.6160 N.am    1  G131       -0.2781
     22  C13       80.2750   61.9800   14.2710 C.2     1  G131        0.2455
     23  O14       79.8970   61.6720   15.3930 O.2     1  G131       -0.2730
     24  C8        81.3950   61.1890   13.6420 C.3     1  G131        0.1711
     25  C9        80.8600   59.9620   12.8930 C.3     1  G131        0.0269
     26  C12       79.9820   60.4060   11.7290 C.3     1  G131        0.0022
     27  C11       80.0280   59.0690   13.8070 C.3     1  G131        0.0022
     28  C10       82.0090   59.1490   12.3040 C.3     1  G131        0.0022
     29  N7        82.3420   60.7950   14.6760 N.am    1  G131       -0.1967
     30  C5        83.6660   60.8280   14.5370 C.2     1  G131        0.2576
     31  O6        84.2240   61.2350   13.5300 O.2     1  G131       -0.2718
     32  C3        84.4640   60.2990   15.6980 C.3     1  G131        0.1505
     33  C4        84.5920   61.3500   16.7970 C.3     1  G131        0.0287
     34  N2        85.7750   59.8490   15.2740 N.3     1  G131       -0.2087
     35  C1        85.8940   58.6740   14.4260 C.3     1  G131        0.1080
@<TRIPOS>BOND
     1    26    25    1
     2    28    25    1
     3    20    19    1
     4    20    21    1
     5    19    16    1
     6    17    18    1
     7    17    16    1
     8    25    24    1
     9    25    27    1
    10    18    14    1
    11    16    15    1
    12    31    30    2
    13    21    15    1
    14    21    22   am
    15    24    22    1
    16    24    29    1
    17    15    14    1
    18    14    13    1
    19    22    23    2
    20    35    34    1
    21    30    29   am
    22    30    32    1
    23    34    32    1
    24    13     2   am
    25     1     2    2
    26    32    33    1
    27     2     3    1
    28    10    11   ar
    29    10     9   ar
    30    11    12   ar
    31     3     9   ar
    32     3     4   ar
    33     9     7   ar
    34     4     5   ar
    35    12     8   ar
    36     7     8   ar
    37     7     6   ar
    38     5     6   ar
