@<TRIPOS>MOLECULE
3f7o_III_X_1.pdb
 25 25 0 0 0
SMALL
GASTEIGER

@<TRIPOS>ATOM
      1  N         35.6860  -17.6800   -5.6030 N.3     2  ALA2       -0.1231
      2  CA        35.2950  -17.4270   -4.2410 C.3     2  ALA2        0.1694
      3  C         34.8550  -18.7930   -3.7740 C.2     2  ALA2        0.2592
      4  O         34.7030  -19.7240   -4.5720 O.2     2  ALA2       -0.2718
      5  CB        34.1430  -16.4220   -4.1870 C.3     2  ALA2        0.0304
      6  N         34.6770  -18.9290   -2.4810 N.am    3  ALA3       -0.1966
      7  CA        34.2180  -20.1820   -1.9560 C.3     3  ALA3        0.1713
      8  C         33.2870  -19.7520   -0.8580 C.2     3  ALA3        0.2458
      9  O         33.3400  -18.6050   -0.4110 O.2     3  ALA3       -0.2730
     10  CB        35.3750  -20.9820   -1.3950 C.3     3  ALA3        0.0333
     11  N         32.3700  -20.6370   -0.4650 N.am    4  PRO4       -0.2716
     12  CA        31.4430  -20.2860    0.6110 C.3     4  PRO4        0.1536
     13  C         32.2410  -20.3560    1.9200 C.2     4  PRO4        0.2599
     14  O         33.1730  -21.1430    2.0190 O.2     4  PRO4       -0.2715
     15  CB        30.3600  -21.3590    0.4870 C.3     4  PRO4        0.0310
     16  CG        31.1120  -22.5420   -0.1300 C.3     4  PRO4        0.0237
     17  CD        31.9260  -21.8450   -1.1790 C.3     4  PRO4        0.0939
     18  N         31.8900  -19.5370    2.9120 N.am    5  VAL5       -0.1942
     19  CA        32.6330  -19.5360    4.1790 C.3     5  VAL5        0.1977
     20  C         31.8870  -20.0550    5.4180 C.2     5  VAL5        0.3842
     21  O         32.2130  -19.6090    6.5330 O.co2   5  VAL5       -0.2437
     22  CB        33.1730  -18.1270    4.5080 C.3     5  VAL5        0.0311
     23  CG1       34.4140  -17.8440    3.6990 C.3     5  VAL5        0.0023
     24  CG2       32.0960  -17.0640    4.2010 C.3     5  VAL5        0.0023
     25  OXT       30.9650  -20.8940    5.2800 O.co2   5  VAL5       -0.2437
@<TRIPOS>BOND
     1     1     2    1
     2     4     3    2
     3     2     5    1
     4     2     3    1
     5     3     6   am
     6     6     7    1
     7     7    10    1
     8     7     8    1
     9    17    11    1
    10    17    16    1
    11     8    11   am
    12     8     9    2
    13    11    12    1
    14    16    15    1
    15    15    12    1
    16    12    13    1
    17    13    14    2
    18    13    18   am
    19    18    19    1
    20    23    22    1
    21    19    22    1
    22    19    20    1
    23    24    22    1
    24    25    20   ar
    25    20    21   ar
