@<TRIPOS>MOLECULE
3f7u_AG4_A_1.pdb
 25 26 0 0 0
SMALL
GASTEIGER

@<TRIPOS>ATOM
      1  O14       36.4570   39.7950   94.6250 O.2   265  AG4265     -0.2683
      2  C1        37.0260   40.5750   93.8710 C.2   265  AG4265      0.2668
      3  N15       38.3150   40.4370   93.5540 N.am  265  AG4265     -0.2015
      4  C16       38.8790   39.1270   93.8380 C.3   265  AG4265      0.1181
      5  C17       39.4370   38.9980   95.2290 C.3   265  AG4265      0.0555
      6  C19       39.9760   40.3220   95.7360 C.3   265  AG4265      0.1441
      7  O18       39.3510   40.5500   96.9960 O.3   265  AG4265     -0.3510
      8  C20       39.5150   41.9440   97.2670 C.3   265  AG4265      0.1741
      9  C6        36.2020   41.7340   93.4360 C.ar  265  AG4265      0.0802
     10  C7        36.6610   42.9980   93.7360 C.ar  265  AG4265      0.0282
     11  C5        35.0020   41.4590   92.7720 C.ar  265  AG4265      0.1152
     12  N4        34.2550   42.5210   92.4480 N.ar  265  AG4265     -0.2358
     13  C3        34.6520   43.7910   92.7470 C.ar  265  AG4265      0.1194
     14  C2        35.8390   44.0670   93.3960 C.ar  265  AG4265      0.1443
     15  S8        36.2230   45.6180   93.7180 S.O2  265  AG4265      0.0950
     16  O12       35.0320   46.2110   94.4520 O.2   265  AG4265     -0.1502
     17  O11       36.4730   46.3380   92.3680 O.2   265  AG4265     -0.1502
     18  N9        37.6400   45.6710   94.4910 N.3   265  AG4265      0.0393
     19  S10       34.5360   39.8230   92.3990 S.3   265  AG4265     -0.0679
     20  C13       33.0230   39.9510   91.6460 C.ar  265  AG4265      0.0309
     21  C21       32.9270   40.4600   90.3450 C.ar  265  AG4265      0.0065
     22  C22       31.6640   40.5360   89.7370 C.ar  265  AG4265      0.0005
     23  C23       30.5280   40.1100   90.4250 C.ar  265  AG4265      0.0000
     24  C24       30.6130   39.5820   91.7260 C.ar  265  AG4265      0.0005
     25  C25       31.8680   39.5090   92.3320 C.ar  265  AG4265      0.0065
@<TRIPOS>BOND
     1    22    21   ar
     2    22    23   ar
     3    21    20   ar
     4    23    24   ar
     5    20    25   ar
     6    20    19    1
     7    24    25   ar
     8    17    15    2
     9    19    11    1
    10    12    13   ar
    11    12    11   ar
    12    13    14   ar
    13    11     9   ar
    14    14    15    1
    15    14    10   ar
    16     9    10   ar
    17     9     2    1
    18     3     4    1
    19     3     2   am
    20    15    16    2
    21    15    18    1
    22     4     5    1
    23     2     1    2
    24     5     6    1
    25     6     7    1
    26     7     8    1
