@<TRIPOS>MOLECULE
3f7z_34O_A_1.pdb
 25 28 0 0 0
SMALL
GASTEIGER

@<TRIPOS>ATOM
      1  C8         0.8710   14.1970   13.5740 C.3   3000  34O3000     0.4294
      2  C10        1.2530   11.8460   19.0440 C.ar  3000  34O3000     0.2505
      3  C6         2.0890   12.9410   15.0170 C.ar  3000  34O3000     0.1764
      4  C5         0.8570   13.3610   15.6750 C.ar  3000  34O3000     0.1766
      5  C4         0.5900   13.0130   16.9870 C.ar  3000  34O3000     0.0449
      6  C1         3.0240   12.1650   15.6740 C.ar  3000  34O3000     0.0403
      7  C2         2.7310   11.8250   16.9970 C.ar  3000  34O3000     0.0080
      8  C3         1.5560   12.2390   17.6350 C.ar  3000  34O3000     0.0584
      9  F25       -3.0120   15.5030   18.2270 F     3000  34O3000    -0.2010
     10  C19       -3.0230   14.1680   18.4390 C.ar  3000  34O3000     0.1735
     11  C20       -3.2570   13.1820   17.3250 C.ar  3000  34O3000     0.1659
     12  O23       -3.4750   13.5640   16.0130 O.3   3000  34O3000    -0.4692
     13  C24       -2.7210   14.5880   15.3600 C.3   3000  34O3000     0.2526
     14  C21       -3.2670   11.8190   17.6350 C.ar  3000  34O3000     0.0389
     15  C22       -3.0540   11.3970   18.9450 C.ar  3000  34O3000    -0.0001
     16  C18       -2.8210   13.6820   19.7330 C.ar  3000  34O3000     0.0294
     17  C17       -2.8260   12.3060   19.9890 C.ar  3000  34O3000    -0.0084
     18  C16       -2.5990   11.7760   21.4060 C.3   3000  34O3000     0.0930
     19  S15       -0.9650   11.9620   22.0990 S.3   3000  34O3000    -0.0505
     20  C12        0.1820   11.7070   20.9450 C.ar  3000  34O3000     0.2785
     21  N13        1.2140   10.9730   21.0430 N.ar  3000  34O3000    -0.1006
     22  N14        1.9000   11.0580   19.8050 N.ar  3000  34O3000    -0.1065
     23  O11        0.0690   12.3660   19.6720 O.2   3000  34O3000    -0.4110
     24  O7         2.0780   13.4290   13.7540 O.3   3000  34O3000    -0.4346
     25  O9         0.1290   14.0990   14.8040 O.3   3000  34O3000    -0.4346
@<TRIPOS>BOND
     1     1    24    1
     2     1    25    1
     3    24     3    1
     4    25     4    1
     5     3     6   ar
     6     3     4   ar
     7    13    12    1
     8     6     7   ar
     9     4     5   ar
    10    12    11    1
    11     5     8   ar
    12     7     8   ar
    13    11    14   ar
    14    11    10   ar
    15     8     2    1
    16    14    15   ar
    17     9    10    1
    18    10    16   ar
    19    15    17   ar
    20     2    23   ar
    21     2    22   ar
    22    23    20   ar
    23    16    17   ar
    24    22    21   ar
    25    17    18    1
    26    20    21   ar
    27    20    19    1
    28    18    19    1
