@<TRIPOS>MOLECULE
3f80_6HN_A_1.pdb
 12 11 0 0 0
SMALL
GASTEIGER

@<TRIPOS>ATOM
      1  N1        26.1020  -12.9610    6.5950 N.pl3 551  6HN551      0.0345
      2  N         21.7280  -17.3940    5.5470 N.3   551  6HN551     -0.1208
      3  CA        21.6480  -17.0990    7.0030 C.3   551  6HN551      0.1943
      4  C         20.5210  -16.0830    7.2700 C.2   551  6HN551      0.3819
      5  OXT       19.8270  -15.6440    6.3050 O.co2 551  6HN551     -0.2441
      6  O         20.2880  -15.6890    8.4520 O.co2 551  6HN551     -0.2441
      7  CB        23.0210  -16.5850    7.4930 C.3   551  6HN551      0.0307
      8  CG        23.2810  -15.1350    7.0830 C.3   551  6HN551      0.0043
      9  CD        24.6350  -14.6870    7.5960 C.3   551  6HN551      0.0318
     10  CE        24.8150  -13.2340    7.1880 C.3   551  6HN551      0.1934
     11  O2        26.6880  -11.8060    6.8480 O.2   551  6HN551     -0.1310
     12  O1        26.6750  -13.8180    5.7770 O.2   551  6HN551     -0.1310
@<TRIPOS>BOND
     1     2     3    1
     2    12     1    2
     3     5     4   ar
     4     1    11    2
     5     1    10    1
     6     3     4    1
     7     3     7    1
     8     8     7    1
     9     8     9    1
    10    10     9    1
    11     4     6   ar
