@<TRIPOS>MOLECULE
3f81_STT_A_1.pdb
 14 14 0 0 0
SMALL
GASTEIGER

@<TRIPOS>ATOM
      1  OAD        1.7190   -0.9980   -4.6530 O.3     1  STT1       -0.3074
      2  SBN        0.5690   -0.6100   -3.9420 S.3     1  STT1       -0.1943
      3  OAB       -0.1220   -1.6290   -3.1760 O.3     1  STT1       -0.3074
      4  OAC        0.4250    0.7820   -3.5620 O.3     1  STT1       -0.3074
      5  CAX       -0.5950   -0.6020   -5.3270 C.3     1  STT1        0.1271
      6  CAV       -0.2550    0.4600   -6.3670 C.3     1  STT1        0.1206
      7  NBM       -1.2260    0.4550   -7.4800 N.am    1  STT1       -0.2459
      8  CBI       -1.8920   -0.6470   -7.9760 C.2     1  STT1        0.2401
      9  OAA       -1.8140   -1.8250   -7.5730 O.2     1  STT1       -0.2736
     10  CBJ       -1.4980    1.6110   -8.1160 C.2     1  STT1        0.1172
     11  SAE       -0.8670    3.1870   -7.7610 S.2     1  STT1       -0.0275
     12  SBA       -2.6010    1.3240   -9.3340 S.3     1  STT1       -0.0835
     13  CBK       -2.7410   -0.3450   -9.0500 C.3     1  STT1        0.1302
     14  CAG       -3.5350   -1.2680   -9.7500 C.3     1  STT1        0.0218
@<TRIPOS>BOND
     1    14    13    1
     2    12    13    1
     3    12    10    1
     4    13     8    1
     5    10    11    2
     6    10     7    1
     7     8     9    2
     8     8     7   am
     9     7     6    1
    10     6     5    1
    11     5     2    1
    12     1     2    1
    13     2     4    1
    14     2     3    1
