@<TRIPOS>MOLECULE
3f82_353_A_1.pdb
 36 39 0 0 0
SMALL
GASTEIGER

@<TRIPOS>ATOM
      1  C1         0.9630    0.3810   55.7010 C.ar  2001  3532001     0.0199
      2  C2        -1.0700    1.5630   56.3390 C.ar  2001  3532001     0.0199
      3  C3         1.6820    7.6980   57.4590 C.ar  2001  3532001     0.0199
      4  C4         1.8430    8.8920   58.1500 C.ar  2001  3532001     0.0412
      5  C5         0.7250   -0.5460   56.7070 C.ar  2001  3532001     0.0311
      6  C6        -1.3010    0.6360   57.3420 C.ar  2001  3532001     0.0311
      7  C7        -0.5190   11.2300   58.6730 C.ar  2001  3532001     0.0591
      8  C8         1.2630    8.9120   55.4060 C.ar  2001  3532001     0.0494
      9  C9        -1.5180   11.7120   59.5010 C.ar  2001  3532001     0.1036
     10  C10        0.0590    1.4340   55.5160 C.ar  2001  3532001     0.0670
     11  C11        1.3910    7.7030   56.0860 C.ar  2001  3532001     0.0761
     12  C12        1.7140   10.0950   57.4660 C.ar  2001  3532001     0.1726
     13  C13        0.7780   11.6870   58.8890 C.ar  2001  3532001     0.1602
     14  C14       -0.4030   -0.4060   57.5130 C.ar  2001  3532001     0.1402
     15  C15        1.4220   10.1030   56.1030 C.ar  2001  3532001     0.1757
     16  C16        1.0130   12.5990   59.9220 C.ar  2001  3532001     0.1268
     17  C17       -0.0540   13.0370   60.7140 C.ar  2001  3532001     0.1833
     18  C18        0.4350    2.9520   52.2100 C.ar  2001  3532001     0.0563
     19  C19        0.2210    2.0480   53.1670 C.ar  2001  3532001     0.0861
     20  C20        0.8070    4.7300   53.8410 C.ar  2001  3532001     0.1455
     21  C21        0.7330    4.3200   52.5600 C.ar  2001  3532001     0.1491
     22  C22        0.5680    3.7000   54.9220 C.ar  2001  3532001     0.2721
     23  C23        1.1230    6.1820   54.1300 C.2   2001  3532001     0.2766
     24  C24        1.2330    5.5230   49.1740 C.3   2001  3532001     0.0512
     25  C25        1.0480    4.4660   50.2410 C.3   2001  3532001     0.2055
     26  N26       -1.3170   12.5960   60.5050 N.ar  2001  3532001    -0.2250
     27  N27        0.2830    2.3940   54.4990 N.ar  2001  3532001    -0.2728
     28  N28        0.1730   13.9550   61.7530 N.pl3 2001  3532001    -0.1062
     29  N29        1.2450    6.4480   55.4780 N.am  2001  3532001    -0.1752
     30  O30        0.6240    4.0170   56.1060 O.2   2001  3532001    -0.2664
     31  O31        1.2500    7.0050   53.2320 O.2   2001  3532001    -0.2677
     32  O32        1.8640   11.2810   58.1330 O.3   2001  3532001    -0.4502
     33  O33        0.9290    5.1590   51.4870 O.3   2001  3532001    -0.4751
     34  F34       -0.6300   -1.2990   58.4810 F     2001  3532001    -0.2042
     35  F35        1.2960   11.2590   55.4380 F     2001  3532001    -0.2009
     36 CL36        2.6150   13.1760   60.2110 Cl    2001  3532001    -0.0760
@<TRIPOS>BOND
     1    24    25    1
     2    25    33    1
     3    33    21    1
     4    18    21   ar
     5    18    19   ar
     6    21    20   ar
     7    19    27   ar
     8    31    23    2
     9    20    23    1
    10    20    22   ar
    11    23    29   am
    12    27    22   ar
    13    27    10    1
    14    22    30    2
    15     8    11   ar
    16     8    15   ar
    17    35    15    1
    18    29    11    1
    19    10     1   ar
    20    10     2   ar
    21     1     5   ar
    22    11     3   ar
    23    15    12   ar
    24     2     6   ar
    25     5    14   ar
    26     6    14   ar
    27     3     4   ar
    28    12    32    1
    29    12     4   ar
    30    14    34    1
    31    32    13    1
    32     7    13   ar
    33     7     9   ar
    34    13    16   ar
    35     9    26   ar
    36    16    36    1
    37    16    17   ar
    38    26    17   ar
    39    17    28    1
