@<TRIPOS>MOLECULE
3f88_3HT_A_1.pdb
 23 26 0 0 0
SMALL
GASTEIGER

@<TRIPOS>ATOM
      1  C4         4.1670  -14.3600   32.5100 C.ar  999  3HT999      0.0382
      2  C5         4.1380  -13.9590   33.8450 C.ar  999  3HT999      0.0180
      3  C6         5.0490  -14.3420   34.8370 C.ar  999  3HT999      0.0533
      4  C7         6.0660  -15.1780   34.3760 C.ar  999  3HT999      0.0180
      5  C8         6.1360  -15.6100   33.0360 C.ar  999  3HT999      0.0382
      6  C10        3.6740  -14.0180   36.6710 C.3   999  3HT999      0.2236
      7  C13        5.5120  -12.0330   38.9920 C.3   999  3HT999      0.0728
      8  C15        7.5190  -11.8660   37.6910 C.2   999  3HT999      0.0533
      9  C17        5.6800  -13.0980   36.8050 C.2   999  3HT999      0.0668
     10  C21       10.9250  -11.2970   36.9610 C.1   999  3HT999      0.1648
     11  S22       12.4110  -11.7090   36.1890 S.2   999  3HT999      0.0515
     12  N20       10.7810  -10.2230   37.7490 N.2   999  3HT999     -0.0669
     13  N19        9.4310  -10.2900   38.1300 N.2   999  3HT999     -0.0985
     14  O32        9.8300  -12.0640   36.8050 O.3   999  3HT999     -0.3772
     15  C18        8.8940  -11.3910   37.5420 C.2   999  3HT999      0.2601
     16  C14        6.8120  -11.5690   38.8550 C.2   999  3HT999     -0.0150
     17  C16        6.9810  -12.6260   36.6690 C.2   999  3HT999      0.0205
     18  C12        4.9520  -12.8070   37.9670 C.2   999  3HT999      0.0736
     19  N11        3.7340  -13.3880   37.8590 N.2   999  3HT999     -0.2505
     20  N9         4.8580  -13.8620   36.0830 N.pl3 999  3HT999     -0.2648
     21  C3         5.1840  -15.2040   32.0890 C.ar  999  3HT999      0.1388
     22  O2         5.2100  -15.5810   30.7640 O.3   999  3HT999     -0.4714
     23  C1         5.9440  -16.7150   30.2970 C.3   999  3HT999      0.2525
@<TRIPOS>BOND
     1    23    22    1
     2    22    21    1
     3    21     1   ar
     4    21     5   ar
     5     1     2   ar
     6     5     4   ar
     7     2     3   ar
     8     4     3   ar
     9     3    20    1
    10    20     6    1
    11    20     9    1
    12    11    10    2
    13    17     9    2
    14    17     8    1
    15     6    19    1
    16     9    18    1
    17    14    10    1
    18    14    15    1
    19    10    12    2
    20    15     8    1
    21    15    13    2
    22     8    16    2
    23    12    13    1
    24    19    18    2
    25    18     7    1
    26    16     7    1
