@<TRIPOS>MOLECULE
3f8a_LSR_A_1.pdb
 15 15 0 0 0
SMALL
GASTEIGER

@<TRIPOS>ATOM
      1  CAF      -23.2730   17.9810   11.7810 C.2   139  LSR139     -0.0003
      2  CAE      -22.0720   18.1660   11.2450 C.2   139  LSR139     -0.0046
      3  CAD      -21.2210   19.0900   11.7110 C.2   139  LSR139     -0.0258
      4  CAA      -21.6120   19.9440   12.8730 C.3   139  LSR139      0.0307
      5  CAC      -20.0110   19.2500   11.1580 C.2   139  LSR139     -0.0260
      6  CAB      -19.1510   20.1370   11.6580 C.3   139  LSR139      0.0470
      7  CAK      -17.9200   20.3320   11.1510 C.2   139  LSR139     -0.0483
      8  CAJ      -17.7540   20.3360    9.8310 C.2   139  LSR139     -0.0515
      9  CAI      -18.9400   20.1260    8.9440 C.3   139  LSR139      0.0257
     10  CAN      -16.4150   20.5500    9.1760 C.3   139  LSR139      0.0214
     11  CAO      -15.3050   20.1690   10.1310 C.3   139  LSR139      0.0046
     12  CAP      -15.4880   20.9470   11.4140 C.3   139  LSR139      0.0041
     13  CAL      -16.7750   20.5500   12.1100 C.3   139  LSR139      0.0149
     14  CAH      -17.1560   21.6750   13.0520 C.3   139  LSR139      0.0040
     15  CAM      -16.5490   19.2640   12.8820 C.3   139  LSR139      0.0040
@<TRIPOS>BOND
     1     9     8    1
     2    10     8    1
     3    10    11    1
     4     8     7    2
     5    11    12    1
     6     7     6    1
     7     7    13    1
     8     5     6    1
     9     5     3    2
    10     2     3    1
    11     2     1    2
    12    12    13    1
    13     3     4    1
    14    13    15    1
    15    13    14    1
