@<TRIPOS>MOLECULE
3f8c_HT1_A_1.pdb
 34 39 0 0 0
SMALL
GASTEIGER

@<TRIPOS>ATOM
      1  C1         0.4840   -5.5480    6.5570 C.ar  127  HT1127      0.1386
      2  O1         0.7220   -6.3420    7.6430 O.3   127  HT1127     -0.4755
      3  C2        -0.4650   -5.9340    5.6170 C.ar  127  HT1127      0.0376
      4  C3        -0.7220   -5.1370    4.5030 C.ar  127  HT1127      0.0151
      5  C4        -0.0260   -3.9470    4.3270 C.ar  127  HT1127      0.0858
      6  C5         0.9300   -3.5470    5.2760 C.ar  127  HT1127      0.0151
      7  C6         1.1830   -4.3500    6.3930 C.ar  127  HT1127      0.0376
      8  C7        -0.3020   -3.1560    3.2080 C.1   127  HT1127      0.1379
      9  N1        -1.2750   -3.3980    2.3060 N.2   127  HT1127     -0.3372
     10  C8        -1.2430   -2.4460    1.3790 C.ar  127  HT1127      0.1748
     11  C9        -0.2010   -1.5710    1.7390 C.ar  127  HT1127      0.1741
     12  N2         0.3470   -2.0340    2.8620 N.2   127  HT1127     -0.3372
     13  C10        0.0830   -0.4560    0.9600 C.ar  127  HT1127      0.0364
     14  C11       -0.6730   -0.2160   -0.1790 C.ar  127  HT1127      0.0149
     15  C12       -1.7200   -1.0750   -0.5440 C.ar  127  HT1127      0.0883
     16  C13       -2.0160   -2.2180    0.2240 C.ar  127  HT1127      0.0477
     17  C14       -2.4340   -0.7910   -1.7120 C.1   127  HT1127      0.1374
     18  N3        -3.3220   -1.5990   -2.3110 N.2   127  HT1127     -0.3416
     19  C15       -3.7740   -0.9840   -3.4100 C.2   127  HT1127      0.1534
     20  C16       -3.1170    0.2450   -3.4950 C.2   127  HT1127      0.1522
     21  N4        -2.3010    0.3310   -2.4470 N.2   127  HT1127     -0.3416
     22  C17       -3.3780    1.1110   -4.5570 C.3   127  HT1127      0.0892
     23  C18       -4.3080    0.7500   -5.5410 C.2   127  HT1127     -0.0080
     24  C19       -4.9830   -0.4710   -5.4610 C.2   127  HT1127      0.0283
     25  C20       -4.7050   -1.3500   -4.3940 C.3   127  HT1127      0.1029
     26  N5        -5.8540   -0.8280   -6.4380 N.pl3 127  HT1127     -0.3078
     27  C21       -6.9910    0.0960   -6.6140 C.3   127  HT1127      0.1079
     28  C22       -7.8240   -0.3520   -7.8430 C.3   127  HT1127      0.0938
     29  N6        -8.2720   -1.7610   -7.6920 N.3   127  HT1127     -0.2686
     30  C23       -7.1160   -2.6500   -7.4690 C.3   127  HT1127      0.0938
     31  C24       -6.3590   -2.1870   -6.2140 C.3   127  HT1127      0.1079
     32  C25       -8.9830   -2.2170   -8.8960 C.3   127  HT1127      0.0897
     33  C26        0.0120   -7.5840    7.5280 C.3   127  HT1127      0.2055
     34  C27       -0.1730   -8.1910    8.9250 C.3   127  HT1127      0.0512
@<TRIPOS>BOND
     1    32    29    1
     2    28    29    1
     3    28    27    1
     4    29    30    1
     5    30    31    1
     6    27    26    1
     7    26    31    1
     8    26    24    1
     9    23    24    2
    10    23    22    1
    11    24    25    1
    12    22    20    1
    13    25    19    1
    14    20    19    1
    15    20    21    2
    16    19    18    2
    17    21    17    2
    18    18    17    2
    19    17    15    1
    20    15    14   ar
    21    15    16   ar
    22    14    13   ar
    23    16    10   ar
    24    13    11   ar
    25    10    11   ar
    26    10     9    2
    27    11    12    2
    28     9     8    2
    29    12     8    2
    30     8     5    1
    31     5     4   ar
    32     5     6   ar
    33     4     3   ar
    34     6     7   ar
    35     3     1   ar
    36     7     1   ar
    37     1     2    1
    38    33     2    1
    39    33    34    1
