@<TRIPOS>MOLECULE
3f8e_TE1_A_1.pdb
 20 20 0 0 0
SMALL
GASTEIGER

@<TRIPOS>ATOM
      1  CAA       -2.6550    3.5030   10.9140 C.3   300  TE1300      0.0001
      2  OAB       -5.9780    5.2100    9.0840 O.3   300  TE1300     -0.2182
      3  OAC       -6.8020    6.8200   12.8680 O.3   300  TE1300     -0.4716
      4  CAD       -7.5360    7.3980   13.8050 C.3   300  TE1300      0.2525
      5  CAE       -4.6420    2.0210   10.4280 C.3   300  TE1300      0.0001
      6  CAF       -4.1430    3.4800   10.3940 C.3   300  TE1300      0.0029
      7  CAG       -5.0700    4.4540   11.1960 C.3   300  TE1300      0.0376
      8  CAH       -6.2140    5.2550   10.3980 C.3   300  TE1300      0.1771
      9  CAI       -6.3380    6.7720   10.5380 C.ar  300  TE1300      0.0416
     10  CAJ       -6.6340    7.4680   11.7070 C.ar  300  TE1300      0.1402
     11  CAK       -6.7060    8.8200   11.6420 C.ar  300  TE1300      0.0783
     12  OAL       -5.1410    6.8110    6.7520 O.co2 300  TE1300     -0.2456
     13  OAM       -4.9770    7.9510    5.0480 O.co2 300  TE1300     -0.2456
     14  CAN       -5.2610    7.9100    6.2090 C.2   300  TE1300      0.3652
     15  CAO       -6.1350    7.4850    9.3790 C.ar  300  TE1300      0.0001
     16  CAP       -6.1860    8.8520    9.3200 C.ar  300  TE1300      0.0173
     17  CAQ       -6.4820    9.4830   10.4670 C.ar  300  TE1300      0.1947
     18  OAR       -6.5190   10.8060   10.4090 O.3   300  TE1300     -0.2868
     19  CAS       -5.5020    9.1520    6.8550 C.3   300  TE1300      0.1188
     20  CAT       -6.0060    9.5860    8.1240 C.3   300  TE1300      0.0414
@<TRIPOS>BOND
     1    13    14   ar
     2    14    12   ar
     3    14    19    1
     4    19    20    1
     5    20    16    1
     6     2     8    1
     7    16    15   ar
     8    16    17   ar
     9    15     9   ar
    10     6     5    1
    11     6     1    1
    12     6     7    1
    13     8     9    1
    14     8     7    1
    15    18    17    1
    16    17    11   ar
    17     9    10   ar
    18    11    10   ar
    19    10     3    1
    20     3     4    1
