@<TRIPOS>MOLECULE
3f8f_DM1_A_1.pdb
 38 42 0 0 0
SMALL
GASTEIGER

@<TRIPOS>ATOM
      1  C1        25.4770   39.1680   47.9470 C.ar  127  DM1127      0.0035
      2  C2        26.1120   38.7900   46.7730 C.ar  127  DM1127      0.0032
      3  C3        25.4470   38.0300   45.8250 C.ar  127  DM1127      0.0370
      4  C4        24.1290   37.6360   46.0420 C.ar  127  DM1127      0.1418
      5  O4        23.5400   36.9540   45.1860 O.3   127  DM1127     -0.4713
      6  C5        23.4770   38.0190   47.2350 C.ar  127  DM1127      0.0760
      7  C6        22.1560   37.6380   47.4750 C.2   127  DM1127      0.2019
      8  O6        21.5540   36.9620   46.6390 O.2   127  DM1127     -0.2864
      9  C7        21.5130   38.0210   48.6640 C.ar  127  DM1127      0.0838
     10  C8        20.1910   37.6300   48.8850 C.ar  127  DM1127      0.1970
     11  O8        19.5390   36.8810   47.9490 O.3   127  DM1127     -0.2867
     12  C9        19.4830   38.0260   50.1450 C.ar  127  DM1127      0.0429
     13  C10       18.0680   37.6120   50.3980 C.3   127  DM1127      0.1454
     14  O10       17.7380   36.5390   49.5330 O.3   127  DM1127     -0.3283
     15  C11       17.9740   37.1060   51.8350 C.3   127  DM1127      0.0676
     16  C12       18.5200   38.0780   52.9000 C.3   127  DM1127      0.1612
     17  O12       19.2800   37.2990   53.8510 O.3   127  DM1127     -0.2226
     18  C13       17.3300   38.7210   53.6290 C.3   127  DM1127      0.1801
     19  O13       16.1230   38.6310   53.1080 O.3   127  DM1127     -0.2205
     20  C14       17.5730   39.4410   54.9310 C.3   127  DM1127      0.0382
     21  C15       19.4400   39.1860   52.3570 C.3   127  DM1127      0.0625
     22  C16       20.1450   38.7760   51.0830 C.ar  127  DM1127      0.0208
     23  C17       21.5670   39.1860   50.8200 C.ar  127  DM1127      0.1949
     24  O17       22.2510   39.9430   51.7480 O.3   127  DM1127     -0.2868
     25  C18       22.2000   38.7950   49.6220 C.ar  127  DM1127      0.0837
     26  C19       23.5260   39.1780   49.3800 C.2   127  DM1127      0.1990
     27  O19       24.1390   39.8610   50.2220 O.2   127  DM1127     -0.2865
     28  C20       24.1620   38.7880   48.1850 C.ar  127  DM1127      0.0451
     29  C21       24.2720   36.1560   44.2800 C.3   127  DM1127      0.2525
     30  C1'       16.3440   36.4240   49.2970 C.3   127  DM1127      0.2369
     31  C2'       16.1040   35.8900   47.8760 C.3   127  DM1127      0.0830
     32  C3'       16.5810   34.4360   47.7260 C.3   127  DM1127      0.1295
     33  N3'       16.1080   33.8940   46.4610 N.3   127  DM1127     -0.1300
     34  C4'       16.1030   33.5480   48.8940 C.3   127  DM1127      0.1965
     35  O4'       14.7320   33.2130   48.7300 O.3   127  DM1127     -0.2190
     36  C5'       16.3290   34.2400   50.2550 C.3   127  DM1127      0.1495
     37  O5'       15.7460   35.5440   50.2530 O.3   127  DM1127     -0.3303
     38  C6'       15.7570   33.4210   51.4110 C.3   127  DM1127      0.0349
@<TRIPOS>BOND
     1    29     5    1
     2     5     4    1
     3     3     4   ar
     4     3     2   ar
     5     4     6   ar
     6    33    32    1
     7     8     7    2
     8     2     1   ar
     9     6     7    1
    10     6    28   ar
    11     7     9    1
    12    32    31    1
    13    32    34    1
    14    31    30    1
    15     1    28   ar
    16    11    10    1
    17    28    26    1
    18     9    10   ar
    19     9    25   ar
    20    35    34    1
    21    10    12   ar
    22    34    36    1
    23    30    14    1
    24    30    37    1
    25    26    25    1
    26    26    27    2
    27    14    13    1
    28    25    23   ar
    29    12    13    1
    30    12    22   ar
    31    37    36    1
    32    36    38    1
    33    13    15    1
    34    23    22   ar
    35    23    24    1
    36    22    21    1
    37    15    16    1
    38    21    16    1
    39    16    18    1
    40    16    17    1
    41    19    18    1
    42    18    20    1
