@<TRIPOS>MOLECULE
3f8k_COA_A_1.pdb
 48 50 0 0 0
SMALL
GASTEIGER

@<TRIPOS>ATOM
      1  N1A       31.6530    8.8370   19.5460 N.2   301  COA301      0.0021
      2  C2A       31.8480    8.5350   18.4810 C.3   301  COA301      0.5254
      3  N3A       31.5630    8.9850   17.3940 N.2   301  COA301     -0.0055
      4  C4A       30.8280   10.1440   17.5760 C.2   301  COA301      0.3518
      5  C5A       30.4380   10.7570   18.8280 C.2   301  COA301      0.2526
      6  C6A       30.9010   10.0210   20.0790 C.2   301  COA301      0.4393
      7  N6A       30.6230   10.4530   21.2690 N.pl3 301  COA301      0.2180
      8  N7A       29.7200   11.8910   18.6370 N.2   301  COA301     -0.2095
      9  C8A       29.6360   12.0250   17.2890 C.3   301  COA301      0.3377
     10  N9A       30.2880   10.9980   16.5920 N.pl3 301  COA301     -0.1439
     11  C1B       30.3970   10.8120   15.0940 C.3   301  COA301      0.3185
     12  C2B       29.0890   10.9480   14.3510 C.3   301  COA301      0.2543
     13  O2B       28.2500    9.8620   14.7230 O.3   301  COA301     -0.2131
     14  C3B       29.5280   10.9630   12.8730 C.3   301  COA301      0.1928
     15  O3B       29.7480    9.6580   12.4150 O.3   301  COA301     -0.2673
     16  P3B       30.1710    9.5040   10.7980 P.3   301  COA301      0.5327
     17  O7A       28.8690    9.9700    9.9960 O.2   301  COA301     -0.2224
     18  O8A       30.4060    7.9670   10.4030 O.3   301  COA301     -0.1145
     19  O9A       31.4150   10.4410   10.4600 O.3   301  COA301     -0.1145
     20  C4B       30.7620   11.9160   12.9820 C.3   301  COA301      0.1795
     21  O4B       31.2350   11.8000   14.4190 O.3   301  COA301     -0.3136
     22  C5B       30.5650   13.4190   12.6680 C.3   301  COA301      0.1812
     23  O5B       29.2000   13.8040   13.0010 O.3   301  COA301     -0.3112
     24  P1A       28.5890   15.2420   12.5200 P.3   301  COA301      0.2189
     25  O1A       27.1960   15.3000   13.0430 O.3   301  COA301     -0.4371
     26  O2A       28.7000   15.4290   11.0270 O.2   301  COA301     -0.5170
     27  O3A       29.3960   16.2930   13.2290 O.3   301  COA301     -0.2703
     28  P2A       29.0340   17.2880   14.4700 P.3   301  COA301      0.2188
     29  O4A       28.6160   16.5120   15.6930 O.3   301  COA301     -0.4371
     30  O5A       27.9300   18.2670   14.1460 O.2   301  COA301     -0.5170
     31  O6A       30.4360   18.0670   14.6130 O.3   301  COA301     -0.3138
     32  CBP       32.6510   18.4550   15.6030 C.3   301  COA301      0.0645
     33  CCP       31.7060   17.4420   14.8690 C.3   301  COA301      0.1519
     34  CDP       34.0860   17.8400   15.8580 C.3   301  COA301      0.0056
     35  CEP       32.6760   19.6810   14.6430 C.3   301  COA301      0.0056
     36  CAP       31.9390   18.7180   17.0250 C.3   301  COA301      0.2312
     37  OAP       31.9680   17.5230   17.8800 O.3   301  COA301     -0.2131
     38  C9P       32.5860   19.8880   17.7770 C.2   301  COA301      0.2719
     39  O9P       32.1160   21.1340   17.5810 O.2   301  COA301     -0.2706
     40  N8P       33.6010   19.5860   18.5630 N.am  301  COA301     -0.2028
     41  C7P       34.3850   20.5640   19.3620 C.3   301  COA301      0.1249
     42  C6P       35.2470   21.4370   18.4430 C.3   301  COA301      0.1105
     43  C5P       36.2080   20.6160   17.6220 C.2   301  COA301      0.2474
     44  O5P       36.6770   19.4740   18.0060 O.2   301  COA301     -0.2729
     45  N4P       36.5190   21.1870   16.4760 N.am  301  COA301     -0.1773
     46  C3P       37.4720   20.6230   15.4240 C.2   301  COA301      0.0961
     47  C2P       38.3050   21.3270   14.6820 C.2   301  COA301      0.0600
     48  S1P       39.5470   20.5760   13.3350 S.3   301  COA301     -0.0487
@<TRIPOS>BOND
     1    17    16    2
     2    18    16    1
     3    19    16    1
     4    16    15    1
     5    26    24    2
     6    15    14    1
     7    24    23    1
     8    24    25    1
     9    24    27    1
    10    22    20    1
    11    22    23    1
    12    14    20    1
    13    14    12    1
    14    20    21    1
    15    27    28    1
    16    48    47    1
    17    30    28    2
    18    12    13    1
    19    12    11    1
    20    21    11    1
    21    28    31    1
    22    28    29    1
    23    31    33    1
    24    35    32    1
    25    47    46    2
    26    33    32    1
    27    11    10    1
    28    46    45    1
    29    32    34    1
    30    32    36    1
    31    45    43   am
    32    10     9    1
    33    10     4    1
    34    36    38    1
    35    36    37    1
    36     9     8    1
    37     3     4    2
    38     3     2    1
    39     4     5    1
    40    39    38    2
    41    43    44    2
    42    43    42    1
    43    38    40   am
    44    42    41    1
    45     2     1    1
    46    40    41    1
    47     8     5    2
    48     5     6    1
    49     1     6    2
    50     6     7    1
