@<TRIPOS>MOLECULE
3f8p_NAD_A_1.pdb
 27 29 0 0 0
SMALL
GASTEIGER

@<TRIPOS>ATOM
      1  PA        35.4840   73.8430    3.1490 P.3   4001  NAD4001     0.2231
      2  O1A       35.4910   75.3250    2.9870 O.2   4001  NAD4001    -0.5169
      3  O2A       36.2260   73.2560    4.3030 O.3   4001  NAD4001    -0.4370
      4  O5B       33.9430   73.4030    3.2270 O.3   4001  NAD4001    -0.3111
      5  C5B       33.5890   72.0370    3.3480 C.3   4001  NAD4001     0.1813
      6  C4B       32.2510   71.8780    4.0320 C.3   4001  NAD4001     0.1821
      7  O4B       31.8350   70.5490    4.1040 O.3   4001  NAD4001    -0.3135
      8  C3B       32.3540   72.3900    5.4450 C.3   4001  NAD4001     0.2184
      9  O3B       31.9790   73.7370    5.5410 O.3   4001  NAD4001    -0.2174
     10  C2B       31.5420   71.4980    6.2700 C.3   4001  NAD4001     0.2570
     11  O2B       30.5150   72.1890    6.9490 O.3   4001  NAD4001    -0.2130
     12  C1B       31.0630   70.4720    5.2840 C.3   4001  NAD4001     0.3186
     13  N9A       31.1820   69.1580    5.7970 N.pl3 4001  NAD4001    -0.1439
     14  C8A       32.3040   68.5320    6.2230 C.3   4001  NAD4001     0.3377
     15  N7A       32.1120   67.2950    6.5950 N.2   4001  NAD4001    -0.2095
     16  C5A       30.7590   67.1180    6.3750 C.2   4001  NAD4001     0.2526
     17  C6A       29.9100   65.9940    6.5300 C.2   4001  NAD4001     0.4393
     18  N6A       30.3740   64.8200    6.9700 N.pl3 4001  NAD4001     0.2180
     19  N1A       28.5960   66.1520    6.2000 N.2   4001  NAD4001     0.0021
     20  C2A       28.1470   67.3330    5.7490 C.3   4001  NAD4001     0.5254
     21  N3A       28.8690   68.4710    5.6020 N.2   4001  NAD4001    -0.0055
     22  C4A       30.1720   68.2530    5.9180 C.2   4001  NAD4001     0.3518
     23  O3        36.0940   73.1190    1.8750 O.3   4001  NAD4001    -0.2261
     24  PN        36.1360   73.5800    0.3060 P.3   4001  NAD4001     0.5373
     25  O1N       36.8950   72.5760   -0.3050 O.2   4001  NAD4001    -0.2221
     26  O2N       34.8120   73.7890   -0.2650 O.3   4001  NAD4001    -0.1143
     27  O5D       37.0160   74.9570    0.3200 O.3   4001  NAD4001    -0.1143
@<TRIPOS>BOND
     1    25    24    2
     2    26    24    1
     3    24    27    1
     4    24    23    1
     5    23     1    1
     6     2     1    2
     7     1     4    1
     8     1     3    1
     9     4     5    1
    10     5     6    1
    11     6     7    1
    12     6     8    1
    13     7    12    1
    14    12    13    1
    15    12    10    1
    16     8     9    1
    17     8    10    1
    18    21    20    1
    19    21    22    2
    20    20    19    1
    21    13    22    1
    22    13    14    1
    23    22    16    1
    24    19    17    2
    25    14    15    1
    26    10    11    1
    27    16    17    1
    28    16    15    2
    29    17    18    1
