@<TRIPOS>MOLECULE
3f8r_NAP_A_1.pdb
 48 52 0 0 0
SMALL
GASTEIGER

@<TRIPOS>ATOM
      1  PA        52.2930   72.8130    8.9150 P.3   4001  NAP4001     0.2189
      2  O1A       53.1340   72.1700    7.8850 O.2   4001  NAP4001    -0.5170
      3  O2A       51.5790   71.9700    9.9100 O.3   4001  NAP4001    -0.4371
      4  O5B       53.2070   73.9000    9.6950 O.3   4001  NAP4001    -0.3112
      5  C5B       52.6380   74.8010   10.6540 C.3   4001  NAP4001     0.1813
      6  C4B       53.3710   74.7780   11.9940 C.3   4001  NAP4001     0.1820
      7  O4B       52.8080   75.6540   12.9800 O.3   4001  NAP4001    -0.3136
      8  C3B       53.3350   73.4290   12.6520 C.3   4001  NAP4001     0.2157
      9  O3B       54.0950   72.3950   12.0110 O.3   4001  NAP4001    -0.2175
     10  C2B       53.7470   73.7530   14.0630 C.3   4001  NAP4001     0.2314
     11  O2B       55.1070   73.5280   14.3490 O.3   4001  NAP4001    -0.2630
     12  C1B       53.2690   75.1790   14.2580 C.3   4001  NAP4001     0.3158
     13  N9A       52.1840   75.2110   15.2760 N.pl3 4001  NAP4001    -0.1439
     14  C8A       51.0720   74.3940   15.2870 C.3   4001  NAP4001     0.3377
     15  N7A       50.2510   74.5770   16.2620 N.2   4001  NAP4001    -0.2095
     16  C5A       50.8410   75.6050   16.9710 C.2   4001  NAP4001     0.2526
     17  C6A       50.4400   76.2900   18.1450 C.2   4001  NAP4001     0.4393
     18  N6A       49.3110   75.9960   18.7930 N.pl3 4001  NAP4001     0.2180
     19  N1A       51.2520   77.2890   18.6020 N.2   4001  NAP4001     0.0021
     20  C2A       52.3870   77.5820   17.9370 C.3   4001  NAP4001     0.5254
     21  N3A       52.8760   77.0060   16.8230 N.2   4001  NAP4001    -0.0055
     22  C4A       52.0340   76.0080   16.3860 C.2   4001  NAP4001     0.3518
     23  O3        51.1640   73.6840    8.1980 O.3   4001  NAP4001    -0.2703
     24  PN        51.3820   74.6080    6.9140 P.3   4001  NAP4001     0.2189
     25  O1N       51.7270   75.9400    7.3810 O.3   4001  NAP4001    -0.4371
     26  O2N       52.3630   73.9360    6.0320 O.2   4001  NAP4001    -0.5170
     27  O5D       49.9190   74.5690    6.2390 O.3   4001  NAP4001    -0.3112
     28  C5D       49.3000   73.2940    5.8900 C.3   4001  NAP4001     0.1813
     29  C4D       49.5600   72.7370    4.4640 C.3   4001  NAP4001     0.1799
     30  O4D       49.6400   73.7580    3.4710 O.3   4001  NAP4001    -0.3327
     31  C3D       50.8580   71.9270    4.3350 C.3   4001  NAP4001     0.2158
     32  O3D       50.6970   70.5560    4.7570 O.3   4001  NAP4001    -0.2175
     33  C2D       51.2520   72.0830    2.8710 C.3   4001  NAP4001     0.2309
     34  O2D       50.9610   70.9220    2.0840 O.3   4001  NAP4001    -0.2158
     35  C1D       50.4860   73.3190    2.3870 C.3   4001  NAP4001     0.2263
     36  N1N       51.3400   74.4720    1.8680 N.pl3 4001  NAP4001    -0.2787
     37  C2N       52.3490   74.2680    0.8970 C.3   4001  NAP4001     0.1244
     38  C3N       53.0500   75.3250    0.3840 C.2   4001  NAP4001     0.0544
     39  C7N       54.1800   75.0780   -0.7130 C.2   4001  NAP4001     0.2818
     40  O7N       54.7630   76.0810   -1.1330 O.2   4001  NAP4001    -0.2670
     41  N7N       54.5000   73.8520   -1.1750 N.am  4001  NAP4001    -0.0839
     42  C4N       52.7600   76.5930    0.8230 C.2   4001  NAP4001     0.0033
     43  C5N       51.7980   76.8520    1.7880 C.2   4001  NAP4001     0.0157
     44  C6N       51.0920   75.7940    2.3220 C.2   4001  NAP4001     0.0633
     45  P2B       55.5220   72.3910   15.4000 P.3   4001  NAP4001     0.5328
     46  O1X       54.4220   71.4070   15.2960 O.3   4001  NAP4001    -0.1145
     47  O2X       55.5970   73.0960   16.6820 O.3   4001  NAP4001    -0.1145
     48  O3X       56.8240   71.9440   14.8700 O.2   4001  NAP4001    -0.2224
@<TRIPOS>BOND
     1    41    39   am
     2    40    39    2
     3    39    38    1
     4    38    42    2
     5    38    37    1
     6    42    43    1
     7    37    36    1
     8    43    44    2
     9    36    44    1
    10    36    35    1
    11    34    33    1
    12    35    33    1
    13    35    30    1
    14    33    31    1
    15    30    29    1
    16    31    29    1
    17    31    32    1
    18    29    28    1
    19    28    27    1
    20    26    24    2
    21    27    24    1
    22    24    25    1
    23    24    23    1
    24     2     1    2
    25    23     1    1
    26     1     4    1
    27     1     3    1
    28     4     5    1
    29     5     6    1
    30     6     8    1
    31     6     7    1
    32     9     8    1
    33     8    10    1
    34     7    12    1
    35    10    12    1
    36    10    11    1
    37    12    13    1
    38    11    45    1
    39    48    45    2
    40    13    14    1
    41    13    22    1
    42    14    15    1
    43    46    45    1
    44    45    47    1
    45    15    16    2
    46    22    21    2
    47    22    16    1
    48    21    20    1
    49    16    17    1
    50    20    19    1
    51    17    19    2
    52    17    18    1
