@<TRIPOS>MOLECULE
3f8s_PF2_A_1.pdb
 26 29 0 0 0
SMALL
GASTEIGER

@<TRIPOS>ATOM
      1  F26       16.1430   19.4560   40.3580 F     900  PF2900     -0.2024
      2  C11       17.0780   18.6120   39.9920 C.3   900  PF2900      0.2835
      3  F25       18.1070   18.6260   40.8040 F     900  PF2900     -0.2024
      4  C10       17.6730   19.2050   38.7760 C.3   900  PF2900      0.0898
      5  C9        18.4860   18.0140   38.3480 C.3   900  PF2900      0.0993
      6  C12       16.6420   17.1730   39.6260 C.3   900  PF2900      0.1601
      7  N8        17.4760   16.9630   38.4580 N.am  900  PF2900     -0.2730
      8  C6        17.4400   16.0360   37.5030 C.2   900  PF2900      0.2417
      9  O7        16.6750   15.1080   37.4880 O.2   900  PF2900     -0.2734
     10  C4        18.5110   16.2140   36.4300 C.3   900  PF2900      0.1503
     11  N3        18.7510   15.0330   35.6110 N.3   900  PF2900     -0.2088
     12  C2        19.3860   15.5360   34.3910 C.3   900  PF2900      0.1051
     13  C5        18.1820   17.3040   35.4120 C.3   900  PF2900      0.0441
     14  C1        19.1730   17.0500   34.3130 C.3   900  PF2900      0.0769
     15  N13       18.7670   17.4680   32.9350 N.3   900  PF2900     -0.2696
     16  C18       19.9660   17.4090   32.0590 C.3   900  PF2900      0.0946
     17  C17       19.5350   17.5030   30.5960 C.3   900  PF2900      0.1186
     18  N16       18.7330   18.7120   30.4120 N.pl3 900  PF2900     -0.2503
     19  C15       17.8000   19.2300   31.4350 C.3   900  PF2900      0.1186
     20  C14       18.2230   18.8440   32.8680 C.3   900  PF2900      0.0946
     21  C19       18.8550   19.3410   29.2070 C.1   900  PF2900      0.0903
     22  N23       19.7180   18.8310   28.2700 N.2   900  PF2900     -0.2029
     23  C24       19.8820   19.4110   27.0620 C.3   900  PF2900      0.1653
     24  C22       19.1710   20.5640   26.7750 C.2   900  PF2900      0.0223
     25  C21       18.2870   21.0730   27.7410 C.2   900  PF2900      0.1082
     26  N20       18.1310   20.4650   28.9360 N.2   900  PF2900     -0.1805
@<TRIPOS>BOND
     1    24    23    1
     2    24    25    2
     3    23    22    1
     4    25    26    1
     5    22    21    2
     6    26    21    2
     7    21    18    1
     8    18    17    1
     9    18    19    1
    10    17    16    1
    11    19    20    1
    12    16    15    1
    13    20    15    1
    14    15    14    1
    15    14    12    1
    16    14    13    1
    17    12    11    1
    18    13    10    1
    19    11    10    1
    20    10     8    1
    21     9     8    2
    22     8     7   am
    23     5     7    1
    24     5     4    1
    25     7     6    1
    26     4     2    1
    27     6     2    1
    28     2     1    1
    29     2     3    1
