@<TRIPOS>MOLECULE
3f8w_ADN_A_1.pdb
 19 21 0 0 0
SMALL
GASTEIGER

@<TRIPOS>ATOM
      1  O5'       18.3920   25.7370    7.1700 O.3   300  ADN300     -0.2176
      2  C5'       18.9620   25.6790    8.4690 C.3   300  ADN300      0.2143
      3  C4'       19.4330   27.0990    8.8990 C.3   300  ADN300      0.1851
      4  O4'       18.3010   27.9950    8.7660 O.3   300  ADN300     -0.3134
      5  C3'       19.8130   27.1670   10.3990 C.3   300  ADN300      0.2186
      6  O3'       20.7130   28.2440   10.5830 O.3   300  ADN300     -0.2174
      7  C2'       18.4920   27.3630   11.1470 C.3   300  ADN300      0.2570
      8  O2'       18.5650   28.3600   12.1310 O.3   300  ADN300     -0.2130
      9  C1'       17.5470   27.8320   10.0080 C.3   300  ADN300      0.3186
     10  N9        16.4110   26.9470    9.7080 N.pl3 300  ADN300     -0.1439
     11  C8        15.6300   26.9880    8.4100 C.3   300  ADN300      0.3377
     12  N7        14.5700   25.9450    8.5290 N.2   300  ADN300     -0.2095
     13  C5        14.6860   25.2770    9.8750 C.2   300  ADN300      0.2526
     14  C6        13.8910   24.1180   10.5280 C.2   300  ADN300      0.4393
     15  N6        12.7570   23.5150    9.8300 N.pl3 300  ADN300      0.2180
     16  N1        14.2630   23.6460   11.8380 N.2   300  ADN300      0.0021
     17  C2        15.4250   24.2900   12.5950 C.3   300  ADN300      0.5254
     18  N3        16.2150   25.4160   11.9480 N.2   300  ADN300     -0.0055
     19  C4        15.8380   25.8860   10.5960 C.2   300  ADN300      0.3518
@<TRIPOS>BOND
     1     1     2    1
     2    11    12    1
     3    11    10    1
     4     2     3    1
     5    12    13    2
     6     4     3    1
     7     4     9    1
     8     3     5    1
     9    10     9    1
    10    10    19    1
    11    15    14    1
    12    13    14    1
    13    13    19    1
    14     9     7    1
    15     5     6    1
    16     5     7    1
    17    14    16    2
    18    19    18    2
    19     7     8    1
    20    16    17    1
    21    18    17    1
