@<TRIPOS>MOLECULE
3f8y_DH1_A_1.pdb
 25 26 0 0 0
SMALL
GASTEIGER

@<TRIPOS>ATOM
      1  C16       -2.3470   17.9450    3.5660 C.3   187  DH1187      0.2525
      2  O1        -2.1000   18.0040    2.1580 O.3   187  DH1187     -0.4717
      3  C2'       -1.8240   16.7600    1.7050 C.ar  187  DH1187      0.1352
      4  C3'       -0.7890   16.0060    2.2680 C.ar  187  DH1187      0.0397
      5  C4'       -0.5320   14.7320    1.7870 C.ar  187  DH1187      0.0400
      6  C5'       -1.3060   14.2210    0.7550 C.ar  187  DH1187      0.1384
      7  O5'       -1.0570   12.9750    0.2830 O.3   187  DH1187     -0.4755
      8  C52       -0.3250   13.0520   -0.9230 C.3   187  DH1187      0.2054
      9  C1         0.5010   11.7840   -1.0380 C.3   187  DH1187      0.0479
     10  C3         1.7120   12.0820   -1.8960 C.3   187  DH1187      0.0156
     11  C7         2.9320   11.3640   -1.3460 C.3   187  DH1187      0.1142
     12  C8         4.0160   12.3270   -0.8530 C.2   187  DH1187      0.3649
     13  O9         5.0180   11.7860   -0.3490 O.co2 187  DH1187     -0.2457
     14  O10        3.8300   13.5630   -0.9840 O.co2 187  DH1187     -0.2457
     15  C6'       -2.3290   14.9810    0.1950 C.ar  187  DH1187      0.0360
     16  C1'       -2.5910   16.2550    0.6670 C.ar  187  DH1187      0.0194
     17  C51       -3.7410   17.0320    0.0380 C.3   187  DH1187      0.0615
     18  C5        -3.3920   17.7830   -1.2520 C.2   187  DH1187      0.0501
     19  C6        -3.6550   17.0900   -2.4280 C.2   187  DH1187      0.1118
     20  N1        -3.4350   17.6510   -3.5980 N.2   187  DH1187     -0.1675
     21  C2        -2.9550   18.9060   -3.6780 C.1   187  DH1187      0.1877
     22  N2        -2.7540   19.4290   -4.8780 N.pl3 187  DH1187     -0.0345
     23  N3        -2.7010   19.6150   -2.5760 N.2   187  DH1187     -0.3170
     24  C4        -2.8980   19.0990   -1.3560 C.2   187  DH1187      0.2297
     25  N4        -2.6000   19.8670   -0.3110 N.pl3 187  DH1187     -0.0924
@<TRIPOS>BOND
     1    22    21    1
     2    21    20    2
     3    21    23    2
     4    20    19    1
     5    23    24    2
     6    19    18    2
     7    10    11    1
     8    10     9    1
     9    24    18    1
    10    24    25    1
    11    11    12    1
    12    18    17    1
    13     9     8    1
    14    14    12   ar
    15     8     7    1
    16    12    13   ar
    17    17    16    1
    18    15    16   ar
    19    15     6   ar
    20     7     6    1
    21    16     3   ar
    22     6     5   ar
    23     3     2    1
    24     3     4   ar
    25     5     4   ar
    26     2     1    1
