@<TRIPOS>MOLECULE
3f8y_NDP_A_1.pdb
 48 53 0 0 0
SMALL
GASTEIGER

@<TRIPOS>ATOM
      1  PA        -5.9010   22.5050   10.1180 P.3   188  NDP188      0.2189
      2  O1A       -5.0190   21.5140    9.5080 O.2   188  NDP188     -0.5170
      3  O2A       -5.7090   23.9200    9.7520 O.3   188  NDP188     -0.4371
      4  O5B       -5.8170   22.2900   11.6480 O.3   188  NDP188     -0.3112
      5  C5B       -6.5830   23.1180   12.5180 C.3   188  NDP188      0.1815
      6  C4B       -5.8460   23.1050   13.8020 C.3   188  NDP188      0.1864
      7  O4B       -4.4190   23.3920   13.3590 O.3   188  NDP188     -0.3134
      8  C3B       -6.1510   24.0920   14.9340 C.3   188  NDP188      0.2157
      9  O3B       -7.2350   23.5690   15.7090 O.3   188  NDP188     -0.2175
     10  C2B       -4.8340   23.5490   15.3720 C.3   188  NDP188      0.2271
     11  O2B       -4.3480   23.4020   16.6470 O.3   188  NDP188     -0.2632
     12  C1B       -3.8110   24.1230   14.4020 C.3   188  NDP188      0.3157
     13  N9A       -3.6260   25.4700   13.7270 N.pl3 188  NDP188     -0.1439
     14  C8A       -4.1610   25.8660   12.5610 C.3   188  NDP188      0.3377
     15  N7A       -3.7120   27.0880   12.2570 N.2   188  NDP188     -0.2095
     16  C5A       -2.8540   27.4630   13.1960 C.2   188  NDP188      0.2526
     17  C6A       -2.0850   28.6050   13.4090 C.2   188  NDP188      0.4393
     18  N6A       -2.0880   29.6390   12.5580 N.pl3 188  NDP188      0.2180
     19  N1A       -1.3110   28.6470   14.5040 N.2   188  NDP188      0.0021
     20  C2A       -1.2780   27.6290   15.3620 C.3   188  NDP188      0.5254
     21  N3A       -2.0010   26.5440   15.2000 N.2   188  NDP188     -0.0055
     22  C4A       -2.7950   26.4270   14.1230 C.2   188  NDP188      0.3518
     23  O3        -7.4700   22.0250    9.9640 O.3   188  NDP188     -0.2703
     24  PN        -8.7200   22.1270    8.9040 P.3   188  NDP188      0.2189
     25  O1N       -8.7410   23.4200    8.2100 O.2   188  NDP188     -0.5170
     26  O2N       -9.9320   21.6840    9.6280 O.3   188  NDP188     -0.4371
     27  O5D       -8.3250   20.9840    7.8920 O.3   188  NDP188     -0.3112
     28  C5D       -9.0240   20.9050    6.6930 C.3   188  NDP188      0.1813
     29  C4D       -9.1930   19.4620    6.2810 C.3   188  NDP188      0.1799
     30  O4D       -8.9100   19.6630    4.9260 O.3   188  NDP188     -0.3327
     31  C3D       -8.1210   18.4890    6.7900 C.3   188  NDP188      0.2158
     32  O3D       -8.7460   17.5880    7.6790 O.3   188  NDP188     -0.2175
     33  C2D       -7.6600   17.7110    5.5540 C.3   188  NDP188      0.2309
     34  O2D       -8.2000   16.3810    5.4810 O.3   188  NDP188     -0.2158
     35  C1D       -8.2630   18.4910    4.4060 C.3   188  NDP188      0.2263
     36  N1N       -7.1920   19.0840    3.6140 N.pl3 188  NDP188     -0.2787
     37  C2N       -7.3770   19.0560    2.2390 C.3   188  NDP188      0.1244
     38  C3N       -6.4240   19.6020    1.4120 C.2   188  NDP188      0.0544
     39  C7N       -6.6660   19.5610   -0.0840 C.2   188  NDP188      0.2818
     40  O7N       -5.8120   20.0080   -0.8270 O.2   188  NDP188     -0.2670
     41  N7N       -7.8370   19.0470   -0.4840 N.am  188  NDP188     -0.0839
     42  C4N       -5.2730   20.1960    1.9550 C.2   188  NDP188      0.0033
     43  C5N       -5.0900   20.2250    3.3400 C.2   188  NDP188      0.0157
     44  C6N       -6.0450   19.6750    4.1890 C.2   188  NDP188      0.0633
     45  P2B       -4.6060   23.7480   18.0820 P.3   188  NDP188      0.5328
     46  O1X       -3.9150   22.4260   18.6470 O.3   188  NDP188     -0.1145
     47  O2X       -6.1670   23.7110   18.4290 O.2   188  NDP188     -0.2224
     48  O3X       -3.9390   25.0070   18.4600 O.3   188  NDP188     -0.1145
@<TRIPOS>BOND
     1    40    39    2
     2    41    39   am
     3    39    38    1
     4    38    42    2
     5    38    37    1
     6    42    43    1
     7    37    36    1
     8    43    44    2
     9    36    44    1
    10    36    35    1
    11    35    30    1
    12    35    33    1
    13    30    29    1
    14    34    33    1
    15    33    31    1
    16    29    28    1
    17    29    31    1
    18    28    27    1
    19    31    32    1
    20    27    24    1
    21    25    24    2
    22    24    26    1
    23    24    23    1
    24     2     1    2
    25     3     1    1
    26    23     1    1
    27     1     4    1
    28     4     5    1
    29    15    14    1
    30    15    16    2
    31     5     6    1
    32    18    17    1
    33    14    13    1
    34    16    17    1
    35    16    22    1
    36     7     6    1
    37     7    12    1
    38    17    19    2
    39    13    22    1
    40    13    12    1
    41     6     8    1
    42     6    10    1
    43    22    21    2
    44    12    10    1
    45    19    20    1
    46     8    10    1
    47     8     9    1
    48    21    20    1
    49    10    11    1
    50    11    45    1
    51    45    47    2
    52    45    48    1
    53    45    46    1
