@<TRIPOS>MOLECULE
3f8z_NDP_A_1.pdb
 48 52 0 0 0
SMALL
GASTEIGER

@<TRIPOS>ATOM
      1  PA        -6.0490   22.5060   10.1040 P.3   188  NDP188      0.2189
      2  O1A       -5.1180   21.5520    9.4670 O.2   188  NDP188     -0.5170
      3  O2A       -5.8580   23.9600    9.8640 O.3   188  NDP188     -0.4371
      4  O5B       -5.9020   22.2300   11.5730 O.3   188  NDP188     -0.3112
      5  C5B       -6.6260   23.0390   12.4740 C.3   188  NDP188      0.1813
      6  C4B       -5.9000   22.9070   13.7740 C.3   188  NDP188      0.1820
      7  O4B       -4.4530   23.2000   13.4620 O.3   188  NDP188     -0.3136
      8  C3B       -6.2690   23.9140   14.8730 C.3   188  NDP188      0.2157
      9  O3B       -7.4180   23.5060   15.6260 O.3   188  NDP188     -0.2175
     10  C2B       -4.9810   23.5210   15.5600 C.3   188  NDP188      0.2314
     11  O2B       -4.7740   24.1920   16.6780 O.3   188  NDP188     -0.2630
     12  C1B       -3.9770   24.0270   14.5110 C.3   188  NDP188      0.3158
     13  N9A       -3.8030   25.4060   13.8300 N.pl3 188  NDP188     -0.1439
     14  C8A       -4.3530   25.8270   12.6710 C.3   188  NDP188      0.3377
     15  N7A       -3.9020   27.0500   12.3880 N.2   188  NDP188     -0.2095
     16  C5A       -3.0310   27.4180   13.3300 C.2   188  NDP188      0.2526
     17  C6A       -2.2440   28.5570   13.5850 C.2   188  NDP188      0.4393
     18  N6A       -2.2230   29.6270   12.7810 N.pl3 188  NDP188      0.2180
     19  N1A       -1.4510   28.5730   14.6740 N.2   188  NDP188      0.0021
     20  C2A       -1.4060   27.5440   15.5160 C.3   188  NDP188      0.5254
     21  N3A       -2.1530   26.4720   15.3090 N.2   188  NDP188     -0.0055
     22  C4A       -2.9640   26.3670   14.2390 C.2   188  NDP188      0.3518
     23  O3        -7.6060   22.0180    9.9790 O.3   188  NDP188     -0.2703
     24  PN        -8.7600   21.9530    8.7870 P.3   188  NDP188      0.2189
     25  O1N       -8.7730   23.2600    8.0310 O.2   188  NDP188     -0.5170
     26  O2N      -10.0080   21.4510    9.3900 O.3   188  NDP188     -0.4371
     27  O5D       -8.2700   20.6660    8.0050 O.3   188  NDP188     -0.3112
     28  C5D       -8.4080   20.6210    6.6790 C.3   188  NDP188      0.1813
     29  C4D       -9.0510   19.3240    6.3250 C.3   188  NDP188      0.1799
     30  O4D       -8.9300   19.6050    4.9450 O.3   188  NDP188     -0.3327
     31  C3D       -8.0890   18.1830    6.6930 C.3   188  NDP188      0.2158
     32  O3D       -8.7780   17.2560    7.5590 O.3   188  NDP188     -0.2175
     33  C2D       -7.6240   17.5530    5.3340 C.3   188  NDP188      0.2309
     34  O2D       -8.1840   16.2730    4.9760 O.3   188  NDP188     -0.2158
     35  C1D       -8.1780   18.5260    4.2860 C.3   188  NDP188      0.2263
     36  N1N       -7.1350   19.1560    3.4760 N.pl3 188  NDP188     -0.2787
     37  C2N       -7.3330   19.0790    2.1040 C.3   188  NDP188      0.1244
     38  C3N       -6.4330   19.6640    1.2410 C.2   188  NDP188      0.0544
     39  C7N       -6.6960   19.5550   -0.2480 C.2   188  NDP188      0.2818
     40  O7N       -5.8360   19.9430   -1.0170 O.2   188  NDP188     -0.2670
     41  N7N       -7.8880   19.0190   -0.6150 N.am  188  NDP188     -0.0839
     42  C4N       -5.2880   20.3090    1.7590 C.2   188  NDP188      0.0033
     43  C5N       -5.0830   20.3910    3.1470 C.2   188  NDP188      0.0157
     44  C6N       -5.9930   19.8190    4.0430 C.2   188  NDP188      0.0633
     45  P2B       -4.6570   23.7300   18.1500 P.3   188  NDP188      0.5328
     46  O1X       -3.8970   22.4030   18.4600 O.2   188  NDP188     -0.2224
     47  O2X       -6.1880   23.6490   18.6230 O.3   188  NDP188     -0.1145
     48  O3X       -4.0210   24.9790   18.6110 O.3   188  NDP188     -0.1145
@<TRIPOS>BOND
     1    40    39    2
     2    41    39   am
     3    39    38    1
     4    38    42    2
     5    38    37    1
     6    42    43    1
     7    37    36    1
     8    43    44    2
     9    36    44    1
    10    36    35    1
    11    35    30    1
    12    35    33    1
    13    30    29    1
    14    34    33    1
    15    33    31    1
    16    29    28    1
    17    29    31    1
    18    28    27    1
    19    31    32    1
    20    27    24    1
    21    25    24    2
    22    24    26    1
    23    24    23    1
    24     2     1    2
    25     3     1    1
    26    23     1    1
    27     1     4    1
    28     4     5    1
    29    15    14    1
    30    15    16    2
    31     5     6    1
    32    14    13    1
    33    18    17    1
    34    16    17    1
    35    16    22    1
    36     7     6    1
    37     7    12    1
    38    17    19    2
    39     6     8    1
    40    13    22    1
    41    13    12    1
    42    22    21    2
    43    12    10    1
    44    19    20    1
    45     8    10    1
    46     8     9    1
    47    21    20    1
    48    10    11    1
    49    11    45    1
    50    45    46    2
    51    45    48    1
    52    45    47    1
