@<TRIPOS>MOLECULE
3f8z_DH1_A_1.pdb
 25 26 0 0 0
SMALL
GASTEIGER

@<TRIPOS>ATOM
      1  C16       -1.6760   18.1680    3.2410 C.3   187  DH1187      0.2525
      2  O1        -2.2950   17.8770    1.9950 O.3   187  DH1187     -0.4717
      3  C2'       -1.9130   16.6560    1.4710 C.ar  187  DH1187      0.1352
      4  C3'       -0.8860   15.8910    2.0570 C.ar  187  DH1187      0.0397
      5  C4'       -0.5350   14.6630    1.5000 C.ar  187  DH1187      0.0400
      6  C5'       -1.1810   14.1890    0.3590 C.ar  187  DH1187      0.1384
      7  O5'       -0.8080   12.9510   -0.1910 O.3   187  DH1187     -0.4755
      8  C52        0.1250   13.0230   -1.2640 C.3   187  DH1187      0.2054
      9  C1         0.8920   11.7240   -1.4620 C.3   187  DH1187      0.0479
     10  C3         1.4540   11.1490   -0.1400 C.3   187  DH1187      0.0156
     11  C7         2.4660   12.0560    0.6190 C.3   187  DH1187      0.1142
     12  C8         3.8100   12.3390   -0.1080 C.2   187  DH1187      0.3649
     13  O9         4.6800   11.4030   -0.0770 O.co2 187  DH1187     -0.2457
     14  O10        3.9240   13.4870   -0.6510 O.co2 187  DH1187     -0.2457
     15  C6'       -2.2200   14.9630   -0.2040 C.ar  187  DH1187      0.0360
     16  C1'       -2.5690   16.2050    0.3230 C.ar  187  DH1187      0.0194
     17  C51       -3.7210   17.0010   -0.3010 C.3   187  DH1187      0.0615
     18  C5        -3.4010   17.8000   -1.5760 C.2   187  DH1187      0.0501
     19  C6        -3.6490   17.1490   -2.7720 C.2   187  DH1187      0.1118
     20  N1        -3.4060   17.7830   -3.9020 N.2   187  DH1187     -0.1675
     21  C2        -2.9590   19.0410   -3.9470 C.1   187  DH1187      0.1877
     22  N2        -2.7750   19.5580   -5.1410 N.pl3 187  DH1187     -0.0345
     23  N3        -2.7040   19.7310   -2.8160 N.2   187  DH1187     -0.3170
     24  C4        -2.9150   19.1230   -1.6300 C.2   187  DH1187      0.2297
     25  N4        -2.6450   19.7540   -0.4990 N.pl3 187  DH1187     -0.0924
@<TRIPOS>BOND
     1    22    21    1
     2    21    20    2
     3    21    23    2
     4    20    19    1
     5    23    24    2
     6    19    18    2
     7    24    18    1
     8    24    25    1
     9    18    17    1
    10     9     8    1
    11     9    10    1
    12     8     7    1
    13    14    12   ar
    14    17    16    1
    15    15    16   ar
    16    15     6   ar
    17     7     6    1
    18    10    11    1
    19    12    13   ar
    20    12    11    1
    21    16     3   ar
    22     6     5   ar
    23     3     2    1
    24     3     4   ar
    25     5     4   ar
    26     2     1    1
