@<TRIPOS>MOLECULE
3f90_FMN_A_1.pdb
 31 33 0 0 0
SMALL
GASTEIGER

@<TRIPOS>ATOM
      1  N1       -18.6310   -1.0610   -6.5650 N.2   149  FMN149     -0.2887
      2  C2       -18.3260   -2.4000   -6.7220 C.1   149  FMN149      0.3669
      3  O2       -19.0060   -3.2570   -6.1650 O.2   149  FMN149     -0.1744
      4  N3       -17.2540   -2.7850   -7.4990 N.2   149  FMN149     -0.2300
      5  C4       -16.4740   -1.8410   -8.1410 C.1   149  FMN149      0.2513
      6  O4       -15.7500   -2.2020   -9.0740 O.2   149  FMN149     -0.2057
      7  C4A      -16.7770   -0.4870   -7.9840 C.2   149  FMN149      0.2706
      8  N5       -16.0050    0.4760   -8.6080 N.2   149  FMN149     -0.3841
      9  C5A      -16.3070    1.8150   -8.4500 C.2   149  FMN149      0.1452
     10  C6       -15.5310    2.7790   -9.0840 C.2   149  FMN149      0.0252
     11  C7       -15.8310    4.1280   -8.9310 C.2   149  FMN149     -0.0375
     12  C7M      -14.9760    5.1690   -9.5910 C.3   149  FMN149      0.0268
     13  C8       -16.9130    4.5180   -8.1470 C.3   149  FMN149      0.0417
     14  C8M      -17.5080    5.8760   -8.3800 C.3   149  FMN149      0.0091
     15  C9       -17.6840    3.5450   -7.5120 C.2   149  FMN149     -0.0049
     16  C9A      -17.3870    2.1960   -7.6630 C.2   149  FMN149      0.0795
     17  N10      -18.1610    1.2370   -7.0340 N.pl3 149  FMN149     -0.2545
     18  C10      -17.8580   -0.1020   -7.1910 C.2   149  FMN149      0.2449
     19  C1'      -19.5130    1.6120   -6.5040 C.3   149  FMN149      0.1336
     20  C2'      -19.3930    2.0400   -5.0480 C.3   149  FMN149      0.2048
     21  O2'      -18.7490    1.0010   -4.3460 O.3   149  FMN149     -0.2185
     22  C3'      -20.7670    2.3280   -4.4450 C.3   149  FMN149      0.2165
     23  O3'      -21.1570    3.6450   -4.7650 O.3   149  FMN149     -0.2175
     24  C4'      -20.7830    2.1220   -2.9330 C.3   149  FMN149      0.2147
     25  O4'      -22.1150    2.0680   -2.4750 O.3   149  FMN149     -0.2176
     26  C5'      -20.0380    3.2340   -2.2070 C.3   149  FMN149      0.1892
     27  O5'      -19.7210    2.7530   -0.9210 O.3   149  FMN149     -0.2674
     28  P        -19.4370    3.7410    0.3230 P.3   149  FMN149      0.5327
     29  O1P      -20.3020    4.9640    0.1770 O.2   149  FMN149     -0.2224
     30  O2P      -17.9760    4.1120    0.3580 O.3   149  FMN149     -0.1145
     31  O3P      -19.8280    3.0600    1.6130 O.3   149  FMN149     -0.1145
@<TRIPOS>BOND
     1    12    11    1
     2    10    11    2
     3    10     9    1
     4     6     5    2
     5    11    13    1
     6     8     9    2
     7     8     7    2
     8     9    16    1
     9    14    13    1
    10    13    15    1
    11     5     7    1
    12     5     4    2
    13     7    18    1
    14    16    15    2
    15    16    17    1
    16     4     2    2
    17    18    17    1
    18    18     1    2
    19    17    19    1
    20     2     1    2
    21     2     3    2
    22    19    20    1
    23    20    22    1
    24    20    21    1
    25    23    22    1
    26    22    24    1
    27    24    25    1
    28    24    26    1
    29    26    27    1
    30    27    28    1
    31    29    28    2
    32    28    30    1
    33    28    31    1
