@<TRIPOS>MOLECULE
3f91_DH1_A_1.pdb
 25 26 0 0 0
SMALL
GASTEIGER

@<TRIPOS>ATOM
      1  C16       -1.6270   18.3120    3.1890 C.3   187  DH1187      0.2525
      2  O1        -2.1420   17.9950    1.9540 O.3   187  DH1187     -0.4717
      3  C2'       -1.8180   16.8360    1.4780 C.ar  187  DH1187      0.1352
      4  C3'       -0.7980   16.0580    2.0060 C.ar  187  DH1187      0.0397
      5  C4'       -0.4610   14.8710    1.4650 C.ar  187  DH1187      0.0400
      6  C5'       -1.1570   14.4330    0.3500 C.ar  187  DH1187      0.1384
      7  O5'       -0.8710   13.2660   -0.2320 O.3   187  DH1187     -0.4755
      8  C52        0.1910   13.1150   -0.8530 C.3   187  DH1187      0.2054
      9  C1         0.7820   11.7770   -0.6330 C.3   187  DH1187      0.0479
     10  C3         0.0130   10.5950   -1.2230 C.3   187  DH1187      0.0156
     11  C7        -0.5720    9.6930   -0.0840 C.3   187  DH1187      0.1142
     12  C8        -1.7400    8.7320   -0.3670 C.2   187  DH1187      0.3649
     13  O9        -2.6600    8.6780    0.5010 O.co2 187  DH1187     -0.2457
     14  O10       -1.7350    8.1480   -1.4180 O.co2 187  DH1187     -0.2457
     15  C6'       -2.1830   15.2090   -0.1660 C.ar  187  DH1187      0.0360
     16  C1'       -2.5070   16.4120    0.3600 C.ar  187  DH1187      0.0194
     17  C51       -3.6370   17.1920   -0.2720 C.3   187  DH1187      0.0615
     18  C5        -3.3490   17.9220   -1.5720 C.2   187  DH1187      0.0501
     19  C6        -3.6060   17.3140   -2.7820 C.2   187  DH1187      0.1118
     20  N1        -3.3840   17.9330   -3.8950 N.2   187  DH1187     -0.1675
     21  C2        -2.8900   19.1770   -3.9250 C.1   187  DH1187      0.1877
     22  N2        -2.7000   19.7620   -5.0500 N.pl3 187  DH1187     -0.0345
     23  N3        -2.6690   19.8210   -2.8020 N.2   187  DH1187     -0.3170
     24  C4        -2.8600   19.2460   -1.6460 C.2   187  DH1187      0.2297
     25  N4        -2.5740   19.8620   -0.5940 N.pl3 187  DH1187     -0.0924
@<TRIPOS>BOND
     1    22    21    1
     2    21    20    2
     3    21    23    2
     4    20    19    1
     5    23    24    2
     6    19    18    2
     7    24    18    1
     8    24    25    1
     9    18    17    1
    10    14    12   ar
    11    10     9    1
    12    10    11    1
    13     8     9    1
    14     8     7    1
    15    12    11    1
    16    12    13   ar
    17    17    16    1
    18     7     6    1
    19    15     6   ar
    20    15    16   ar
    21     6     5   ar
    22    16     3   ar
    23     5     4   ar
    24     3     2    1
    25     3     4   ar
    26     2     1    1
