@<TRIPOS>MOLECULE
3f91_NDP_A_1.pdb
 48 52 0 0 0
SMALL
GASTEIGER

@<TRIPOS>ATOM
      1  PA        -6.0240   22.5860   10.1140 P.3   188  NDP188      0.2189
      2  O1A       -5.0850   21.6260    9.5390 O.2   188  NDP188     -0.5170
      3  O2A       -5.9170   24.0270    9.8180 O.3   188  NDP188     -0.4371
      4  O5B       -5.9390   22.3250   11.6690 O.3   188  NDP188     -0.3112
      5  C5B       -6.6820   23.1310   12.5340 C.3   188  NDP188      0.1813
      6  C4B       -5.8670   23.0530   13.7810 C.3   188  NDP188      0.1820
      7  O4B       -4.4410   23.3930   13.4650 O.3   188  NDP188     -0.3136
      8  C3B       -6.2300   24.0340   14.8630 C.3   188  NDP188      0.2157
      9  O3B       -7.3420   23.5510   15.5900 O.3   188  NDP188     -0.2175
     10  C2B       -4.9510   23.6150   15.5310 C.3   188  NDP188      0.2314
     11  O2B       -4.7980   24.2020   16.6890 O.3   188  NDP188     -0.2630
     12  C1B       -3.9520   24.2080   14.5240 C.3   188  NDP188      0.3158
     13  N9A       -3.7360   25.6140   13.8090 N.pl3 188  NDP188     -0.1439
     14  C8A       -4.2520   26.0170   12.6310 C.3   188  NDP188      0.3377
     15  N7A       -3.7740   27.2230   12.2980 N.2   188  NDP188     -0.2095
     16  C5A       -2.9050   27.5940   13.2370 C.2   188  NDP188      0.2526
     17  C6A       -2.1080   28.7190   13.4510 C.2   188  NDP188      0.4393
     18  N6A       -2.0680   29.7750   12.5950 N.pl3 188  NDP188      0.2180
     19  N1A       -1.3480   28.7470   14.5580 N.2   188  NDP188      0.0021
     20  C2A       -1.3250   27.7590   15.4510 C.3   188  NDP188      0.5254
     21  N3A       -2.0900   26.6850   15.2770 N.2   188  NDP188     -0.0055
     22  C4A       -2.8870   26.5710   14.1980 C.2   188  NDP188      0.3518
     23  O3        -7.5340   22.0260    9.9710 O.3   188  NDP188     -0.2703
     24  PN        -8.7440   22.0970    8.8690 P.3   188  NDP188      0.2189
     25  O1N       -8.7880   23.3560    8.0630 O.2   188  NDP188     -0.5170
     26  O2N       -9.9640   21.6860    9.5840 O.3   188  NDP188     -0.4371
     27  O5D       -8.3960   20.7000    8.1350 O.3   188  NDP188     -0.3112
     28  C5D       -8.2320   20.4840    6.8530 C.3   188  NDP188      0.1813
     29  C4D       -9.1970   19.3700    6.3590 C.3   188  NDP188      0.1799
     30  O4D       -8.9410   19.6860    4.9830 O.3   188  NDP188     -0.3327
     31  C3D       -8.9980   17.8350    6.4740 C.3   188  NDP188      0.2158
     32  O3D      -10.2410   17.2290    6.0470 O.3   188  NDP188     -0.2175
     33  C2D       -7.9360   17.5500    5.4120 C.3   188  NDP188      0.2309
     34  O2D       -8.1140   16.2500    4.8260 O.3   188  NDP188     -0.2158
     35  C1D       -8.3140   18.5530    4.3240 C.3   188  NDP188      0.2263
     36  N1N       -7.2040   19.1680    3.5570 N.pl3 188  NDP188     -0.2787
     37  C2N       -7.3220   19.1470    2.1750 C.3   188  NDP188      0.1244
     38  C3N       -6.3390   19.7190    1.3920 C.2   188  NDP188      0.0544
     39  C7N       -6.5370   19.7000   -0.1220 C.2   188  NDP188      0.2818
     40  O7N       -5.6840   20.1990   -0.8120 O.2   188  NDP188     -0.2670
     41  N7N       -7.6800   19.1720   -0.6100 N.am  188  NDP188     -0.0839
     42  C4N       -5.2070   20.3080    2.0010 C.2   188  NDP188      0.0033
     43  C5N       -5.0780   20.3450    3.4040 C.2   188  NDP188      0.0157
     44  C6N       -6.0680   19.7710    4.2000 C.2   188  NDP188      0.0633
     45  P2B       -4.6660   23.7340   18.1820 P.3   188  NDP188      0.5328
     46  O1X       -3.8830   22.4050   18.5720 O.3   188  NDP188     -0.1145
     47  O2X       -6.2040   23.7270   18.6700 O.3   188  NDP188     -0.1145
     48  O3X       -4.0790   25.0280   18.5460 O.2   188  NDP188     -0.2224
@<TRIPOS>BOND
     1    40    39    2
     2    41    39   am
     3    39    38    1
     4    38    42    2
     5    38    37    1
     6    42    43    1
     7    37    36    1
     8    43    44    2
     9    36    44    1
    10    36    35    1
    11    35    30    1
    12    35    33    1
    13    34    33    1
    14    30    29    1
    15    33    31    1
    16    32    31    1
    17    29    31    1
    18    29    28    1
    19    28    27    1
    20    25    24    2
    21    27    24    1
    22    24    26    1
    23    24    23    1
    24     2     1    2
    25     3     1    1
    26    23     1    1
    27     1     4    1
    28     4     5    1
    29    15    14    1
    30    15    16    2
    31     5     6    1
    32    18    17    1
    33    14    13    1
    34    16    17    1
    35    16    22    1
    36    17    19    2
    37     7     6    1
    38     7    12    1
    39     6     8    1
    40    13    22    1
    41    13    12    1
    42    22    21    2
    43    12    10    1
    44    19    20    1
    45     8    10    1
    46     8     9    1
    47    21    20    1
    48    10    11    1
    49    11    45    1
    50    45    48    2
    51    45    46    1
    52    45    47    1
