@<TRIPOS>MOLECULE
3f97_GD7_A_1.pdb
 10 9 0 0 0
SMALL
GASTEIGER

@<TRIPOS>ATOM
      1  C1        10.4210   -7.6670   27.6250 C.3   473  GD7473      0.0024
      2  C2        10.4490   -6.6170   25.4070 C.3   473  GD7473      0.0024
      3  C3         8.3420   -6.9980   26.5140 C.3   473  GD7473      0.0024
      4  C4        10.8900   -9.7430   25.5210 C.3   473  GD7473      0.0325
      5  C5         9.5470   -9.0260   25.6720 C.3   473  GD7473      0.1212
      6  C6         9.7010   -7.6120   26.2770 C.3   473  GD7473      0.0254
      7  C7         8.7070  -11.9120   23.9670 C.3   473  GD7473      0.0904
      8  OH         8.8290   -9.0740   24.4140 O.3   473  GD7473     -0.3199
      9  P1         7.8540  -10.3070   23.9360 P.3   473  GD7473      0.2205
     10  O11        6.4690  -10.3710   24.7410 O.3   473  GD7473     -0.1774
@<TRIPOS>BOND
     1     9     7    1
     2     9     8    1
     3     9    10    1
     4     8     5    1
     5     2     6    1
     6     4     5    1
     7     5     6    1
     8     6     3    1
     9     6     1    1
