@<TRIPOS>MOLECULE
3f9c_DFP_A_1.pdb
 10 9 0 0 0
SMALL
GASTEIGER

@<TRIPOS>ATOM
      1  C1        -8.9120  -12.5820  -24.0900 C.3   473  DFP473      0.1236
      2  C2        -9.5530  -12.5400  -25.4710 C.3   473  DFP473      0.0325
      3  C3        -8.8070  -14.0300  -23.6040 C.3   473  DFP473      0.0325
      4  C1'       -9.1010   -8.9540  -25.6680 C.3   473  DFP473      0.1236
      5  C2'      -10.5030   -9.5340  -25.8570 C.3   473  DFP473      0.0325
      6  C3'       -9.1290   -7.4270  -25.7150 C.3   473  DFP473      0.0325
      7  P         -7.2700  -10.3040  -23.9830 P.3   473  DFP473      0.3659
      8  O1P       -7.6230  -11.9430  -24.1190 O.3   473  DFP473     -0.2993
      9  O2P       -8.6200   -9.4020  -24.3920 O.3   473  DFP473     -0.2993
     10  O3P       -5.9170   -9.9790  -24.7750 O.3   473  DFP473     -0.1446
@<TRIPOS>BOND
     1     5     4    1
     2     6     4    1
     3     4     9    1
     4     2     1    1
     5    10     7    1
     6     9     7    1
     7     8     1    1
     8     8     7    1
     9     1     3    1
