@<TRIPOS>MOLECULE
3f9d_LSR_A_1.pdb
 15 15 0 0 0
SMALL
GASTEIGER

@<TRIPOS>ATOM
      1  CAF      -12.5530  -34.8690    5.3830 C.2   138  LSR138     -0.0046
      2  CAE      -12.7820  -33.5630    5.3400 C.2   138  LSR138     -0.0221
      3  CAD      -13.9460  -33.0110    5.7110 C.3   138  LSR138      0.0440
      4  CAA      -15.0480  -33.8690    6.2270 C.3   138  LSR138      0.0094
      5  CAC      -14.0930  -31.6800    5.5990 C.2   138  LSR138     -0.0224
      6  CAB      -15.2600  -31.0760    5.3990 C.2   138  LSR138     -0.0092
      7  CAK      -15.3470  -29.7400    5.2600 C.2   138  LSR138     -0.0310
      8  CAJ      -14.9510  -29.2030    4.1080 C.2   138  LSR138     -0.0479
      9  CAI      -14.4170  -30.0780    3.0240 C.3   138  LSR138      0.0260
     10  CAN      -15.0070  -27.7270    3.8310 C.3   138  LSR138      0.0217
     11  CAO      -14.9420  -26.9420    5.1160 C.3   138  LSR138      0.0047
     12  CAP      -16.0250  -27.4230    6.0450 C.3   138  LSR138      0.0044
     13  CAL      -15.8960  -28.8960    6.3880 C.3   138  LSR138      0.0183
     14  CAH      -17.2910  -29.4030    6.7140 C.3   138  LSR138      0.0043
     15  CAM      -14.9970  -29.0480    7.5970 C.3   138  LSR138      0.0043
@<TRIPOS>BOND
     1     9     8    1
     2    10     8    1
     3    10    11    1
     4     8     7    2
     5    11    12    1
     6     7     6    1
     7     7    13    1
     8     2     1    2
     9     2     3    1
    10     6     5    2
    11     5     3    1
    12     3     4    1
    13    12    13    1
    14    13    14    1
    15    13    15    1
