@<TRIPOS>MOLECULE
3f9m_GLC_A_1.pdb
 12 12 0 0 0
SMALL
GASTEIGER

@<TRIPOS>ATOM
      1  C1       -27.2290   -5.2740   11.9730 C.3   500  GLC500      0.3024
      2  C2       -26.2160   -6.0680   12.7960 C.3   500  GLC500      0.2434
      3  C3       -25.2330   -5.1000   13.4570 C.3   500  GLC500      0.2199
      4  C4       -24.5890   -4.2000   12.3940 C.3   500  GLC500      0.2144
      5  C5       -25.6650   -3.5800   11.5070 C.3   500  GLC500      0.1836
      6  C6       -25.0670   -2.7500   10.3880 C.3   500  GLC500      0.2142
      7  O1       -27.9790   -4.3960   12.7830 O.3   500  GLC500     -0.1869
      8  O2       -26.8890   -6.7660   13.7970 O.3   500  GLC500     -0.2148
      9  O3       -24.2120   -5.8090   14.1030 O.3   500  GLC500     -0.2174
     10  O4       -23.7880   -3.2020   13.0190 O.3   500  GLC500     -0.2176
     11  O5       -26.5330   -4.5730   10.9560 O.3   500  GLC500     -0.3236
     12  O6       -24.3160   -3.5680    9.5170 O.3   500  GLC500     -0.2176
@<TRIPOS>BOND
     1    12     6    1
     2     6     5    1
     3    11     5    1
     4    11     1    1
     5     5     4    1
     6     1     7    1
     7     1     2    1
     8     4    10    1
     9     4     3    1
    10     2     3    1
    11     2     8    1
    12     3     9    1
