@<TRIPOS>MOLECULE
3f9m_MRK_A_1.pdb
 23 25 0 0 0
SMALL
GASTEIGER

@<TRIPOS>ATOM
      1  S1        -7.5780   -2.2750   20.8330 S.2   501  MRK501     -0.0491
      2  C2        -7.7610   -3.4020   22.1330 C.ar  501  MRK501      0.0588
      3  C3        -8.4000   -2.8120   23.2110 C.ar  501  MRK501      0.1079
      4  N4        -8.7310   -1.5050   23.0230 N.ar  501  MRK501     -0.2209
      5  C5        -8.3710   -1.0920   21.8220 C.ar  501  MRK501      0.1861
      6  N6        -8.6010    0.1890   21.4320 N.am  501  MRK501     -0.1504
      7  C7        -8.2670    0.6360   20.2250 C.2   501  MRK501      0.2720
      8  O8        -7.6480   -0.0420   19.4370 O.2   501  MRK501     -0.2679
      9  C9        -8.1040    2.7000   18.7890 C.ar  501  MRK501      0.0958
     10  C10       -8.7240    1.9900   19.8170 C.ar  501  MRK501      0.0728
     11  C11       -9.8100    2.5350   20.4960 C.ar  501  MRK501      0.0148
     12  C12      -10.2840    3.7910   20.1680 C.ar  501  MRK501      0.0599
     13  C13       -9.6680    4.5020   19.1430 C.ar  501  MRK501      0.1475
     14  F14      -10.1000    5.7320   18.7800 F     501  MRK501     -0.2036
     15  C15       -8.5790    3.9610   18.4690 C.ar  501  MRK501      0.0483
     16  S16      -11.6550    4.3790   21.0020 S.3   501  MRK501     -0.0481
     17  N17      -12.1380    7.0100   20.8020 N.ar  501  MRK501     -0.3030
     18  C18      -11.4480    6.0510   21.4100 C.ar  501  MRK501      0.1756
     19  N19      -10.5840    6.4790   22.3400 N.ar  501  MRK501     -0.2192
     20  C20      -10.7470    7.8260   22.3210 C.ar  501  MRK501      0.1197
     21  C21      -11.7030    8.1420   21.3690 C.ar  501  MRK501      0.0984
     22  C22      -13.1550    6.8740   19.7340 C.3   501  MRK501      0.1325
     23  N23       -7.0470    2.1990   18.0970 N.pl3 501  MRK501     -0.1278
@<TRIPOS>BOND
     1    23     9    1
     2    15     9   ar
     3    15    13   ar
     4    14    13    1
     5     9    10   ar
     6    13    12   ar
     7     8     7    2
     8    22    17    1
     9    10     7    1
    10    10    11   ar
    11    12    11   ar
    12    12    16    1
    13     7     6   am
    14    17    21   ar
    15    17    18   ar
    16     1     5   ar
    17     1     2   ar
    18    16    18    1
    19    21    20   ar
    20    18    19   ar
    21     6     5    1
    22     5     4   ar
    23     2     3   ar
    24    20    19   ar
    25     4     3   ar
