@<TRIPOS>MOLECULE
3f9n_38M_A_1.pdb
 37 41 0 0 0
SMALL
GASTEIGER

@<TRIPOS>ATOM
      1  C         21.9150  -10.0200   26.5790 C.3   324  38M324      0.0523
      2  C1        22.7720  -10.4020   27.6140 C.2   324  38M324     -0.0188
      3  C2        24.0580   -9.8790   27.6790 C.2   324  38M324      0.0280
      4  C3        24.4750   -8.9320   26.7520 C.2   324  38M324      0.1374
      5  C4        23.6520   -8.5590   25.7450 C.2   324  38M324      0.0799
      6  C5        22.3450   -9.1150   25.6140 C.2   324  38M324     -0.0143
      7  C6        24.1370   -7.5530   24.7720 C.2   324  38M324      0.2608
      8  O         23.3920   -7.1880   23.8960 O.2   324  38M324     -0.2691
      9  N         25.4080   -7.0150   24.9700 N.am  324  38M324     -0.2037
     10  N7        25.7400   -8.3660   26.8550 N.2   324  38M324     -0.3801
     11  C8        26.1610   -7.4120   25.9810 C.2   324  38M324      0.2207
     12  S         27.7240   -6.6650   26.1310 S.3   324  38M324     -0.0579
     13  C15       28.6690   -7.5120   27.3140 C.3   324  38M324      0.1318
     14  C16       27.9600   -7.4310   28.6900 C.2   324  38M324      0.2357
     15  C17       29.9630   -6.7130   27.2780 C.3   324  38M324      0.0205
     16  O18       27.6000   -6.3540   29.1270 O.2   324  38M324     -0.2739
     17  N19       27.7420   -8.5720   29.4400 N.am  324  38M324     -0.2788
     18  C20       31.1220   -7.4690   27.8670 C.3   324  38M324      0.0014
     19  C21       32.4240   -6.6460   27.7490 C.3   324  38M324      0.0000
     20  C22       32.6760   -5.8450   29.0350 C.3   324  38M324      0.0000
     21  C23       28.1920   -9.8760   28.9430 C.3   324  38M324      0.0934
     22  C24       29.3320  -10.3090   29.9030 C.3   324  38M324      0.0216
     23  C25       28.9650  -10.1700   31.4080 C.3   324  38M324      0.0048
     24  C26       28.1280   -8.9390   31.8260 C.3   324  38M324      0.0345
     25  C27       27.0810   -8.5550   30.7810 C.3   324  38M324      0.0947
     26  C7        29.1460   -7.8310   32.0880 C.3   324  38M324      0.0903
     27  C18       27.4370   -9.2580   33.1920 C.3   324  38M324      0.0045
     28  C19       26.8430   -8.0120   33.8000 C.3   324  38M324      0.0189
     29  N1        28.6570   -6.6580   32.8550 N.3   324  38M324     -0.2180
     30  C35       27.9920   -7.0720   34.1610 C.3   324  38M324      0.0887
     31  C9        25.8180   -6.0450   24.1030 C.ar  324  38M324      0.0620
     32  C10       26.9190   -6.1850   23.2330 C.ar  324  38M324      0.0154
     33  C11       27.2750   -5.1640   22.3420 C.ar  324  38M324      0.0022
     34  C12       26.5520   -3.9640   22.3130 C.ar  324  38M324      0.0115
     35  C13       25.4750   -3.8430   23.1740 C.ar  324  38M324      0.0589
     36  C14       25.0790   -4.8660   24.0640 C.ar  324  38M324      0.0267
     37 CL         24.5440   -2.3910   23.1880 Cl    324  38M324     -0.0822
@<TRIPOS>BOND
     1    34    33   ar
     2    34    35   ar
     3    33    32   ar
     4    35    37    1
     5    35    36   ar
     6    32    31   ar
     7     8     7    2
     8    36    31   ar
     9    31     9    1
    10     7     9   am
    11     7     5    1
    12     9    11    1
    13     6     5    2
    14     6     1    1
    15     5     4    1
    16    11    12    1
    17    11    10    2
    18    12    13    1
    19     1     2    1
    20     4    10    2
    21     4     3    1
    22    15    13    1
    23    15    18    1
    24    13    14    1
    25     2     3    2
    26    19    18    1
    27    19    20    1
    28    14    16    2
    29    14    17   am
    30    21    17    1
    31    21    22    1
    32    17    25    1
    33    22    23    1
    34    25    24    1
    35    23    24    1
    36    24    26    1
    37    24    27    1
    38    26    29    1
    39    29    30    1
    40    27    28    1
    41    28    30    1
