@<TRIPOS>MOLECULE
3f9p_FUC_D_1.pdb
 10 10 0 0 0
SMALL
GASTEIGER

@<TRIPOS>ATOM
      1  C1       -22.4300    9.5480  -29.4090 C.3   645  FUC645      0.1776
      2  C2       -22.8970   10.5380  -30.4790 C.3   645  FUC645      0.2141
      3  C3       -21.7960   11.5530  -30.8010 C.3   645  FUC645      0.2172
      4  C4       -20.4580   10.8630  -31.0850 C.3   645  FUC645      0.2116
      5  C5       -20.1420    9.8240  -30.0010 C.3   645  FUC645      0.1483
      6  C6       -18.8610    9.0520  -30.3020 C.3   645  FUC645      0.0349
      7  O2       -24.0560   11.2130  -30.0450 O.3   645  FUC645     -0.2176
      8  O3       -22.1750   12.3400  -31.9070 O.3   645  FUC645     -0.2175
      9  O4       -20.4960   10.2550  -32.3590 O.3   645  FUC645     -0.2177
     10  O5       -21.2300    8.9220  -29.8320 O.3   645  FUC645     -0.3508
@<TRIPOS>BOND
     1     9     4    1
     2     8     3    1
     3     4     3    1
     4     4     5    1
     5     3     2    1
     6     2     7    1
     7     2     1    1
     8     6     5    1
     9     5    10    1
    10    10     1    1
