@<TRIPOS>MOLECULE
3f9p_HEM_A_1.pdb
 43 50 0 0 0
SMALL
GASTEIGER

@<TRIPOS>ATOM
      1  CHA      -45.4380   -4.1040  -13.7970 C.2   605  HEM605      0.0000
      2  CHB      -49.1450   -4.1920  -10.6750 C.2   605  HEM605      0.0000
      3  CHC      -50.8610   -0.0600  -12.5480 C.2   605  HEM605      0.0000
      4  CHD      -47.3580   -0.1360  -15.9100 C.2   605  HEM605      0.0000
      5  C1A      -46.2470   -4.4390  -12.7330 C.2   605  HEM605      0.0000
      6  C2A      -45.9670   -5.4530  -11.7350 C.2   605  HEM605      0.0000
      7  C3A      -46.9880   -5.4760  -10.8720 C.2   605  HEM605      0.0000
      8  C4A      -47.9510   -4.4790  -11.2970 C.2   605  HEM605      0.0000
      9  CMA      -47.1280   -6.3990   -9.6380 C.3   605  HEM605      0.0000
     10  CAA      -44.7010   -6.3390  -11.6780 C.3   605  HEM605      0.0000
     11  CBA      -43.6200   -5.5610  -10.9350 C.3   605  HEM605      0.0000
     12  CGA      -42.4310   -6.4430  -10.6640 C.2   605  HEM605      0.0000
     13  O1A      -42.3580   -7.0270   -9.5530 O.co2 605  HEM605      0.0000
     14  O2A      -41.5520   -6.5560  -11.5560 O.co2 605  HEM605      0.0000
     15  C1B      -49.9770   -3.1320  -10.9620 C.ar  605  HEM605      0.0000
     16  C2B      -51.3130   -2.9330  -10.4330 C.ar  605  HEM605      0.0000
     17  C3B      -51.7920   -1.7920  -10.9480 C.ar  605  HEM605      0.0000
     18  C4B      -50.7730   -1.2290  -11.8200 C.ar  605  HEM605      0.0000
     19  CMB      -52.0370   -3.8880   -9.4500 C.3   605  HEM605      0.0000
     20  CAB      -53.1810   -1.1710  -10.6660 C.2   605  HEM605      0.0000
     21  CBB      -54.2730   -1.6260  -11.2850 C.2   605  HEM605      0.0000
     22  C1C      -50.1110    0.2500  -13.6660 C.2   605  HEM605      0.0000
     23  C2C      -50.3950    1.2830  -14.6460 C.2   605  HEM605      0.0000
     24  C3C      -49.4270    1.2620  -15.5700 C.2   605  HEM605      0.0000
     25  C4C      -48.4950    0.2100  -15.2120 C.2   605  HEM605      0.0000
     26  CMC      -51.6090    2.2370  -14.6110 C.3   605  HEM605      0.0000
     27  CAC      -49.3070    2.1720  -16.8180 C.2   605  HEM605      0.0000
     28  CBC      -49.0910    3.4870  -16.7190 C.2   605  HEM605      0.0000
     29  C1D      -46.5960   -1.2730  -15.7420 C.ar  605  HEM605      0.0000
     30  C2D      -45.6900   -1.8310  -16.7240 C.ar  605  HEM605      0.0000
     31  C3D      -45.0890   -3.0780  -16.0620 C.ar  605  HEM605      0.0000
     32  C4D      -45.6920   -3.1390  -14.7480 C.ar  605  HEM605      0.0000
     33  CMD      -45.3930   -1.2930  -18.1430 C.3   605  HEM605      0.0000
     34  CAD      -44.0580   -4.0560  -16.6720 C.3   605  HEM605      0.0000
     35  CBD      -44.7650   -5.0480  -17.5890 C.3   605  HEM605      0.0000
     36  CGD      -43.8490   -6.2000  -17.9120 C.2   605  HEM605      0.0000
     37  O1D      -42.8870   -6.0020  -18.6970 O.co2 605  HEM605      0.0000
     38  O2D      -44.0820   -7.3180  -17.3850 O.co2 605  HEM605      0.0000
     39  NA       -47.4650   -3.8590  -12.4350 N.2   605  HEM605      0.0000
     40  NB       -49.6780   -2.0740  -11.8020 N.ar  605  HEM605      0.0000
     41  NC       -48.9390   -0.3800  -14.0440 N.2   605  HEM605      0.0000
     42  ND       -46.5650   -2.0640  -14.5970 N.ar  605  HEM605      0.0000
     43 FE        -47.9150   -1.8280  -12.9580 Fe    605  HEM605      0.0000
@<TRIPOS>BOND
     1    37    36   ar
     2    33    30    1
     3    36    35    1
     4    36    38   ar
     5    35    34    1
     6    27    28    2
     7    27    24    1
     8    30    31   ar
     9    30    29   ar
    10    34    31    1
    11    31    32   ar
    12     4    29    2
    13     4    25    1
    14    29    42   ar
    15    24    25    1
    16    24    23    2
    17    25    41    2
    18    32    42   ar
    19    32     1    2
    20    23    26    1
    21    23    22    1
    22    42    43    1
    23    41    22    1
    24    41    43    1
    25     1     5    1
    26    22     3    2
    27    43    39    1
    28    43    40    1
    29     5    39    2
    30     5     6    1
    31     3    18    1
    32    39     8    1
    33    18    40   ar
    34    18    17   ar
    35    40    15   ar
    36     6    10    1
    37     6     7    2
    38    10    11    1
    39    14    12   ar
    40     8     7    1
    41     8     2    2
    42    21    20    2
    43    15     2    1
    44    15    16   ar
    45    17    20    1
    46    17    16   ar
    47    11    12    1
    48     7     9    1
    49    12    13   ar
    50    16    19    1
