@<TRIPOS>MOLECULE
3f9t_PLP_A_1.pdb
 16 16 0 0 0
SMALL
GASTEIGER

@<TRIPOS>ATOM
      1  N1        50.0480   88.9630   26.6880 N.ar  500  PLP500     -0.2452
      2  C2        49.7730   88.6930   25.3570 C.ar  500  PLP500      0.0982
      3  C2A       50.8160   88.9280   24.2980 C.3   500  PLP500      0.0555
      4  C3        48.5230   88.2010   25.0160 C.ar  500  PLP500      0.2120
      5  O3        48.2640   87.9220   23.7130 O.3   500  PLP500     -0.2852
      6  C4        47.5450   87.9510   25.9970 C.ar  500  PLP500      0.0822
      7  C4A       46.2210   87.3020   25.6230 C.2   500  PLP500      0.2372
      8  O4A       45.3800   87.9190   24.9580 O.2   500  PLP500     -0.2830
      9  C5        47.8510   88.2100   27.3410 C.ar  500  PLP500      0.0333
     10  C6        49.1040   88.6970   27.6730 C.ar  500  PLP500      0.0969
     11  C5A       46.8590   87.8870   28.4530 C.3   500  PLP500      0.1819
     12  O4P       46.5860   86.4920   28.5550 O.3   500  PLP500     -0.2653
     13  P         45.2960   85.9430   29.3530 P.3   500  PLP500      0.5329
     14  O1P       45.2180   86.6530   30.6850 O.3   500  PLP500     -0.1145
     15  O2P       45.5180   84.4130   29.3480 O.3   500  PLP500     -0.1145
     16  O3P       44.0460   86.3880   28.6200 O.2   500  PLP500     -0.2224
@<TRIPOS>BOND
     1     5     4    1
     2     3     2    1
     3     8     7    2
     4     4     2   ar
     5     4     6   ar
     6     2     1   ar
     7     7     6    1
     8     6     9   ar
     9     1    10   ar
    10     9    10   ar
    11     9    11    1
    12    11    12    1
    13    12    13    1
    14    16    13    2
    15    15    13    1
    16    13    14    1
