@<TRIPOS>MOLECULE
3f9w_SAH_A_1.pdb
 26 28 0 0 0
SMALL
GASTEIGER

@<TRIPOS>ATOM
      1  N         -2.0610    4.2330  -20.5230 N.3   801  SAH801     -0.1208
      2  CA        -1.1160    5.2560  -19.9660 C.3   801  SAH801      0.1952
      3  CB         0.2220    4.5840  -19.5780 C.3   801  SAH801      0.0422
      4  CG         0.1590    3.9540  -18.1650 C.3   801  SAH801      0.0597
      5  SD         0.1330    5.2300  -16.8580 S.3   801  SAH801     -0.1375
      6  C         -0.8490    6.3350  -21.0220 C.2   801  SAH801      0.3819
      7  O         -0.1500    7.3170  -20.7290 O.co2 801  SAH801     -0.2441
      8  OXT       -1.3270    6.2360  -22.1640 O.co2 801  SAH801     -0.2441
      9  C5'       -1.4030    4.8580  -15.9320 C.3   801  SAH801      0.0899
     10  C4'       -2.7110    5.1550  -16.6780 C.3   801  SAH801      0.1630
     11  O4'       -2.9330    4.1520  -17.6950 O.3   801  SAH801     -0.3153
     12  C3'       -3.8820    4.9250  -15.7290 C.3   801  SAH801      0.2168
     13  O3'       -4.1130    6.0550  -14.8940 O.3   801  SAH801     -0.2175
     14  C2'       -5.0300    4.7480  -16.7170 C.3   801  SAH801      0.2569
     15  O2'       -5.3220    5.9640  -17.4350 O.3   801  SAH801     -0.2130
     16  C1'       -4.3500    3.8230  -17.6850 C.3   801  SAH801      0.3185
     17  N9        -4.4860    2.4080  -17.3830 N.pl3 801  SAH801     -0.1439
     18  C8        -3.5320    1.5950  -16.9230 C.3   801  SAH801      0.3377
     19  N7        -4.0190    0.3670  -16.8360 N.2   801  SAH801     -0.2095
     20  C5        -5.2980    0.3930  -17.2360 C.2   801  SAH801      0.2526
     21  C6        -6.2990   -0.5690  -17.3680 C.2   801  SAH801      0.4393
     22  N6        -6.1010   -1.8460  -17.0520 N.pl3 801  SAH801      0.2180
     23  N1        -7.5000   -0.1740  -17.8270 N.2   801  SAH801      0.0021
     24  C2        -7.7310    1.1000  -18.1550 C.3   801  SAH801      0.5254
     25  N3        -6.8100    2.0340  -18.0550 N.2   801  SAH801     -0.0055
     26  C4        -5.5900    1.6990  -17.5920 C.2   801  SAH801      0.3518
@<TRIPOS>BOND
     1     8     6   ar
     2     6     7   ar
     3     6     2    1
     4     1     2    1
     5     2     3    1
     6     3     4    1
     7     4     5    1
     8    24    25    1
     9    24    23    1
    10    25    26    2
    11    23    21    2
    12    11    16    1
    13    11    10    1
    14    16    17    1
    15    16    14    1
    16    26    17    1
    17    26    20    1
    18    15    14    1
    19    17    18    1
    20    21    20    1
    21    21    22    1
    22    20    19    2
    23    18    19    1
    24     5     9    1
    25    14    12    1
    26    10     9    1
    27    10    12    1
    28    12    13    1
