@<TRIPOS>MOLECULE
3f9x_SAH_A_1.pdb
 26 28 0 0 0
SMALL
GASTEIGER

@<TRIPOS>ATOM
      1  N         -2.5140    4.2410  -20.5580 N.3   801  SAH801     -0.1208
      2  CA        -1.5370    5.2730  -20.0230 C.3   801  SAH801      0.1952
      3  CB        -0.2160    4.6330  -19.5730 C.3   801  SAH801      0.0422
      4  CG        -0.3240    4.0410  -18.1800 C.3   801  SAH801      0.0597
      5  SD        -0.4980    5.3770  -16.9440 S.3   801  SAH801     -0.1375
      6  C         -1.3540    6.4150  -21.0010 C.2   801  SAH801      0.3819
      7  O         -0.6400    7.3680  -20.6610 O.co2 801  SAH801     -0.2441
      8  OXT       -1.9690    6.3880  -22.0820 O.co2 801  SAH801     -0.2441
      9  C5'       -1.9030    4.8030  -15.9530 C.3   801  SAH801      0.0899
     10  C4'       -3.2540    5.1280  -16.5910 C.3   801  SAH801      0.1630
     11  O4'       -3.5170    4.2220  -17.6810 O.3   801  SAH801     -0.3153
     12  C3'       -4.4430    4.9150  -15.6680 C.3   801  SAH801      0.2168
     13  O3'       -4.6590    5.9720  -14.7550 O.3   801  SAH801     -0.2175
     14  C2'       -5.5750    4.7300  -16.6570 C.3   801  SAH801      0.2569
     15  O2'       -5.9720    5.9220  -17.3080 O.3   801  SAH801     -0.2130
     16  C1'       -4.8890    3.8640  -17.7020 C.3   801  SAH801      0.3185
     17  N9        -5.0170    2.4100  -17.4250 N.pl3 801  SAH801     -0.1439
     18  C8        -3.9930    1.6070  -16.9660 C.3   801  SAH801      0.3377
     19  N7        -4.4580    0.3500  -16.8700 N.2   801  SAH801     -0.2095
     20  C5        -5.7450    0.3210  -17.2930 C.2   801  SAH801      0.2526
     21  C6        -6.7070   -0.6890  -17.4030 C.2   801  SAH801      0.4393
     22  N6        -6.5390   -1.9700  -17.1200 N.pl3 801  SAH801      0.2180
     23  N1        -7.9510   -0.3480  -17.8540 N.2   801  SAH801      0.0021
     24  C2        -8.2810    0.9490  -18.1910 C.3   801  SAH801      0.5254
     25  N3        -7.3540    1.9560  -18.0790 N.2   801  SAH801     -0.0055
     26  C4        -6.1100    1.6340  -17.6250 C.2   801  SAH801      0.3518
@<TRIPOS>BOND
     1     8     6   ar
     2     6     7   ar
     3     6     2    1
     4     1     2    1
     5     2     3    1
     6     3     4    1
     7    24    25    1
     8    24    23    1
     9     4     5    1
    10    25    26    2
    11    23    21    2
    12    16    11    1
    13    16    17    1
    14    16    14    1
    15    11    10    1
    16    26    17    1
    17    26    20    1
    18    17    18    1
    19    21    20    1
    20    21    22    1
    21    15    14    1
    22    20    19    2
    23    18    19    1
    24     5     9    1
    25    14    12    1
    26    10     9    1
    27    10    12    1
    28    12    13    1
