@<TRIPOS>MOLECULE
3f9y_SAH_A_1.pdb
 26 28 0 0 0
SMALL
GASTEIGER

@<TRIPOS>ATOM
      1  N        -16.1290   -6.4450   11.0530 N.3   801  SAH801     -0.1208
      2  CA       -15.0010   -7.2320   11.5560 C.3   801  SAH801      0.1952
      3  CB       -15.4940   -8.6380   11.9330 C.3   801  SAH801      0.0422
      4  CG       -16.1560   -8.6300   13.3090 C.3   801  SAH801      0.0597
      5  SD       -14.8640   -8.3060   14.5740 S.3   801  SAH801     -0.1375
      6  C        -13.8850   -7.3960   10.5810 C.2   801  SAH801      0.3819
      7  O        -12.8910   -8.0540   10.9120 O.co2 801  SAH801     -0.2441
      8  OXT      -13.9270   -6.8760    9.4730 O.co2 801  SAH801     -0.2441
      9  C5'      -15.6340   -6.9700   15.6060 C.3   801  SAH801      0.0899
     10  C4'      -15.4930   -5.5730   14.9840 C.3   801  SAH801      0.1630
     11  O4'      -16.4010   -5.4660   13.9070 O.3   801  SAH801     -0.3153
     12  C3'      -15.9420   -4.4370   15.9270 C.3   801  SAH801      0.2168
     13  O3'      -14.9170   -4.1280   16.8770 O.3   801  SAH801     -0.2175
     14  C2'      -16.2310   -3.3190   14.9370 C.3   801  SAH801      0.2569
     15  O2'      -15.0080   -2.7740   14.4570 O.3   801  SAH801     -0.2130
     16  C1'      -16.9240   -4.1070   13.8510 C.3   801  SAH801      0.3185
     17  N9       -18.3180   -4.1980   14.0850 N.pl3 801  SAH801     -0.1439
     18  C8       -19.0970   -5.2600   14.5070 C.3   801  SAH801      0.3377
     19  N7       -20.3450   -5.0330   14.5630 N.2   801  SAH801     -0.2095
     20  C5       -20.4620   -3.6700   14.1460 C.2   801  SAH801      0.2526
     21  C6       -21.5950   -2.8720   14.0330 C.2   801  SAH801      0.4393
     22  N6       -22.8090   -3.1880   14.2670 N.pl3 801  SAH801      0.2180
     23  N1       -21.2870   -1.5440   13.5830 N.2   801  SAH801      0.0021
     24  C2       -20.0000   -1.2140   13.3570 C.3   801  SAH801      0.5254
     25  N3       -18.8740   -1.9170   13.4710 N.2   801  SAH801     -0.0055
     26  C4       -19.1840   -3.2120   13.8740 C.2   801  SAH801      0.3518
@<TRIPOS>BOND
     1     8     6   ar
     2     6     7   ar
     3     6     2    1
     4     1     2    1
     5     2     3    1
     6     3     4    1
     7     4     5    1
     8    24    25    1
     9    24    23    1
    10    25    26    2
    11    23    21    2
    12    16    11    1
    13    16    17    1
    14    16    14    1
    15    26    17    1
    16    26    20    1
    17    11    10    1
    18    21    20    1
    19    21    22    1
    20    17    18    1
    21    20    19    2
    22    15    14    1
    23    18    19    1
    24     5     9    1
    25    14    12    1
    26    10     9    1
    27    10    12    1
    28    12    13    1
