@<TRIPOS>MOLECULE
3f9z_SAH_A_1.pdb
 26 28 0 0 0
SMALL
GASTEIGER

@<TRIPOS>ATOM
      1  N         -2.1060    4.5340  -20.7480 N.3   801  SAH801     -0.1208
      2  CA        -1.1300    5.5200  -20.1790 C.3   801  SAH801      0.1952
      3  CB         0.2240    4.8470  -19.8180 C.3   801  SAH801      0.0422
      4  CG         0.2230    4.3960  -18.3450 C.3   801  SAH801      0.0597
      5  SD         0.0060    5.7600  -17.1530 S.3   801  SAH801     -0.1375
      6  C         -0.8780    6.6400  -21.2130 C.2   801  SAH801      0.3819
      7  O         -0.1050    7.5840  -20.9780 O.co2 801  SAH801     -0.2441
      8  OXT       -1.4790    6.5530  -22.3050 O.co2 801  SAH801     -0.2441
      9  C5'       -1.3480    5.1690  -16.1010 C.3   801  SAH801      0.0899
     10  C4'       -2.7430    5.4210  -16.7710 C.3   801  SAH801      0.1630
     11  O4'       -2.9600    4.5260  -17.8660 O.3   801  SAH801     -0.3153
     12  C3'       -3.9470    5.2890  -15.8440 C.3   801  SAH801      0.2168
     13  O3'       -4.0720    6.5410  -15.0850 O.3   801  SAH801     -0.2175
     14  C2'       -5.0840    5.1170  -16.8390 C.3   801  SAH801      0.2569
     15  O2'       -5.4040    6.3820  -17.5350 O.3   801  SAH801     -0.2130
     16  C1'       -4.3870    4.1860  -17.8250 C.3   801  SAH801      0.3185
     17  N9        -4.4710    2.7430  -17.5240 N.pl3 801  SAH801     -0.1439
     18  C8        -3.5190    1.9130  -17.0820 C.3   801  SAH801      0.3377
     19  N7        -4.0140    0.6660  -17.0090 N.2   801  SAH801     -0.2095
     20  C5        -5.3010    0.7130  -17.3930 C.2   801  SAH801      0.2526
     21  C6        -6.3020   -0.2450  -17.4670 C.2   801  SAH801      0.4393
     22  N6        -6.0420   -1.5380  -17.1750 N.pl3 801  SAH801      0.2180
     23  N1        -7.5250    0.1560  -17.8980 N.2   801  SAH801      0.0021
     24  C2        -7.7870    1.4450  -18.2180 C.3   801  SAH801      0.5254
     25  N3        -6.8490    2.3940  -18.1420 N.2   801  SAH801     -0.0055
     26  C4        -5.5950    2.0440  -17.7180 C.2   801  SAH801      0.3518
@<TRIPOS>BOND
     1     8     6   ar
     2     6     7   ar
     3     6     2    1
     4     1     2    1
     5     2     3    1
     6     3     4    1
     7     4     5    1
     8    24    25    1
     9    24    23    1
    10    25    26    2
    11    23    21    2
    12    11    16    1
    13    11    10    1
    14    16    17    1
    15    16    14    1
    16    26    17    1
    17    26    20    1
    18    15    14    1
    19    17    18    1
    20    21    20    1
    21    21    22    1
    22    20    19    2
    23     5     9    1
    24    18    19    1
    25    14    12    1
    26    10     9    1
    27    10    12    1
    28    12    13    1
