@<TRIPOS>MOLECULE
3fa3_OAF_A_1.pdb
 12 11 0 0 0
SMALL
GASTEIGER

@<TRIPOS>ATOM
      1  O2        -7.6680  -28.6810   -3.6210 O.co2 501  OAF501     -0.2370
      2  C1        -6.8040  -27.7630   -3.6480 C.2   501  OAF501      0.4536
      3  O1        -6.9010  -26.6650   -4.2560 O.co2 501  OAF501     -0.2370
      4  C2        -5.4520  -27.9950   -2.9140 C.3   501  OAF501      0.5050
      5  O4        -5.4950  -28.5130   -1.5980 O.2   501  OAF501     -0.2562
      6  O3        -4.7870  -26.7470   -2.7490 O.2   501  OAF501     -0.2562
      7  C3        -4.6720  -28.9680   -3.7850 C.3   501  OAF501      0.4401
      8  F1        -4.7570  -28.6510   -5.0480 F     501  OAF501     -0.1835
      9  F2        -5.1590  -30.1930   -3.7350 F     501  OAF501     -0.1835
     10  C4        -3.2640  -28.9780   -3.3030 C.2   501  OAF501      0.4330
     11  O5        -2.5250  -28.0400   -3.7150 O.co2 501  OAF501     -0.2393
     12  O6        -2.9780  -29.9210   -2.5240 O.co2 501  OAF501     -0.2393
@<TRIPOS>BOND
     1     8     7    1
     2     3     2   ar
     3     7     9    1
     4     7    10    1
     5     7     4    1
     6    11    10   ar
     7     2     1   ar
     8     2     4    1
     9    10    12   ar
    10     4     6    1
    11     4     5    1
