@<TRIPOS>MOLECULE
3fa6_LSR_A_1.pdb
 15 15 0 0 0
SMALL
GASTEIGER

@<TRIPOS>ATOM
      1  CAF       10.7030   -6.4930  -11.8040 C.2   138  LSR138     -0.0046
      2  CAE       10.1470   -7.6620  -12.2070 C.2   138  LSR138     -0.0221
      3  CAD        9.9320   -8.0080  -13.5110 C.3   138  LSR138      0.0440
      4  CAA       10.3570   -7.0490  -14.5970 C.3   138  LSR138      0.0094
      5  CAC        9.3250   -9.2130  -13.7850 C.2   138  LSR138     -0.0224
      6  CAB        8.8950   -9.6640  -14.9800 C.2   138  LSR138     -0.0092
      7  CAK        8.2680  -10.8560  -15.2060 C.2   138  LSR138     -0.0310
      8  CAJ        7.1780  -11.2510  -14.5140 C.2   138  LSR138     -0.0479
      9  CAI        6.6180  -10.3770  -13.4310 C.3   138  LSR138      0.0260
     10  CAN        6.4470  -12.5720  -14.7340 C.3   138  LSR138      0.0217
     11  CAO        6.6100  -13.0530  -16.1680 C.3   138  LSR138      0.0047
     12  CAP        8.0810  -13.0210  -16.5220 C.3   138  LSR138      0.0044
     13  CAL        8.7970  -11.6950  -16.3490 C.3   138  LSR138      0.0183
     14  CAH        8.6510  -10.8830  -17.6300 C.3   138  LSR138      0.0043
     15  CAM       10.2630  -12.0070  -16.1670 C.3   138  LSR138      0.0043
@<TRIPOS>BOND
     1    14    13    1
     2    12    13    1
     3    12    11    1
     4    13    15    1
     5    13     7    1
     6    11    10    1
     7     7     6    1
     8     7     8    2
     9     6     5    2
    10    10     8    1
    11     4     3    1
    12     8     9    1
    13     5     3    1
    14     3     2    1
    15     2     1    2
