@<TRIPOS>MOLECULE
3faa_55F_A_1.pdb
 27 30 0 0 0
SMALL
GASTEIGER

@<TRIPOS>ATOM
      1  C1        75.0700   22.1240   96.0950 C.ar  601  55F601      0.1195
      2  C2        74.0740   22.8710   96.7350 C.ar  601  55F601      0.1195
      3  N3        73.6510   24.0830   96.2550 N.ar  601  55F601     -0.2407
      4  C4        74.2380   24.5440   95.1160 C.ar  601  55F601      0.0989
      5  C5        75.2760   23.7680   94.4430 C.ar  601  55F601      0.0990
      6  N6        75.6780   22.5660   94.9450 N.ar  601  55F601     -0.2407
      7  C7        73.8420   25.7790   94.5770 C.ar  601  55F601      0.0207
      8  C8        74.4390   26.2720   93.3870 C.ar  601  55F601      0.0043
      9  C9        75.4570   25.5190   92.7190 C.ar  601  55F601      0.0348
     10  C10       75.8620   24.2700   93.2650 C.ar  601  55F601      0.0233
     11  C11       76.0780   26.0040   91.4940 C.2   601  55F601      0.1776
     12  C12       76.5180   27.2440   91.0120 C.2   601  55F601      0.2008
     13  N13       77.0340   27.0880   89.7450 N.2   601  55F601     -0.3217
     14  C14       76.9340   25.8290   89.4340 C.1   601  55F601      0.2274
     15  N15       76.3610   25.1360   90.4650 N.2   601  55F601     -0.3240
     16  C16       76.5020   28.5700   91.6410 C.2   601  55F601      0.1460
     17  C17       76.7760   28.7250   93.0200 C.3   601  55F601      0.0901
     18  C18       76.7570   30.0050   93.5840 C.2   601  55F601      0.0133
     19  C19       76.4690   31.1050   92.7810 C.2   601  55F601      0.1615
     20  C20       76.2090   30.9080   91.4150 C.2   601  55F601      0.1360
     21  N21       76.2210   29.6490   90.8390 N.2   601  55F601     -0.4052
     22  N22       77.3230   25.2050   88.2690 N.am  601  55F601     -0.0890
     23  C23       75.9020   32.0800   90.5300 C.3   601  55F601      0.0688
     24  F24       76.4490   32.3190   93.3170 F     601  55F601     -0.2022
     25  C25       77.7870   23.8930   88.2350 C.2   601  55F601      0.2566
     26  O26       77.9240   23.1010   89.1740 O.2   601  55F601     -0.2722
     27  C27       78.1420   23.4720   86.8300 C.3   601  55F601      0.0976
@<TRIPOS>BOND
     1    27    25    1
     2    25    22   am
     3    25    26    2
     4    22    14    1
     5    14    13    2
     6    14    15    2
     7    13    12    2
     8    15    11    2
     9    23    20    1
    10    21    20    2
    11    21    16    2
    12    12    11    1
    13    12    16    1
    14    20    19    1
    15    11     9    1
    16    16    17    1
    17     9    10   ar
    18     9     8   ar
    19    19    24    1
    20    19    18    2
    21    17    18    1
    22    10     5   ar
    23     8     7   ar
    24     5     6   ar
    25     5     4   ar
    26     7     4   ar
    27     6     1   ar
    28     4     3   ar
    29     1     2   ar
    30     3     2   ar
