@<TRIPOS>MOLECULE
3fah_PCD_A_1.pdb
 47 52 0 0 0
SMALL
GASTEIGER

@<TRIPOS>ATOM
      1  N1        -7.7860   62.1670   -3.5130 N.am  921  PCD921      0.0000
      2  C2        -8.3430   63.4660   -3.5870 C.1   921  PCD921      0.0000
      3  N3        -7.8660   64.4610   -2.7770 N.2   921  PCD921      0.0000
      4  C4        -6.8580   64.1920   -1.8940 C.2   921  PCD921      0.0000
      5  C5        -6.3060   62.9020   -1.8030 C.2   921  PCD921      0.0000
      6  C6        -6.7910   61.8950   -2.6380 C.2   921  PCD921      0.0000
      7  O2        -9.2740   63.7030   -4.3890 O.2   921  PCD921      0.0000
      8  N4        -6.3670   65.1750   -1.0920 N.pl3 921  PCD921      0.0000
      9  C1'       -8.3130   61.1100   -4.4030 C.3   921  PCD921      0.0000
     10  C2D       -7.2310   60.6540   -5.3860 C.3   921  PCD921      0.0000
     11  O2'       -7.2040   61.4150   -6.5950 O.3   921  PCD921      0.0000
     12  C3'       -7.5860   59.1930   -5.6300 C.3   921  PCD921      0.0000
     13  C4D       -8.1220   58.7650   -4.2650 C.3   921  PCD921      0.0000
     14  O4D       -8.5730   59.9570   -3.6160 O.3   921  PCD921      0.0000
     15  O3'       -8.6620   59.0980   -6.5700 O.3   921  PCD921      0.0000
     16  C5'       -7.0540   58.0990   -3.3980 C.3   921  PCD921      0.0000
     17  O5'       -5.8170   58.8500   -3.4880 O.3   921  PCD921      0.0000
     18  PA        -4.5130   58.3780   -2.7010 P.3   921  PCD921      0.0000
     19  O1A       -3.3380   59.1180   -3.2580 O.2   921  PCD921     -0.5000
     20  O2A       -4.7680   58.4600   -1.2040 O.3   921  PCD921     -0.5000
     21  O3A       -4.4500   56.7980   -2.9860 O.3   921  PCD921      0.0000
     22  PB        -3.9090   55.9780   -4.2850 P.3   921  PCD921      0.0000
     23  O1B       -2.4280   55.7710   -4.0730 O.3   921  PCD921     -0.5000
     24  O2B       -4.4450   56.5600   -5.5570 O.2   921  PCD921     -0.5000
     25  O3B       -4.6540   54.5630   -4.0910 O.3   921  PCD921      0.0000
     26  C10       -4.1460   53.6080   -3.1650 C.3   921  PCD921      0.0000
     27  C9'       -5.1220   53.4160   -1.9890 C.3   921  PCD921      0.0000
     28  C8'       -4.6560   52.1960   -1.2000 C.2   921  PCD921      0.0000
     29  S8'       -3.0290   52.0570   -0.7220 S.3   921  PCD921      0.0000
     30  C7'       -5.5340   51.2170   -0.8630 C.2   921  PCD921      0.0000
     31  S7'       -5.0100   49.7940   -0.1340 S.3   921  PCD921      0.0000
     32  C6'       -7.0280   51.3870   -1.0910 C.3   921  PCD921      0.0000
     33  C7        -7.3430   52.8510   -1.4150 C.3   921  PCD921      0.0000
     34  O9'       -6.4920   53.3400   -2.4470 O.3   921  PCD921      0.0000
     35  N5'       -7.6000   50.5110   -2.1290 N.2   921  PCD921      0.0000
     36  C4A       -8.8300   50.8320   -2.6360 C.2   921  PCD921      0.0000
     37  N8'       -8.7380   53.0830   -1.7750 N.2   921  PCD921      0.0000
     38  C4B       -9.4120   52.1680   -2.4610 C.1   921  PCD921      0.0000
     39  N1'      -10.6340   52.4650   -2.9650 N.2   921  PCD921      0.0000
     40  C2'      -11.3150   51.5750   -3.6990 C.1   921  PCD921      0.0000
     41  N2'      -12.5170   51.9490   -4.2110 N.pl3 921  PCD921      0.0000
     42  N3'      -10.8540   50.3270   -3.9100 N.2   921  PCD921      0.0000
     43  C4'       -9.6790   49.9060   -3.4440 C.1   921  PCD921      0.0000
     44  O4'       -9.2640   48.6610   -3.6810 O.2   921  PCD921      0.0000
     45 MO         -2.6710   49.7600   -0.0990 Mo    921  PCD921      0.0000
     46  OR1       -2.7450   48.5990    1.2120 O.3   921  PCD921      0.0000
     47  OM1       -2.1470   48.9450   -1.9370 O.3   921  PCD921      0.0000
@<TRIPOS>BOND
     1    11    10    1
     2    15    12    1
     3    12    10    1
     4    12    13    1
     5    24    22    2
     6    10     9    1
     7     9    14    1
     8     9     1    1
     9     7     2    2
    10    22    25    1
    11    22    23    1
    12    22    21    1
    13    13    14    1
    14    13    16    1
    15    41    40    1
    16    25    26    1
    17    42    40    2
    18    42    43    2
    19    40    39    2
    20    44    43    2
    21     2     1   am
    22     2     3    2
    23     1     6    1
    24    17    16    1
    25    17    18    1
    26    43    36    1
    27    19    18    2
    28    26    27    1
    29    21    18    1
    30    39    38    2
    31     3     4    2
    32    18    20    1
    33     6     5    2
    34    36    38    1
    35    36    35    2
    36    38    37    2
    37    34    27    1
    38    34    33    1
    39    35    32    1
    40    27    28    1
    41    47    45    1
    42     4     5    1
    43     4     8    1
    44    37    33    1
    45    33    32    1
    46    28    30    2
    47    28    29    1
    48    32    30    1
    49    30    31    1
    50    29    45    1
    51    31    45    1
    52    45    46    1
