@<TRIPOS>MOLECULE
3fal_REA_A_1.pdb
 22 22 0 0 0
SMALL
GASTEIGER

@<TRIPOS>ATOM
      1  C1        85.0760   60.0410   32.4650 C.3   501  REA501      0.0183
      2  C2        84.4570   61.3230   31.9650 C.3   501  REA501      0.0044
      3  C3        84.4000   62.3540   33.0680 C.3   501  REA501      0.0047
      4  C4        83.4520   61.8650   34.1340 C.3   501  REA501      0.0217
      5  C5        83.9180   60.5400   34.6140 C.2   501  REA501     -0.0479
      6  C6        84.6520   59.7210   33.8540 C.2   501  REA501     -0.0307
      7  C7        85.0870   58.4560   34.3620 C.2   501  REA501     -0.0052
      8  C8        85.7620   58.3500   35.5100 C.2   501  REA501     -0.0046
      9  C9        86.1950   57.0780   35.9980 C.2   501  REA501     -0.0219
     10  C10       86.9300   56.8990   37.1000 C.2   501  REA501     -0.0043
     11  C11       87.4250   57.8920   38.0070 C.2   501  REA501     -0.0006
     12  C12       88.0450   57.4520   39.1080 C.2   501  REA501     -0.0041
     13  C13       88.6170   58.2490   40.1570 C.2   501  REA501     -0.0153
     14  C14       88.9650   57.6430   41.3000 C.2   501  REA501      0.0819
     15  C15       89.5550   58.5090   42.3950 C.2   501  REA501      0.3876
     16  C16       86.5750   60.1710   32.4300 C.3   501  REA501      0.0043
     17  C17       84.6480   58.9270   31.5500 C.3   501  REA501      0.0043
     18  C18       83.5300   60.1600   35.9960 C.3   501  REA501      0.0260
     19  C19       85.7820   55.9050   35.1980 C.3   501  REA501      0.0310
     20  C20       88.7880   59.6980   39.8870 C.3   501  REA501      0.0312
     21  O1        89.5470   57.9770   43.5450 O.co2 501  REA501     -0.2406
     22  O2        89.9790   59.6440   42.0480 O.co2 501  REA501     -0.2406
@<TRIPOS>BOND
     1    17     1    1
     2     2     1    1
     3     2     3    1
     4    16     1    1
     5     1     6    1
     6     3     4    1
     7     6     7    1
     8     6     5    2
     9     4     5    1
    10     7     8    2
    11     5    18    1
    12    19     9    1
    13     8     9    1
    14     9    10    2
    15    10    11    1
    16    11    12    2
    17    12    13    1
    18    20    13    1
    19    13    14    2
    20    14    15    1
    21    22    15   ar
    22    15    21   ar
