@<TRIPOS>MOLECULE
3fal_LO2_B_1.pdb
 33 34 0 0 0
SMALL
GASTEIGER

@<TRIPOS>ATOM
      1  C1        64.7110   37.0980   23.6580 C.3     1  LO21        0.0001
      2  C2        63.5030   37.6280   24.3860 C.3     1  LO21        0.0018
      3  C3        63.4020   39.1250   24.2140 C.3     1  LO21        0.0214
      4  C4        61.9590   39.5670   24.0540 C.3     1  LO21        0.0911
      5  N5        61.9050   40.9870   24.3490 N.pl3   1  LO21       -0.3036
      6  C6        61.0470   41.4450   25.4380 C.3     1  LO21        0.1178
      7  C7        59.6200   41.5140   25.0180 C.ar    1  LO21        0.0016
      8  C8        59.3590   41.4080   23.6730 C.ar    1  LO21        0.0121
      9  C9        58.0610   41.4760   23.2480 C.ar    1  LO21        0.0943
     10 CL10       57.7150   41.3560   21.5800 Cl      1  LO21       -0.0790
     11  C11       57.0260   41.6440   24.1320 C.ar    1  LO21        0.1828
     12  O12       55.7440   41.7120   23.6110 O.3     1  LO21       -0.4675
     13  C13       54.9280   40.9180   24.4550 C.3     1  LO21        0.2527
     14  C14       57.2800   41.7480   25.4820 C.ar    1  LO21        0.1730
     15  O15       56.1990   41.9280   26.3490 O.3     1  LO21       -0.4684
     16  C16       56.5170   41.2990   27.5800 C.3     1  LO21        0.2526
     17  C17       58.5870   41.6840   25.9260 C.ar    1  LO21        0.0375
     18  C18       62.1960   41.8840   23.2770 C.ar    1  LO21        0.0481
     19  C19       62.0300   43.2470   23.4090 C.ar    1  LO21        0.0143
     20  C20       62.3170   44.1310   22.3850 C.ar    1  LO21       -0.0001
     21  C21       62.7860   43.6820   21.1710 C.ar    1  LO21        0.0216
     22  C22       62.9540   42.3210   21.0260 C.ar    1  LO21       -0.0001
     23  C23       62.6730   41.4440   22.0570 C.ar    1  LO21        0.0143
     24  C24       63.0700   44.6560   20.0540 C.3     1  LO21        0.3171
     25  O25       63.1990   45.9790   20.5740 O.3     1  LO21       -0.2033
     26  C26       64.3590   44.3730   19.3020 C.3     1  LO21        0.4344
     27  F27       64.2430   43.2940   18.4870 F       1  LO21       -0.1668
     28  F28       64.6870   45.4340   18.5120 F       1  LO21       -0.1668
     29  F29       65.3930   44.1390   20.1520 F       1  LO21       -0.1668
     30  C30       61.8800   44.6250   19.0890 C.3     1  LO21        0.4344
     31  F31       60.7630   45.1340   19.6780 F       1  LO21       -0.1668
     32  F32       62.1180   45.3420   17.9570 F       1  LO21       -0.1668
     33  F33       61.5660   43.3730   18.6590 F       1  LO21       -0.1668
@<TRIPOS>BOND
     1    32    30    1
     2    27    26    1
     3    28    26    1
     4    33    30    1
     5    30    31    1
     6    30    24    1
     7    26    24    1
     8    26    29    1
     9    24    25    1
    10    24    21    1
    11    22    21   ar
    12    22    23   ar
    13    21    20   ar
    14    10     9    1
    15    23    18   ar
    16    20    19   ar
    17     9     8   ar
    18     9    11   ar
    19    18    19   ar
    20    18     5    1
    21    12    11    1
    22    12    13    1
    23     1     2    1
    24     8     7   ar
    25     4     3    1
    26     4     5    1
    27    11    14   ar
    28     3     2    1
    29     5     6    1
    30     7     6    1
    31     7    17   ar
    32    14    17   ar
    33    14    15    1
    34    15    16    1
