@<TRIPOS>MOLECULE
3faq_HEM_A_1.pdb
 43 50 0 0 0
SMALL
GASTEIGER

@<TRIPOS>ATOM
      1  CHA      -18.3960   -0.0560   29.1900 C.2   605  HEM605      0.0000
      2  CHB      -18.2260    4.7790   29.2030 C.2   605  HEM605      0.0000
      3  CHC      -16.4410    4.3920   24.7590 C.2   605  HEM605      0.0000
      4  CHD      -16.5870   -0.3460   24.7000 C.2   605  HEM605      0.0000
      5  C1A      -18.5660    1.2470   29.6140 C.2   605  HEM605      0.0000
      6  C2A      -19.1600    1.7020   30.8790 C.2   605  HEM605      0.0000
      7  C3A      -19.1020    3.0400   30.8380 C.2   605  HEM605      0.0000
      8  C4A      -18.4700    3.4720   29.5810 C.2   605  HEM605      0.0000
      9  CMA      -19.5660    4.0190   31.9180 C.3   605  HEM605      0.0000
     10  CAA      -19.7210    0.8770   32.0750 C.3   605  HEM605      0.0000
     11  CBA      -18.6240    0.0460   32.7480 C.3   605  HEM605      0.0000
     12  CGA      -19.0860   -0.7450   33.9370 C.2   605  HEM605      0.0000
     13  O1A      -19.9050   -0.2760   34.7420 O.co2 605  HEM605      0.0000
     14  O2A      -18.6730   -1.8970   34.1020 O.co2 605  HEM605      0.0000
     15  C1B      -17.8020    5.1250   27.9720 C.2   605  HEM605      0.0000
     16  C2B      -17.7860    6.4430   27.3550 C.2   605  HEM605      0.0000
     17  C3B      -17.3250    6.2710   26.1200 C.2   605  HEM605      0.0000
     18  C4B      -17.0060    4.8610   25.9000 C.2   605  HEM605      0.0000
     19  CMB      -18.2270    7.8030   27.8690 C.3   605  HEM605      0.0000
     20  CAB      -17.1200    7.4010   25.1070 C.3   605  HEM605      0.0000
     21  CBB      -16.2420    8.3150   25.5280 C.3   605  HEM605      0.0000
     22  C1C      -16.2270    3.1040   24.3620 C.2   605  HEM605      0.0000
     23  C2C      -15.5710    2.6390   23.1240 C.2   605  HEM605      0.0000
     24  C3C      -15.6480    1.2840   23.1210 C.2   605  HEM605      0.0000
     25  C4C      -16.3070    0.9070   24.3320 C.2   605  HEM605      0.0000
     26  CMC      -14.9190    3.5680   22.0710 C.3   605  HEM605      0.0000
     27  CAC      -15.1170    0.2310   22.1500 C.2   605  HEM605      0.0000
     28  CBC      -14.7240    0.5320   20.9080 C.2   605  HEM605      0.0000
     29  C1D      -17.2170   -0.6670   25.8520 C.2   605  HEM605      0.0000
     30  C2D      -17.7500   -1.9590   26.0710 C.2   605  HEM605      0.0000
     31  C3D      -18.3200   -1.9280   27.4640 C.2   605  HEM605      0.0000
     32  C4D      -18.0380   -0.5610   27.9340 C.2   605  HEM605      0.0000
     33  CMD      -17.6940   -3.1330   25.0980 C.3   605  HEM605      0.0000
     34  CAD      -19.0240   -3.1330   28.1860 C.3   605  HEM605      0.0000
     35  CBD      -20.5070   -3.2100   27.8530 C.3   605  HEM605      0.0000
     36  CGD      -21.2130   -4.2680   28.6530 C.2   605  HEM605      0.0000
     37  O1D      -21.2730   -5.4370   28.2190 O.co2 605  HEM605      0.0000
     38  O2D      -21.7570   -3.9650   29.7250 O.co2 605  HEM605      0.0000
     39  NA       -18.1690    2.3450   28.8450 N.2   605  HEM605      0.0000
     40  NB       -17.3050    4.1740   27.0690 N.pl3 605  HEM605      0.0000
     41  NC       -16.6550    2.0020   25.0840 N.2   605  HEM605      0.0000
     42  ND       -17.3980    0.1410   26.9370 N.pl3 605  HEM605      0.0000
     43 FE        -17.3130    2.1790   27.0490 Fe    605  HEM605      0.0000
@<TRIPOS>UNITY_ATOM_ATTR
1 1
charge 6
2 1
charge 6
3 1
charge 6
4 1
charge 6
5 1
charge 6
6 1
charge 6
7 1
charge 6
8 1
charge 6
9 1
charge 6
10 1
charge 6
11 1
charge 6
12 1
charge 6
13 1
charge 6
14 1
charge 6
15 1
charge 6
16 1
charge 6
17 1
charge 6
18 1
charge 6
19 1
charge 6
20 1
charge 6
21 1
charge 6
22 1
charge 6
23 1
charge 6
24 1
charge 6
25 1
charge 6
26 1
charge 6
27 1
charge 6
28 1
charge 6
29 1
charge 6
30 1
charge 6
31 1
charge 6
32 1
charge 6
33 1
charge 6
34 1
charge 6
35 1
charge 6
36 1
charge 6
37 1
charge 6
38 1
charge 6
39 1
charge 6
40 1
charge 6
41 1
charge 6
42 1
charge 6
43 1
charge 6
@<TRIPOS>BOND
     1    28    27    2
     2    26    23    1
     3    27    24    1
     4    24    23    2
     5    24    25    1
     6    23    22    1
     7    25     4    1
     8    25    41    2
     9    22     3    2
    10    22    41    1
    11     4    29    2
    12     3    18    1
    13    41    43    1
    14    33    30    1
    15    20    21    1
    16    20    17    1
    17    29    30    1
    18    29    42    1
    19    18    17    2
    20    18    40    1
    21    30    31    2
    22    17    16    1
    23    42    43    1
    24    42    32    1
    25    43    40    1
    26    43    39    1
    27    40    15    1
    28    16    19    1
    29    16    15    2
    30    31    32    1
    31    31    34    1
    32    35    34    1
    33    35    36    1
    34    32     1    2
    35    15     2    1
    36    37    36   ar
    37    36    38   ar
    38    39     8    1
    39    39     5    2
    40     1     5    1
    41     2     8    2
    42     8     7    1
    43     5     6    1
    44     7     6    2
    45     7     9    1
    46     6    10    1
    47    10    11    1
    48    11    12    1
    49    12    14   ar
    50    12    13   ar
