@<TRIPOS>MOLECULE
3fas_GLU_A_1.pdb
 10 9 0 0 0
SMALL
GASTEIGER

@<TRIPOS>ATOM
      1  N         19.1270   16.3160   33.8520 N.3   270  GLU270     -0.1208
      2  CA        19.3750   15.6470   32.5330 C.3   270  GLU270      0.1949
      3  C         20.8570   15.4350   32.3140 C.2   270  GLU270      0.3819
      4  O         21.2360   14.8960   31.2680 O.co2 270  GLU270     -0.2441
      5  CB        18.7890   16.4530   31.3700 C.3   270  GLU270      0.0424
      6  CG        17.2920   16.2760   31.1750 C.3   270  GLU270      0.1161
      7  CD        16.8550   14.9080   30.6570 C.2   270  GLU270      0.3649
      8  OE1       15.6330   14.6240   30.7910 O.co2 270  GLU270     -0.2457
      9  OE2       17.6820   14.1160   30.1170 O.co2 270  GLU270     -0.2457
     10  OXT       21.6510   15.8040   33.1890 O.co2 270  GLU270     -0.2441
@<TRIPOS>BOND
     1     9     7   ar
     2     7     8   ar
     3     7     6    1
     4     6     5    1
     5     4     3   ar
     6     5     2    1
     7     3     2    1
     8     3    10   ar
     9     2     1    1
