@<TRIPOS>MOLECULE
3fat_AMQ_A_1.pdb
 13 13 0 0 0
SMALL
GASTEIGER

@<TRIPOS>ATOM
      1  N         11.8850   49.7560   20.0440 N.3   427  AMQ427     -0.1204
      2  CA        12.3460   51.0730   20.5210 C.3   427  AMQ427      0.1995
      3  C         13.2510   50.8730   21.7330 C.2   427  AMQ427      0.3822
      4  OT1       13.7100   51.9090   22.2670 O.co2 427  AMQ427     -0.2440
      5  OT2       13.5060   49.6970   22.0790 O.co2 427  AMQ427     -0.2440
      6  CB        11.1220   51.9450   20.8920 C.3   427  AMQ427      0.0718
      7  CG        10.2720   52.2340   19.6490 C.2   427  AMQ427      0.0985
      8  CD1       10.4890   53.2840   18.7620 C.1   427  AMQ427      0.1879
      9  CD2        9.1610   51.5580   19.1560 C.2   427  AMQ427      0.1611
     10  CE2        8.5040   50.3170   19.7590 C.3   427  AMQ427      0.0758
     11  OE1       11.4920   54.2050   18.8710 O.2   427  AMQ427     -0.2193
     12  NE1        9.5960   53.2650   17.7810 N.2   427  AMQ427     -0.0008
     13  OE2        8.7320   52.1650   18.0160 O.2   427  AMQ427     -0.3482
@<TRIPOS>BOND
     1    12    13    1
     2    12     8    2
     3    13     9    1
     4     8    11    2
     5     8     7    1
     6     9     7    2
     7     9    10    1
     8     7     6    1
     9     1     2    1
    10     2     6    1
    11     2     3    1
    12     3     5   ar
    13     3     4   ar
