@<TRIPOS>MOLECULE
3fax_GLC_A_1.pdb
 11 11 0 0 0
SMALL
GASTEIGER

@<TRIPOS>ATOM
      1  C1        20.4600   60.6450    4.1390 C.3     2  GLC2        0.1777
      2  C2        21.7780   59.8970    3.9610 C.3     2  GLC2        0.2141
      3  C3        21.7130   58.5330    4.6200 C.3     2  GLC2        0.2173
      4  C4        21.2680   58.6830    6.0620 C.3     2  GLC2        0.2142
      5  C5        19.9370   59.4190    6.1150 C.3     2  GLC2        0.1810
      6  C6        19.4680   59.5570    7.5620 C.3     2  GLC2        0.2141
      7  O2        22.0660   59.7080    2.5970 O.3     2  GLC2       -0.2176
      8  O3        22.9760   57.9140    4.5770 O.3     2  GLC2       -0.2175
      9  O4        21.1160   57.3930    6.6010 O.3     2  GLC2       -0.2176
     10  O5        20.0940   60.6880    5.5090 O.3     2  GLC2       -0.3481
     11  O6        18.5230   60.5910    7.6760 O.3     2  GLC2       -0.2176
@<TRIPOS>BOND
     1     7     2    1
     2     2     1    1
     3     2     3    1
     4     1    10    1
     5     8     3    1
     6     3     4    1
     7    10     5    1
     8     4     5    1
     9     4     9    1
    10     5     6    1
    11     6    11    1
