@<TRIPOS>MOLECULE
3fax_BGC_A_1.pdb
 12 12 0 0 0
SMALL
GASTEIGER

@<TRIPOS>ATOM
      1  C2        17.5550   62.3080    1.0720 C.3     1  BGC1        0.2434
      2  C3        18.7800   61.5380    1.5600 C.3     1  BGC1        0.2199
      3  C4        18.4230   60.8520    2.8800 C.3     1  BGC1        0.2144
      4  C5        17.1440   60.0080    2.6920 C.3     1  BGC1        0.1836
      5  C6        16.6600   59.3560    3.9880 C.3     1  BGC1        0.2142
      6  C1        16.4510   61.2790    0.8280 C.3     1  BGC1        0.3024
      7  O1        15.3390   61.8620    0.1910 O.3     1  BGC1       -0.1869
      8  O2        17.8450   63.0770   -0.0780 O.3     1  BGC1       -0.2148
      9  O3        19.8840   62.4020    1.6910 O.3     1  BGC1       -0.2174
     10  O4        19.4780   60.0020    3.2960 O.3     1  BGC1       -0.2176
     11  O5        16.0890   60.7560    2.0960 O.3     1  BGC1       -0.3236
     12  O6        16.9690   57.9740    3.9440 O.3     1  BGC1       -0.2176
@<TRIPOS>BOND
     1     8     1    1
     2     7     6    1
     3     6     1    1
     4     6    11    1
     5     1     2    1
     6     2     9    1
     7     2     3    1
     8    11     4    1
     9     4     3    1
    10     4     5    1
    11     3    10    1
    12    12     5    1
