@<TRIPOS>MOLECULE
3faz_NOS_A_1.pdb
 19 21 0 0 0
SMALL
GASTEIGER

@<TRIPOS>ATOM
      1  N9        -5.6000    1.2050   29.1310 N.pl3 301  NOS301     -0.1435
      2  C4        -6.2900    2.3400   29.5490 C.2   301  NOS301      0.3528
      3  N3        -6.0120    3.6720   29.4180 N.2   301  NOS301     -0.0334
      4  C2        -6.9500    4.4630   29.9660 C.3   301  NOS301      0.4017
      5  N1        -8.1020    4.1200   30.5990 N.2   301  NOS301     -0.1458
      6  C6        -8.3560    2.7950   30.7220 C.1   301  NOS301      0.1792
      7  O6        -9.4860    2.3480   31.3120 O.2   301  NOS301     -0.2203
      8  C5        -7.4840    1.8190   30.2050 C.2   301  NOS301      0.2446
      9  N7        -7.4930    0.4220   30.1770 N.2   301  NOS301     -0.2054
     10  C8        -6.3690    0.0900   29.5440 C.3   301  NOS301      0.3382
     11  C5'       -3.1860    1.0930   31.4400 C.3   301  NOS301      0.2143
     12  O5'       -3.7940   -0.0690   31.9820 O.3   301  NOS301     -0.2176
     13  C4'       -2.5390    0.7370   30.1050 C.3   301  NOS301      0.1851
     14  O4'       -3.5150    0.1270   29.2750 O.3   301  NOS301     -0.3134
     15  C1'       -4.2720    1.1440   28.5900 C.3   301  NOS301      0.3186
     16  C2'       -3.4600    2.4910   28.6500 C.3   301  NOS301      0.2570
     17  O2'       -3.2080    3.0180   27.3690 O.3   301  NOS301     -0.2130
     18  C3'       -2.1980    2.1040   29.4500 C.3   301  NOS301      0.2186
     19  O3'       -1.0050    2.0350   28.6980 O.3   301  NOS301     -0.2174
@<TRIPOS>BOND
     1    17    16    1
     2    15    16    1
     3    15     1    1
     4    15    14    1
     5    16    18    1
     6    19    18    1
     7     1    10    1
     8     1     2    1
     9    14    13    1
    10     3     2    2
    11     3     4    1
    12    18    13    1
    13    10     9    1
    14     2     8    1
    15     4     5    1
    16    13    11    1
    17     9     8    2
    18     8     6    1
    19     5     6    2
    20     6     7    2
    21    11    12    1
