@<TRIPOS>MOLECULE
3fb1_R1P_A_1.pdb
 14 14 0 0 0
SMALL
GASTEIGER

@<TRIPOS>ATOM
      1  C5'       21.0700    1.2040   30.7460 C.3   301  R1P301      0.2142
      2  O5'       20.4750    0.1030   31.3300 O.3   301  R1P301     -0.2176
      3  C4'       22.1890    0.8530   29.7760 C.3   301  R1P301      0.1836
      4  O4'       21.7110    0.0740   28.7440 O.3   301  R1P301     -0.3253
      5  C1'       21.7440    0.7590   27.5200 C.3   301  R1P301      0.2781
      6  C2'       21.9770    2.2030   27.9110 C.3   301  R1P301      0.2409
      7  O2'       22.6660    2.8740   26.9120 O.3   301  R1P301     -0.2149
      8  C3'       22.8100    2.0740   29.1350 C.3   301  R1P301      0.2168
      9  O3'       24.0680    1.7710   28.7420 O.3   301  R1P301     -0.2175
     10  O1'       22.7300    0.1840   26.6840 O.3   301  R1P301     -0.2416
     11  P         22.7120    0.1360   25.2750 P.3   301  R1P301      0.5346
     12  O1P       23.9800    0.0920   24.7840 O.2   301  R1P301     -0.2223
     13  O2P       22.0510   -0.9320   24.9440 O.3   301  R1P301     -0.1145
     14  O3P       22.0490    1.1840   24.8420 O.3   301  R1P301     -0.1145
@<TRIPOS>BOND
     1    12    11    2
     2    14    11    1
     3    13    11    1
     4    11    10    1
     5    10     5    1
     6     7     6    1
     7     5     6    1
     8     5     4    1
     9     6     8    1
    10     9     8    1
    11     4     3    1
    12     8     3    1
    13     3     1    1
    14     1     2    1
