@<TRIPOS>MOLECULE
3fba_C6B_A_1.pdb
 21 22 0 0 0
SMALL
GASTEIGER

@<TRIPOS>ATOM
      1  O1P       94.8290   44.5740  139.6830 O.3   901  C6B901     -0.1145
      2  P         94.4040   46.1830  139.6180 P.3   901  C6B901      0.5327
      3  O2P       92.9760   46.3140  140.4880 O.3   901  C6B901     -0.1145
      4  O3P       94.3140   46.7270  138.2030 O.2   901  C6B901     -0.2224
      5  O3'       95.5300   46.9600  140.5750 O.3   901  C6B901     -0.2674
      6  C3'       96.8430   47.0390  140.0090 C.3   901  C6B901      0.1903
      7  C2'       97.2950   48.4850  139.7700 C.3   901  C6B901      0.2293
      8  O2'       97.3410   49.2710  140.9760 O.3   901  C6B901     -0.2158
      9  C4'       98.0160   46.3640  140.8180 C.3   901  C6B901      0.1802
     10  C5'       97.9270   46.2770  142.3660 C.3   901  C6B901      0.2141
     11  O5'       98.2770   44.9560  142.8140 O.3   901  C6B901     -0.2176
     12  O4'       99.1460   47.2590  140.5220 O.3   901  C6B901     -0.3320
     13  C1'       98.6530   47.9530  139.3140 C.3   901  C6B901      0.2399
     14  N1        99.6320   48.6890  138.4820 N.am  901  C6B901     -0.1778
     15  C6        99.5000   48.4820  137.1020 C.2   901  C6B901      0.0836
     16  C5       100.3790   49.1010  136.2330 C.2   901  C6B901      0.0687
     17  C4       101.3760   49.9000  136.7620 C.2   901  C6B901      0.2346
     18  N4       102.2080   50.4770  135.9050 N.pl3 901  C6B901     -0.0921
     19  N3       101.4880   50.0800  138.1030 N.2   901  C6B901     -0.3024
     20  C2       100.6550   49.4970  138.9960 C.1   901  C6B901      0.2756
     21  O2       100.7790   49.6730  140.2160 O.2   901  C6B901     -0.1925
@<TRIPOS>BOND
     1    18    17    1
     2    16    17    1
     3    16    15    2
     4    17    19    2
     5    15    14    1
     6    19    20    2
     7     4     2    2
     8    14    20   am
     9    14    13    1
    10    20    21    2
    11    13     7    1
    12    13    12    1
    13     2     1    1
    14     2     3    1
    15     2     5    1
    16     7     6    1
    17     7     8    1
    18     6     5    1
    19     6     9    1
    20    12     9    1
    21     9    10    1
    22    10    11    1
