@<TRIPOS>MOLECULE
3fba_GPP_A_1.pdb
 19 18 0 0 0
SMALL
GASTEIGER

@<TRIPOS>ATOM
      1  C1        95.4040   48.9080  122.3340 C.3   903  GPP903      0.1747
      2  O1        96.3500   49.1730  121.2820 O.3   903  GPP903     -0.3089
      3  C2        95.0410   50.0460  123.0460 C.2   903  GPP903     -0.0024
      4  C3        95.2500   50.2310  124.3990 C.2   903  GPP903     -0.0454
      5  C4        95.9320   49.1320  125.2010 C.3   903  GPP903      0.0261
      6  C5        94.7990   51.5170  125.0690 C.3   903  GPP903      0.0264
      7  C6        93.6960   51.1980  126.0700 C.3   903  GPP903      0.0297
      8  C7        92.6370   52.1000  125.9880 C.2   903  GPP903     -0.0342
      9  C8        91.4480   51.9740  125.2700 C.2   903  GPP903     -0.0478
     10  C9        91.1700   50.7220  124.4090 C.3   903  GPP903      0.0260
     11  C10       90.4190   53.1090  125.3400 C.3   903  GPP903      0.0260
     12  PA        95.9100   49.0430  119.7000 P.3   903  GPP903      0.2233
     13  O1A       94.5800   48.1460  119.5700 O.3   903  GPP903     -0.4370
     14  O2A       95.4770   50.5600  119.2240 O.2   903  GPP903     -0.5169
     15  O3A       97.1130   48.4420  118.8020 O.3   903  GPP903     -0.2261
     16  PB        97.2800   46.8750  118.4760 P.3   903  GPP903      0.5373
     17  O1B       96.3850   46.3770  117.4140 O.2   903  GPP903     -0.2221
     18  O2B       98.8340   46.7490  118.0880 O.3   903  GPP903     -0.1143
     19  O3B       97.1350   46.0810  119.8670 O.3   903  GPP903     -0.1143
@<TRIPOS>BOND
     1    17    16    2
     2    18    16    1
     3    16    15    1
     4    16    19    1
     5    15    12    1
     6    14    12    2
     7    13    12    1
     8    12     2    1
     9     2     1    1
    10     1     3    1
    11     3     4    2
    12     4     6    1
    13     4     5    1
    14    10     9    1
    15     6     7    1
    16     9    11    1
    17     9     8    2
    18     8     7    1
