@<TRIPOS>MOLECULE
3fbb_UDP_A_1.pdb
 25 26 0 0 0
SMALL
GASTEIGER

@<TRIPOS>ATOM
      1  N1       -16.2640   14.4350   15.4290 N.am  201  UDP201     -0.1766
      2  C2       -17.3330   14.5370   14.5370 C.1   201  UDP201      0.2845
      3  N3       -17.7630   15.7750   14.0970 N.2   201  UDP201     -0.2452
      4  C4       -17.1160   16.9070   14.5520 C.1   201  UDP201      0.2182
      5  C5       -16.0360   16.8120   15.4370 C.2   201  UDP201      0.1242
      6  C6       -15.5540   15.5570   15.7930 C.2   201  UDP201      0.0929
      7  O2       -17.9250   13.5320   14.1290 O.2   201  UDP201     -0.1918
      8  O4       -17.5000   18.0040   14.1510 O.2   201  UDP201     -0.2085
      9  C1'      -15.8290   13.0890   15.8770 C.3   201  UDP201      0.2401
     10  C2'      -14.5520   12.7010   15.1360 C.3   201  UDP201      0.2319
     11  O2'      -14.6340   11.3550   14.7360 O.3   201  UDP201     -0.2157
     12  C3'      -13.4610   12.8940   16.1640 C.3   201  UDP201      0.2158
     13  C4'      -14.1880   12.7190   17.4970 C.3   201  UDP201      0.1799
     14  O4'      -15.5430   13.0580   17.2680 O.3   201  UDP201     -0.3320
     15  O3'      -12.4170   11.9580   16.0070 O.3   201  UDP201     -0.2175
     16  C5'      -13.6130   13.6140   18.5890 C.3   201  UDP201      0.1813
     17  O5'      -13.5690   14.9390   18.1150 O.3   201  UDP201     -0.3111
     18  PA       -12.1780   15.7440   18.1760 P.3   201  UDP201      0.2231
     19  O1A      -11.6360   15.7460   19.5650 O.3   201  UDP201     -0.4370
     20  O2A      -12.3730   17.0950   17.5850 O.2   201  UDP201     -0.5169
     21  O3A      -11.2330   14.8770   17.1760 O.3   201  UDP201     -0.2261
     22  PB        -9.9110   14.0360   17.6050 P.3   201  UDP201      0.5373
     23  O1B       -8.7870   14.4560   16.7460 O.2   201  UDP201     -0.2221
     24  O2B      -10.2580   12.5990   17.4770 O.3   201  UDP201     -0.1143
     25  O3B       -9.5100   14.2790   19.0100 O.3   201  UDP201     -0.1143
@<TRIPOS>BOND
     1     3     2    2
     2     3     4    2
     3     7     2    2
     4     8     4    2
     5     2     1   am
     6     4     5    1
     7    11    10    1
     8    10     9    1
     9    10    12    1
    10     1     6    1
    11     1     9    1
    12     5     6    2
    13     9    14    1
    14    15    12    1
    15    12    13    1
    16    23    22    2
    17    21    22    1
    18    21    18    1
    19    14    13    1
    20    24    22    1
    21    13    16    1
    22    20    18    2
    23    22    25    1
    24    17    18    1
    25    17    16    1
    26    18    19    1
