@<TRIPOS>MOLECULE
3fbc_TYD_A_1.pdb
 25 26 0 0 0
SMALL
GASTEIGER

@<TRIPOS>ATOM
      1  PA       -12.0010   15.7460   17.8000 P.3   138  TYD138      0.2231
      2  O1A      -11.7110   15.9160   19.2770 O.3   138  TYD138     -0.4370
      3  O2A      -12.0510   16.9560   16.8870 O.2   138  TYD138     -0.5169
      4  O3A      -10.9490   14.6960   17.1420 O.3   138  TYD138     -0.2261
      5  PB       -10.0050   13.6360   17.9390 P.3   138  TYD138      0.5373
      6  O1B      -10.4500   12.2800   17.4200 O.2   138  TYD138     -0.2221
      7  O2B      -10.2460   13.7820   19.4310 O.3   138  TYD138     -0.1143
      8  O3B       -8.6410   14.1000   17.4850 O.3   138  TYD138     -0.1143
      9  O5'      -13.3980   14.9570   17.6240 O.3   138  TYD138     -0.3111
     10  C5'      -13.6990   13.7760   18.3760 C.3   138  TYD138      0.1812
     11  C4'      -14.3170   12.7420   17.4310 C.3   138  TYD138      0.1773
     12  O4'      -15.6870   13.0910   17.1700 O.3   138  TYD138     -0.3339
     13  C3'      -13.5820   12.7320   16.0900 C.3   138  TYD138      0.1857
     14  O3'      -12.6630   11.6360   15.9930 O.3   138  TYD138     -0.2203
     15  C2'      -14.6830   12.6700   15.0410 C.3   138  TYD138      0.0874
     16  C1'      -15.9000   13.2660   15.7590 C.3   138  TYD138      0.2090
     17  N1       -16.1080   14.6990   15.4370 N.am  138  TYD138     -0.1794
     18  C2       -17.0520   15.0840   14.4450 C.1   138  TYD138      0.2844
     19  O2       -17.6990   14.2010   13.8340 O.2   138  TYD138     -0.1918
     20  N3       -17.2620   16.3790   14.1430 N.2   138  TYD138     -0.2455
     21  C4       -16.5900   17.3540   14.7720 C.1   138  TYD138      0.2134
     22  O4       -16.7930   18.5550   14.4800 O.2   138  TYD138     -0.2088
     23  C5       -15.6000   16.9870   15.8180 C.2   138  TYD138      0.0891
     24  C5M      -14.8170   18.0460   16.5580 C.3   138  TYD138      0.0462
     25  C6       -15.4190   15.6400   16.1060 C.2   138  TYD138      0.0877
@<TRIPOS>BOND
     1    19    18    2
     2    20    18    2
     3    20    21    2
     4    18    17   am
     5    22    21    2
     6    21    23    1
     7    15    16    1
     8    15    13    1
     9    17    16    1
    10    17    25    1
    11    16    12    1
    12    23    25    2
    13    23    24    1
    14    14    13    1
    15    13    11    1
    16     3     1    2
    17     4     1    1
    18     4     5    1
    19    12    11    1
    20     6     5    2
    21    11    10    1
    22     8     5    1
    23     9     1    1
    24     9    10    1
    25     1     2    1
    26     5     7    1
