@<TRIPOS>MOLECULE
3fbe_GDP_A_1.pdb
 28 30 0 0 0
SMALL
GASTEIGER

@<TRIPOS>ATOM
      1  PB        -9.7490   13.2660   18.2770 P.3   138  GDP138      0.5373
      2  O1B      -10.6570   12.6290   17.2550 O.2   138  GDP138     -0.2221
      3  O2B       -8.6250   12.3070   18.5880 O.3   138  GDP138     -0.1143
      4  O3B       -9.2170   14.5600   17.7020 O.3   138  GDP138     -0.1143
      5  O3A      -10.5640   13.5300   19.6490 O.3   138  GDP138     -0.2261
      6  PA       -11.5480   14.8030   19.8040 P.3   138  GDP138      0.2231
      7  O1A      -10.8350   16.0190   20.3550 O.2   138  GDP138     -0.5169
      8  O2A      -12.7350   14.4260   20.6540 O.3   138  GDP138     -0.4370
      9  O5'      -12.0190   14.9870   18.2790 O.3   138  GDP138     -0.3111
     10  C5'      -13.3800   14.7670   17.9650 C.3   138  GDP138      0.1813
     11  C4'      -13.6290   13.2870   17.6860 C.3   138  GDP138      0.1799
     12  O4'      -15.0190   13.0830   17.9260 O.3   138  GDP138     -0.3326
     13  C3'      -13.3640   12.8960   16.2350 C.3   138  GDP138      0.2158
     14  O3'      -12.5390   11.7350   16.1520 O.3   138  GDP138     -0.2175
     15  C2'      -14.7030   12.5440   15.6330 C.3   138  GDP138      0.2310
     16  O2'      -14.7820   11.1330   15.4020 O.3   138  GDP138     -0.2158
     17  C1'      -15.7030   12.9840   16.6800 C.3   138  GDP138      0.2293
     18  N9       -16.1470   14.3220   16.2290 N.pl3 138  GDP138     -0.2354
     19  C8       -15.6850   15.5260   16.6230 C.3   138  GDP138      0.2246
     20  N7       -16.3130   16.5370   15.9720 N.2   138  GDP138     -0.2322
     21  C5       -17.1960   15.9660   15.1290 C.2   138  GDP138      0.2182
     22  C6       -18.1950   16.4260   14.1380 C.1   138  GDP138      0.2372
     23  O6       -18.3620   17.6490   13.9360 O.2   138  GDP138     -0.2069
     24  N1       -18.9080   15.4950   13.4700 N.2   138  GDP138     -0.2485
     25  C2       -18.7510   14.1670   13.6690 C.1   138  GDP138      0.2531
     26  N2       -19.5040   13.2830   12.9620 N.pl3 138  GDP138     -0.0226
     27  N3       -17.8540   13.6800   14.5630 N.2   138  GDP138     -0.3074
     28  C4       -17.0740   14.5110   15.2980 C.2   138  GDP138      0.2300
@<TRIPOS>BOND
     1    26    25    1
     2    24    25    2
     3    24    22    2
     4    25    27    2
     5    23    22    2
     6    22    21    1
     7    27    28    2
     8    21    28    1
     9    21    20    2
    10    28    18    1
    11    16    15    1
    12    15    13    1
    13    15    17    1
    14    20    19    1
    15    14    13    1
    16    18    19    1
    17    18    17    1
    18    13    11    1
    19    17    12    1
    20     2     1    2
    21    11    12    1
    22    11    10    1
    23     4     1    1
    24    10     9    1
    25     1     3    1
    26     1     5    1
    27     9     6    1
    28     5     6    1
    29     6     7    2
    30     6     8    1
