@<TRIPOS>MOLECULE
3fbf_TYD_A_1.pdb
 25 26 0 0 0
SMALL
GASTEIGER

@<TRIPOS>ATOM
      1  PA       -11.8350   15.9970   18.0580 P.3   138  TYD138      0.2231
      2  O1A      -11.3480   15.8630   19.4850 O.3   138  TYD138     -0.4370
      3  O2A      -12.1250   17.3650   17.4720 O.2   138  TYD138     -0.5169
      4  O3A      -10.8440   15.2180   17.0340 O.3   138  TYD138     -0.2261
      5  PB        -9.7170   14.1480   17.4930 P.3   138  TYD138      0.5373
      6  O1B      -10.3070   12.7780   17.2280 O.3   138  TYD138     -0.1143
      7  O2B       -9.4570   14.4110   18.9560 O.3   138  TYD138     -0.1143
      8  O3B       -8.5670   14.5300   16.5950 O.2   138  TYD138     -0.2221
      9  O5'      -13.1680   15.1220   17.8670 O.3   138  TYD138     -0.3111
     10  C5'      -13.2620   13.8290   18.4500 C.3   138  TYD138      0.1812
     11  C4'      -13.9710   12.9820   17.4110 C.3   138  TYD138      0.1773
     12  O4'      -15.2750   13.5320   17.1870 O.3   138  TYD138     -0.3339
     13  C3'      -13.2410   13.0520   16.0790 C.3   138  TYD138      0.1857
     14  O3'      -12.3750   11.9280   15.9160 O.3   138  TYD138     -0.2203
     15  C2'      -14.3430   13.0420   15.0360 C.3   138  TYD138      0.0874
     16  C1'      -15.5760   13.5390   15.7870 C.3   138  TYD138      0.2090
     17  N1       -15.9420   14.8790   15.3120 N.am  138  TYD138     -0.1794
     18  C2       -17.0390   14.9710   14.4320 C.1   138  TYD138      0.2844
     19  O2       -17.6480   13.9290   14.0960 O.2   138  TYD138     -0.1918
     20  N3       -17.4530   16.1490   13.9460 N.2   138  TYD138     -0.2455
     21  C4       -16.8320   17.2800   14.2850 C.1   138  TYD138      0.2134
     22  O4       -17.2300   18.3750   13.8230 O.2   138  TYD138     -0.2088
     23  C5       -15.6730   17.2180   15.2110 C.2   138  TYD138      0.0891
     24  C5M      -14.9650   18.4940   15.5960 C.3   138  TYD138      0.0462
     25  C6       -15.2770   15.9750   15.7030 C.2   138  TYD138      0.0877
@<TRIPOS>BOND
     1    22    21    2
     2    20    21    2
     3    20    18    2
     4    19    18    2
     5    21    23    1
     6    18    17   am
     7    15    16    1
     8    15    13    1
     9    23    24    1
    10    23    25    2
    11    17    25    1
    12    17    16    1
    13    16    12    1
    14    14    13    1
    15    13    11    1
    16     8     5    2
    17     4     5    1
    18     4     1    1
    19    12    11    1
    20     6     5    1
    21    11    10    1
    22     3     1    2
    23     5     7    1
    24     9     1    1
    25     9    10    1
    26     1     2    1
