@<TRIPOS>MOLECULE
3fbp_FDP_A_1.pdb
 22 22 0 0 0
SMALL
GASTEIGER

@<TRIPOS>ATOM
      1  P1        39.1310   88.9630   27.4490 P.3   336  FDP336      0.5345
      2  O1P       39.8890   90.1670   27.9770 O.3   336  FDP336     -0.1145
      3  O2P       40.1510   87.9600   26.9580 O.2   336  FDP336     -0.2223
      4  O3P       38.2890   88.3290   28.5390 O.3   336  FDP336     -0.1145
      5  O1        37.5960   92.9050   26.7480 O.3   336  FDP336     -0.2149
      6  C1        38.2490   91.8250   26.0350 C.3   336  FDP336      0.2409
      7  C2        37.3940   90.5430   26.0420 C.3   336  FDP336      0.2551
      8  O2        38.2080   89.3540   26.2070 O.3   336  FDP336     -0.2441
      9  C3        36.6180   90.4870   24.7050 C.3   336  FDP336      0.1945
     10  O3        36.4540   89.1480   24.2860 O.3   336  FDP336     -0.3776
     11  C4        35.3210   91.2440   24.9970 C.3   336  FDP336      0.1718
     12  O4        35.3160   92.5900   24.5790 O.3   336  FDP336     -0.3794
     13  C5        35.1010   91.0630   26.5160 C.3   336  FDP336      0.1770
     14  O5        36.3580   90.5970   27.0520 O.3   336  FDP336     -0.3273
     15  C6        34.0100   90.1150   26.9290 C.3   336  FDP336      0.1858
     16  O6        34.0340   90.1390   28.3910 O.3   336  FDP336     -0.2675
     17  P2        33.2340   89.1330   29.3550 P.3   336  FDP336      0.5327
     18  O4P       34.0380   88.8170   30.5910 O.3   336  FDP336     -0.1145
     19  O5P       32.9070   87.8240   28.6710 O.2   336  FDP336     -0.2224
     20  O6P       31.9740   89.7730   29.8740 O.3   336  FDP336     -0.1145
     21  HO3       37.0780   88.6410   24.8510 H     336  FDP336      0.2106
     22  HO4       36.0210   92.9900   25.1360 H     336  FDP336      0.2105
@<TRIPOS>BOND
     1    10     9    1
     2    10    21    1
     3    12    11    1
     4    12    22    1
     5     9    11    1
     6     9     7    1
     7    11    13    1
     8     6     7    1
     9     6     5    1
    10     7     8    1
    11     7    14    1
    12     8     1    1
    13    13    15    1
    14    13    14    1
    15    15    16    1
    16     3     1    2
    17     1     2    1
    18     1     4    1
    19    16    17    1
    20    19    17    2
    21    17    20    1
    22    17    18    1
