@<TRIPOS>MOLECULE
3fbr_ACP_A_1.pdb
 31 33 0 0 0
SMALL
GASTEIGER

@<TRIPOS>ATOM
      1  PG        12.7910   21.2480   76.4030 P.3   500  ACP500      0.1295
      2  O1G       13.5860   20.4040   77.3660 O.3   500  ACP500     -0.3567
      3  O2G       11.9910   20.4560   75.4280 O.2   500  ACP500     -0.4595
      4  O3G       11.8820   22.2290   77.2310 O.3   500  ACP500     -0.3567
      5  PB        13.8460   23.8150   75.4470 P.3   500  ACP500      0.3815
      6  O1B       12.9630   24.4230   74.4440 O.2   500  ACP500     -0.2547
      7  O2B       14.7330   24.3360   76.4770 O.3   500  ACP500     -0.1391
      8  C3B       13.8430   22.1750   75.4200 C.3   500  ACP500      0.1768
      9  PA        16.6700   23.8980   74.1450 P.3   500  ACP500      0.2209
     10  O1A       17.3280   25.1110   74.7390 O.3   500  ACP500     -0.4371
     11  O2A       17.1420   22.6210   74.5930 O.2   500  ACP500     -0.5170
     12  O3A       14.9970   23.8910   74.3260 O.3   500  ACP500     -0.2483
     13  O5'       16.8300   24.0190   72.5930 O.3   500  ACP500     -0.3111
     14  C5'       16.2870   22.9860   71.6980 C.3   500  ACP500      0.1813
     15  C4'       17.2550   22.3540   70.7100 C.3   500  ACP500      0.1821
     16  O4'       18.0380   23.3580   69.9930 O.3   500  ACP500     -0.3135
     17  C3'       18.2920   21.3840   71.2760 C.3   500  ACP500      0.2184
     18  O3'       17.7590   20.0170   71.1970 O.3   500  ACP500     -0.2174
     19  C2'       19.5250   21.6650   70.4370 C.3   500  ACP500      0.2570
     20  O2'       19.5860   20.8250   69.3030 O.3   500  ACP500     -0.2130
     21  C1'       19.4510   23.0790   69.9940 C.3   500  ACP500      0.3186
     22  N9        20.1850   24.1290   70.8240 N.pl3 500  ACP500     -0.1439
     23  C8        19.9190   24.7080   72.0580 C.3   500  ACP500      0.3377
     24  N7        20.7880   25.6040   72.4580 N.2   500  ACP500     -0.2095
     25  C5        21.6920   25.6140   71.3940 C.2   500  ACP500      0.2526
     26  C6        22.9150   26.3650   71.1400 C.2   500  ACP500      0.4393
     27  N6        23.3600   27.2710   72.0370 N.pl3 500  ACP500      0.2180
     28  N1        23.6240   26.1510   69.9630 N.2   500  ACP500      0.0021
     29  C2        23.1770   25.2360   69.0370 C.3   500  ACP500      0.5254
     30  N3        22.0250   24.4570   69.1660 N.2   500  ACP500     -0.0055
     31  C4        21.3260   24.7180   70.3950 C.2   500  ACP500      0.3518
@<TRIPOS>BOND
     1    29    30    1
     2    29    28    1
     3    30    31    2
     4    20    19    1
     5    28    26    2
     6    16    21    1
     7    16    15    1
     8    21    19    1
     9    21    22    1
    10    31    22    1
    11    31    25    1
    12    19    17    1
    13    15    17    1
    14    15    14    1
    15    22    23    1
    16    26    25    1
    17    26    27    1
    18    18    17    1
    19    25    24    2
    20    14    13    1
    21    23    24    1
    22    13     9    1
    23     9    12    1
    24     9    11    2
    25     9    10    1
    26    12     5    1
    27     6     5    2
    28     8     5    1
    29     8     1    1
    30     3     1    2
    31     5     7    1
    32     1     4    1
    33     1     2    1
