@<TRIPOS>MOLECULE
3fbu_COA_A_1.pdb
 48 50 0 0 0
SMALL
GASTEIGER

@<TRIPOS>ATOM
      1  N1A       31.0000   54.2270   29.6210 N.2   169  COA169      0.0021
      2  C2A       29.6980   53.8970   29.8970 C.3   169  COA169      0.5254
      3  N3A       28.7110   54.8410   29.7950 N.2   169  COA169     -0.0055
      4  C4A       29.0420   56.1020   29.4070 C.2   169  COA169      0.3518
      5  C5A       30.3500   56.4550   29.1200 C.2   169  COA169      0.2526
      6  C6A       31.3500   55.4900   29.2120 C.2   169  COA169      0.4393
      7  N6A       32.6190   55.7790   28.9160 N.pl3 169  COA169      0.2180
      8  N7A       30.3590   57.7490   28.7730 N.2   169  COA169     -0.2095
      9  C8A       29.1030   58.2340   28.8420 C.3   169  COA169      0.3377
     10  N9A       28.2750   57.2170   29.2430 N.pl3 169  COA169     -0.1439
     11  C1B       26.8090   57.2000   29.3250 C.3   169  COA169      0.3185
     12  C2B       26.2420   58.2780   30.2510 C.3   169  COA169      0.2543
     13  O2B       26.2630   57.8780   31.6160 O.3   169  COA169     -0.2131
     14  C3B       24.8480   58.3980   29.6740 C.3   169  COA169      0.1928
     15  O3B       24.0080   57.3720   30.1790 O.3   169  COA169     -0.2673
     16  P3B       23.0720   57.5410   31.4900 P.3   169  COA169      0.5327
     17  O7A       22.0770   56.4290   31.5720 O.3   169  COA169     -0.1145
     18  O8A       23.9830   57.5740   32.6890 O.3   169  COA169     -0.1145
     19  O9A       22.3500   58.8610   31.3280 O.2   169  COA169     -0.2224
     20  C4B       25.0610   58.1880   28.1670 C.3   169  COA169      0.1795
     21  O4B       26.2420   57.4430   28.0440 O.3   169  COA169     -0.3136
     22  C5B       25.2270   59.4940   27.4000 C.3   169  COA169      0.1812
     23  O5B       23.9700   60.1430   27.4010 O.3   169  COA169     -0.3112
     24  P1A       23.8610   61.7140   27.1190 P.3   169  COA169      0.2189
     25  O1A       24.3230   62.4730   28.3510 O.3   169  COA169     -0.4371
     26  O2A       22.4810   62.0430   26.7050 O.2   169  COA169     -0.5170
     27  O3A       24.8590   61.8860   25.8720 O.3   169  COA169     -0.2703
     28  P2A       25.8900   63.1030   25.6270 P.3   169  COA169      0.2188
     29  O4A       25.1320   64.4070   25.6800 O.2   169  COA169     -0.5170
     30  O5A       27.0570   62.9670   26.6110 O.3   169  COA169     -0.4371
     31  O6A       26.3840   62.7620   24.1260 O.3   169  COA169     -0.3138
     32  CBP       27.4540   61.5030   22.4020 C.3   169  COA169      0.0645
     33  CCP       26.6200   61.4350   23.6820 C.3   169  COA169      0.1519
     34  CDP       26.6800   62.4370   21.4540 C.3   169  COA169      0.0056
     35  CEP       27.5250   60.0540   21.9170 C.3   169  COA169      0.0056
     36  CAP       28.8660   62.0620   22.7210 C.3   169  COA169      0.2312
     37  OAP       29.6060   61.1670   23.5370 O.3   169  COA169     -0.2131
     38  C9P       29.6970   62.2910   21.4950 C.2   169  COA169      0.2719
     39  O9P       29.4880   63.4100   20.7250 O.2   169  COA169     -0.2706
     40  N8P       30.5750   61.3640   21.0990 N.am  169  COA169     -0.2028
     41  C7P       31.5210   61.6270   20.0160 C.3   169  COA169      0.1248
     42  C6P       30.8840   61.5760   18.6380 C.3   169  COA169      0.1102
     43  C5P       30.2950   60.1980   18.3400 C.2   169  COA169      0.2432
     44  O5P       30.9550   59.1410   18.4610 O.2   169  COA169     -0.2733
     45  N4P       29.0520   60.2070   17.9050 N.am  169  COA169     -0.2044
     46  C3P       28.3010   58.9620   17.6990 C.3   169  COA169      0.1276
     47  C2P       28.5850   58.2710   16.3840 C.3   169  COA169      0.0920
     48  S1P       27.4630   56.8590   16.1460 S.3   169  COA169     -0.0802
@<TRIPOS>BOND
     1    48    47    1
     2    47    46    1
     3    46    45    1
     4    45    43   am
     5    43    44    2
     6    43    42    1
     7    42    41    1
     8    41    40    1
     9    39    38    2
    10    40    38   am
    11    34    32    1
    12    38    36    1
    13    35    32    1
    14    32    36    1
    15    32    33    1
    16    36    37    1
    17    33    31    1
    18    31    28    1
    19    28    29    2
    20    28    27    1
    21    28    30    1
    22    27    24    1
    23    26    24    2
    24    24    23    1
    25    24    25    1
    26    22    23    1
    27    22    20    1
    28    21    20    1
    29    21    11    1
    30    20    14    1
    31     8     9    1
    32     8     5    2
    33     9    10    1
    34     7     6    1
    35     5     6    1
    36     5     4    1
    37     6     1    2
    38    10    11    1
    39    10     4    1
    40    11    12    1
    41     4     3    2
    42     1     2    1
    43    14    15    1
    44    14    12    1
    45     3     2    1
    46    15    16    1
    47    12    13    1
    48    19    16    2
    49    16    17    1
    50    16    18    1
