@<TRIPOS>MOLECULE
3fc1_52P_X_1.pdb
 28 31 0 0 0
SMALL
GASTEIGER

@<TRIPOS>ATOM
      1  F1        36.8510   32.5670   31.2450 F     362  52P362     -0.2041
      2  C2        38.0210   31.9520   31.0380 C.ar  362  52P362      0.1424
      3  C3        38.4750   31.0110   31.9500 C.ar  362  52P362      0.0303
      4  C4        39.6910   30.3890   31.7150 C.ar  362  52P362      0.0111
      5  C5        40.4310   30.7200   30.5800 C.ar  362  52P362      0.0585
      6  S6        41.9650   29.9150   30.2870 S.3   362  52P362     -0.0642
      7  C7        43.2720   31.0880   30.5140 C.2   362  52P362      0.1284
      8  C8        44.5630   30.7640   30.0280 C.2   362  52P362      0.0287
      9  C9        45.6000   31.6340   30.1920 C.2   362  52P362      0.0193
     10  C10       45.3680   32.8640   30.8560 C.2   362  52P362      0.0823
     11  C11       46.3990   33.8150   31.0630 C.2   362  52P362      0.0995
     12  C12       47.8010   33.5940   30.6130 C.ar  362  52P362      0.0333
     13  C13       48.6950   32.8010   31.3550 C.ar  362  52P362      0.0592
     14 CL14       48.2150   32.0250   32.8300 Cl    362  52P362     -0.0822
     15  C15       49.9980   32.6100   30.9090 C.ar  362  52P362      0.0115
     16  C16       50.4300   33.2100   29.7390 C.ar  362  52P362      0.0017
     17  C17       49.5640   34.0030   29.0030 C.ar  362  52P362      0.0115
     18  C18       48.2620   34.1940   29.4350 C.ar  362  52P362      0.0592
     19 CL19       47.1870   35.1850   28.4960 Cl    362  52P362     -0.0822
     20  C20       46.0390   35.0120   31.7480 C.1   362  52P362      0.1530
     21  O21       46.8820   35.8740   31.9620 O.2   362  52P362     -0.2222
     22  N22       44.7770   35.2060   32.1650 N.2   362  52P362     -0.1780
     23  C23       43.8430   34.3200   31.9640 C.3   362  52P362      0.2529
     24  N24       44.0970   33.1500   31.3200 N.pl3 362  52P362     -0.1849
     25  N25       43.0560   32.2300   31.1330 N.2   362  52P362     -0.1695
     26  C26       39.9570   31.6640   29.6690 C.ar  362  52P362      0.1483
     27  F27       40.6670   31.9750   28.5680 F     362  52P362     -0.2036
     28  C28       38.7490   32.2850   29.9030 C.ar  362  52P362      0.0598
@<TRIPOS>BOND
     1    19    18    1
     2    27    26    1
     3    17    18   ar
     4    17    16   ar
     5    18    12   ar
     6    26    28   ar
     7    26     5   ar
     8    16    15   ar
     9    28     2   ar
    10     8     9    2
    11     8     7    1
    12     9    10    1
    13     6     7    1
    14     6     5    1
    15     7    25    2
    16     5     4   ar
    17    12    11    1
    18    12    13   ar
    19    10    11    2
    20    10    24    1
    21    15    13   ar
    22     2     1    1
    23     2     3   ar
    24    11    20    1
    25    25    24    1
    26    24    23    1
    27    13    14    1
    28     4     3   ar
    29    20    21    2
    30    20    22    2
    31    23    22    1
