@<TRIPOS>MOLECULE
3fc2_IBI_A_1.pdb
 45 50 0 0 0
SMALL
GASTEIGER

@<TRIPOS>ATOM
      1  C1        51.3340   -0.9140    9.5630 C.3    10  IBI10       0.0896
      2  C2        52.2400    0.2950    9.2360 C.3    10  IBI10       0.0897
      3  C5        53.1760   -2.0350   10.6170 C.3    10  IBI10       0.0896
      4  C6        54.1060   -0.8360   10.3100 C.3    10  IBI10       0.0897
      5  C7        49.3040   -4.8030    8.6510 C.3    10  IBI10       0.0231
      6  C8        50.0260   -3.4450    8.8300 C.3    10  IBI10       0.0177
      7  C11       51.3230   -6.0230    9.2350 C.3    10  IBI10       0.0231
      8  C12       52.1330   -4.7060    9.4000 C.3    10  IBI10       0.0177
      9  C15       47.2310   -9.3550    7.9190 C.ar   10  IBI10       0.0061
     10  C16       47.6870  -11.4320    6.1530 C.ar   10  IBI10       0.1548
     11  C17       48.2740   -9.2290    6.9840 C.ar   10  IBI10       0.0581
     12  C18       48.4800  -10.2810    6.0990 C.ar   10  IBI10       0.0428
     13  C21       42.4420  -12.9700   12.1850 C.3    10  IBI10       0.1521
     14  N22       42.1240  -14.8970   10.6010 N.am   10  IBI10      -0.2510
     15  C24       43.1220  -14.3450    9.7300 C.2    10  IBI10       0.1194
     16  C31       43.3060  -13.4930   13.3750 C.3    10  IBI10       0.0292
     17  C32       44.5820  -14.2730   12.9590 C.3    10  IBI10       0.0023
     18  C33       43.9630  -11.1270   11.7920 C.3    10  IBI10       0.0756
     19  C34       45.3720  -10.8250   11.2990 C.3    10  IBI10       0.0215
     20  C35       43.0430   -9.8930   11.6820 C.3    10  IBI10       0.0215
     21  C36       41.4420  -16.1750   10.2940 C.3    10  IBI10       0.1202
     22  C38       49.0960  -12.8170    4.6800 C.3    10  IBI10       0.2525
     23  C39       49.1590   -7.9890    6.9350 C.2    10  IBI10       0.2648
     24  O40       49.6650   -7.7030    5.8870 O.2    10  IBI10      -0.2684
     25  O37       47.8620  -12.4980    5.3050 O.3    10  IBI10      -0.4701
     26  C14       46.6520  -11.5440    7.0780 C.ar   10  IBI10       0.1164
     27  N19       45.9580  -12.7920    7.0550 N.pl3  10  IBI10      -0.1326
     28  C26       45.0190  -13.3310    7.9740 C.1    10  IBI10       0.1710
     29  N27       44.6880  -12.6510    9.1330 N.2    10  IBI10      -0.3194
     30  C25       43.7440  -13.1260   10.0220 C.2    10  IBI10       0.2117
     31  N23       43.3950  -12.3960   11.2130 N.pl3  10  IBI10      -0.2770
     32  N28       44.4080  -14.5280    7.6920 N.2    10  IBI10      -0.1669
     33  C29       43.4680  -15.0220    8.5700 C.2    10  IBI10       0.1306
     34  C20       41.7550  -14.2360   11.7700 C.2    10  IBI10       0.2476
     35  O30       40.9280  -14.6910   12.5390 O.2    10  IBI10      -0.2727
     36  C13       46.4270  -10.4980    7.9660 C.ar   10  IBI10       0.0206
     37  N41       49.4110   -7.1880    8.0600 N.am   10  IBI10      -0.2034
     38  C9        50.2190   -5.9320    8.1790 C.3    10  IBI10       0.0957
     39  C10       51.2850   -3.4520    9.7480 C.3    10  IBI10       0.0577
     40  N3        52.1030   -2.1950    9.5910 N.3    10  IBI10      -0.2716
     41  N4        53.3610    0.4360   10.1910 N.3    10  IBI10      -0.2703
     42  C42       54.2470    1.5720    9.8800 C.3    10  IBI10       0.0721
     43  C43       53.8040    2.9140   10.4990 C.3    10  IBI10       0.0160
     44  C45       54.0860    4.2970    9.9520 C.3    10  IBI10       0.0014
     45  C44       52.7320    3.7130    9.7130 C.3    10  IBI10       0.0014
@<TRIPOS>BOND
     1    22    25    1
     2    25    10    1
     3    24    23    2
     4    12    10   ar
     5    12    11   ar
     6    10    26   ar
     7    23    11    1
     8    23    37   am
     9    11     9   ar
    10    27    26    1
    11    27    28    1
    12    26    36   ar
    13    32    28    2
    14    32    33    1
    15     9    36   ar
    16    28    29    2
    17    37    38    1
    18    38     5    1
    19    38     7    1
    20    33    15    2
    21     5     6    1
    22     6    39    1
    23    29    30    2
    24     7     8    1
    25     2     1    1
    26     2    41    1
    27     8    39    1
    28     1    40    1
    29    40    39    1
    30    40     3    1
    31    45    44    1
    32    45    43    1
    33    15    30    1
    34    15    14    1
    35    42    41    1
    36    42    43    1
    37    44    43    1
    38    30    31    1
    39    41     4    1
    40    21    14    1
    41     4     3    1
    42    14    34   am
    43    31    18    1
    44    31    13    1
    45    19    18    1
    46    20    18    1
    47    34    13    1
    48    34    35    2
    49    13    16    1
    50    17    16    1
