@<TRIPOS>MOLECULE
3fc4_PCD_A_1.pdb
 47 52 0 0 0
SMALL
GASTEIGER

@<TRIPOS>ATOM
      1  N1        -7.7000   62.2380   -3.5400 N.am  921  PCD921      0.0000
      2  C2        -8.2610   63.5370   -3.6210 C.1   921  PCD921      0.0000
      3  N3        -7.7630   64.5160   -2.8080 N.2   921  PCD921      0.0000
      4  C4        -6.7520   64.2480   -1.9450 C.2   921  PCD921      0.0000
      5  C5        -6.2000   62.9590   -1.8370 C.2   921  PCD921      0.0000
      6  C6        -6.7100   61.9550   -2.6660 C.2   921  PCD921      0.0000
      7  O2        -9.2140   63.8070   -4.4090 O.2   921  PCD921      0.0000
      8  N4        -6.2740   65.2430   -1.1520 N.pl3 921  PCD921      0.0000
      9  C1'       -8.2120   61.1600   -4.4090 C.3   921  PCD921      0.0000
     10  C2D       -7.1470   60.7030   -5.4190 C.3   921  PCD921      0.0000
     11  O2'       -7.1510   61.4310   -6.6420 O.3   921  PCD921      0.0000
     12  C3'       -7.4950   59.2160   -5.6410 C.3   921  PCD921      0.0000
     13  C4D       -8.0310   58.8200   -4.2730 C.3   921  PCD921      0.0000
     14  O4D       -8.5040   60.0100   -3.6280 O.3   921  PCD921      0.0000
     15  O3'       -8.5660   59.0930   -6.5790 O.3   921  PCD921      0.0000
     16  C5'       -6.9710   58.1490   -3.4100 C.3   921  PCD921      0.0000
     17  O5'       -5.7350   58.8880   -3.4800 O.3   921  PCD921      0.0000
     18  PA        -4.4210   58.3840   -2.7480 P.3   921  PCD921      0.0000
     19  O1A       -3.2150   59.1200   -3.2640 O.2   921  PCD921     -0.5000
     20  O2A       -4.6180   58.4560   -1.2410 O.3   921  PCD921     -0.5000
     21  O3A       -4.3490   56.7840   -3.0300 O.3   921  PCD921      0.0000
     22  PB        -3.7950   55.9960   -4.3250 P.3   921  PCD921      0.0000
     23  O1B       -2.3120   55.7760   -4.0990 O.3   921  PCD921     -0.5000
     24  O2B       -4.3450   56.5640   -5.5790 O.2   921  PCD921     -0.5000
     25  O3B       -4.5830   54.5970   -4.1130 O.3   921  PCD921      0.0000
     26  C10       -4.0800   53.6700   -3.1780 C.3   921  PCD921      0.0000
     27  C9'       -5.0580   53.4660   -1.9910 C.3   921  PCD921      0.0000
     28  C8'       -4.5870   52.2410   -1.2070 C.2   921  PCD921      0.0000
     29  S8'       -2.9560   52.0910   -0.7500 S.3   921  PCD921      0.0000
     30  C7'       -5.4600   51.2560   -0.8640 C.2   921  PCD921      0.0000
     31  S7'       -4.9380   49.8190   -0.1550 S.3   921  PCD921      0.0000
     32  C6'       -6.9590   51.4150   -1.0750 C.3   921  PCD921      0.0000
     33  C7        -7.2780   52.8860   -1.3950 C.3   921  PCD921      0.0000
     34  O9'       -6.4410   53.3600   -2.4460 O.3   921  PCD921      0.0000
     35  N5'       -7.5260   50.5650   -2.1220 N.2   921  PCD921      0.0000
     36  C4A       -8.7700   50.8550   -2.6190 C.2   921  PCD921      0.0000
     37  N8'       -8.6630   53.0990   -1.7580 N.2   921  PCD921      0.0000
     38  C4B       -9.3590   52.1840   -2.4370 C.1   921  PCD921      0.0000
     39  N1'      -10.5840   52.4600   -2.9440 N.2   921  PCD921      0.0000
     40  C2'      -11.2740   51.5580   -3.6680 C.1   921  PCD921      0.0000
     41  N2'      -12.4780   51.9060   -4.1810 N.pl3 921  PCD921      0.0000
     42  N3'      -10.8110   50.3070   -3.8810 N.2   921  PCD921      0.0000
     43  C4'       -9.6150   49.9300   -3.4110 C.1   921  PCD921      0.0000
     44  O4'       -9.1850   48.6960   -3.6300 O.2   921  PCD921      0.0000
     45 MO         -2.6140   49.7880   -0.2010 Mo    921  PCD921      0.0000
     46  OR1       -2.6180   48.5250    1.0160 O.3   921  PCD921      0.0000
     47  OM1       -2.1320   48.9390   -2.0350 O.3   921  PCD921      0.0000
@<TRIPOS>BOND
     1    11    10    1
     2    15    12    1
     3    12    10    1
     4    12    13    1
     5    24    22    2
     6    10     9    1
     7     9    14    1
     8     9     1    1
     9     7     2    2
    10    22    25    1
    11    22    23    1
    12    22    21    1
    13    13    14    1
    14    13    16    1
    15    41    40    1
    16    25    26    1
    17    42    40    2
    18    42    43    2
    19    40    39    2
    20    44    43    2
    21     2     1   am
    22     2     3    2
    23     1     6    1
    24    17    16    1
    25    17    18    1
    26    43    36    1
    27    19    18    2
    28    26    27    1
    29    21    18    1
    30    39    38    2
    31     3     4    2
    32    18    20    1
    33     6     5    2
    34    36    38    1
    35    36    35    2
    36    34    27    1
    37    34    33    1
    38    38    37    2
    39    35    32    1
    40    47    45    1
    41    27    28    1
    42     4     5    1
    43     4     8    1
    44    37    33    1
    45    33    32    1
    46    28    30    2
    47    28    29    1
    48    32    30    1
    49    30    31    1
    50    29    45    1
    51    45    31    1
    52    45    46    1
