@<TRIPOS>MOLECULE
3fc5_ARG_A_1.pdb
 12 11 0 0 0
SMALL
GASTEIGER

@<TRIPOS>ATOM
      1  N          9.5160   -1.2220   26.1220 N.3   770  ARG770     -0.1208
      2  CA         9.2070   -1.5620   24.7350 C.3   770  ARG770      0.1944
      3  C          9.0160   -3.0690   24.6020 C.2   770  ARG770      0.3819
      4  O          8.3430   -3.5500   23.6890 O.co2 770  ARG770     -0.2441
      5  CB        10.3160   -1.0850   23.7970 C.3   770  ARG770      0.0343
      6  CG        10.5380    0.4120   23.8070 C.3   770  ARG770      0.0490
      7  CD        11.8030    0.8050   23.0300 C.3   770  ARG770      0.2205
      8  NE        12.9920    0.1000   23.4990 N.pl3 770  ARG770     -0.0865
      9  CZ        14.2100    0.2820   22.9950 C.cat 770  ARG770      0.5346
     10  NH1       14.4010    1.1420   22.0040 N.pl3 770  ARG770      0.1354
     11  NH2       15.2400   -0.4000   23.4730 N.pl3 770  ARG770      0.1354
     12  OXT        9.5280   -3.8250   25.4340 O.co2 770  ARG770     -0.2441
@<TRIPOS>BOND
     1    10     9    1
     2     9    11    1
     3     9     8    2
     4     7     8    1
     5     7     6    1
     6     4     3   ar
     7     5     6    1
     8     5     2    1
     9     3     2    1
    10     3    12   ar
    11     2     1    1
