@<TRIPOS>MOLECULE
3fc5_HEM_A_1.pdb
 43 50 0 0 0
SMALL
GASTEIGER

@<TRIPOS>ATOM
      1  CHA       13.0230    4.4320   26.5370 C.2   750  HEM750      0.0000
      2  CHB       16.8250    1.5050   26.0620 C.2   750  HEM750      0.0000
      3  CHC       18.1050    3.6320   21.9000 C.2   750  HEM750      0.0000
      4  CHD       14.8380    7.1100   22.8730 C.2   750  HEM750      0.0000
      5  C1A       13.8800    3.3800   26.7040 C.2   750  HEM750      0.0000
      6  C2A       13.7170    2.3010   27.6440 C.2   750  HEM750      0.0000
      7  C3A       14.7580    1.4900   27.5140 C.2   750  HEM750      0.0000
      8  C4A       15.6330    2.0350   26.4890 C.2   750  HEM750      0.0000
      9  CMA       14.9590    0.1940   28.3370 C.3   750  HEM750      0.0000
     10  CAA       12.5130    2.0770   28.5760 C.3   750  HEM750      0.0000
     11  CBA       11.4000    1.8040   27.5590 C.3   750  HEM750      0.0000
     12  CGA       10.1710    1.2010   28.1860 C.2   750  HEM750      0.0000
     13  O1A       10.2660    0.8100   29.3830 O.co2 750  HEM750      0.0000
     14  O2A        9.1120    1.1100   27.4910 O.co2 750  HEM750      0.0000
     15  C1B       17.5010    1.8040   24.9110 C.ar  750  HEM750      0.0000
     16  C2B       18.6720    1.1100   24.4130 C.ar  750  HEM750      0.0000
     17  C3B       19.0400    1.6910   23.2750 C.ar  750  HEM750      0.0000
     18  C4B       18.1060    2.7800   22.9940 C.ar  750  HEM750      0.0000
     19  CMB       19.3990   -0.0870   25.0740 C.3   750  HEM750      0.0000
     20  CAB       20.2580    1.2220   22.4470 C.2   750  HEM750      0.0000
     21  CBB       20.7310    1.9640   21.4420 C.2   750  HEM750      0.0000
     22  C1C       17.2620    4.7240   21.7210 C.2   750  HEM750      0.0000
     23  C2C       17.0990    5.5470   20.5360 C.2   750  HEM750      0.0000
     24  C3C       16.1890    6.4840   20.8100 C.2   750  HEM750      0.0000
     25  C4C       15.7460    6.3220   22.1760 C.2   750  HEM750      0.0000
     26  CMC       17.8300    5.3480   19.1890 C.3   750  HEM750      0.0000
     27  CAC       15.7020    7.5970   19.8630 C.2   750  HEM750      0.0000
     28  CBC       16.4970    7.9940   18.8720 C.2   750  HEM750      0.0000
     29  C1D       14.0050    6.7030   23.8960 C.ar  750  HEM750      0.0000
     30  C2D       12.7810    7.3560   24.3060 C.ar  750  HEM750      0.0000
     31  C3D       12.2420    6.5060   25.4540 C.ar  750  HEM750      0.0000
     32  C4D       13.1700    5.4250   25.6040 C.ar  750  HEM750      0.0000
     33  CMD       12.1460    8.6430   23.7470 C.3   750  HEM750      0.0000
     34  CAD       10.9550    6.7030   26.2680 C.3   750  HEM750      0.0000
     35  CBD        9.8340    6.2380   25.3440 C.3   750  HEM750      0.0000
     36  CGD        8.5800    6.0950   26.1610 C.2   750  HEM750      0.0000
     37  O1D        8.3610    6.9840   27.0190 O.co2 750  HEM750      0.0000
     38  O2D        7.8160    5.1080   25.9500 O.co2 750  HEM750      0.0000
     39  NA        15.0690    3.1960   26.0290 N.2   750  HEM750      0.0000
     40  NB        17.1820    2.8170   24.0300 N.ar  750  HEM750      0.0000
     41  NC        16.4210    5.2370   22.6890 N.2   750  HEM750      0.0000
     42  ND        14.2030    5.5770   24.6840 N.ar  750  HEM750      0.0000
     43 FE         15.9270    4.3960   24.5070 Fe    750  HEM750      0.0000
@<TRIPOS>BOND
     1    28    27    2
     2    26    23    1
     3    27    24    1
     4    23    24    2
     5    23    22    1
     6    24    25    1
     7    21    20    2
     8    22     3    2
     9    22    41    1
    10     3    18    1
    11    25    41    2
    12    25     4    1
    13    20    17    1
    14    41    43    1
    15     4    29    2
    16    18    17   ar
    17    18    40   ar
    18    17    16   ar
    19    33    30    1
    20    29    30   ar
    21    29    42   ar
    22    40    43    1
    23    40    15   ar
    24    30    31   ar
    25    16    15   ar
    26    16    19    1
    27    43    42    1
    28    43    39    1
    29    42    32   ar
    30    15     2    1
    31    35    36    1
    32    35    34    1
    33    31    32   ar
    34    31    34    1
    35    32     1    2
    36    38    36   ar
    37    39     8    1
    38    39     5    2
    39     2     8    2
    40    36    37   ar
    41     8     7    1
    42     1     5    1
    43     5     6    1
    44    14    12   ar
    45     7     6    2
    46     7     9    1
    47    11    12    1
    48    11    10    1
    49     6    10    1
    50    12    13   ar
