@<TRIPOS>MOLECULE
3fc5_H4B_A_1.pdb
 17 18 0 0 0
SMALL
GASTEIGER

@<TRIPOS>ATOM
      1  N1        10.2270    2.5910   34.1750 N.2   760  H4B760     -0.2683
      2  C2        10.4790    2.1310   32.7550 C.1   760  H4B760      0.2608
      3  N2        11.8460    2.0240   32.2430 N.pl3 760  H4B760     -0.0220
      4  N3         9.3290    1.8070   31.8650 N.2   760  H4B760     -0.2474
      5  C4         7.9140    1.9320   32.3690 C.1   760  H4B760      0.2441
      6  O4         6.8430    1.6000   31.5220 O.2   760  H4B760     -0.2063
      7  C4A        7.6540    2.4010   33.8000 C.2   760  H4B760      0.2463
      8  C8A        8.8000    2.7270   34.6810 C.1   760  H4B760      0.1270
      9  N5         6.2860    2.5960   34.3140 N.2   760  H4B760     -0.2460
     10  N8         8.5640    3.1550   36.0420 N.2   760  H4B760     -0.2054
     11  C6         6.1850    3.6100   35.3690 C.3   760  H4B760      0.1627
     12  C7         7.1710    3.2610   36.5240 C.3   760  H4B760      0.1643
     13  C9         4.7900    3.6080   36.0200 C.3   760  H4B760      0.2063
     14  O9         4.5650    2.3160   36.4900 O.3   760  H4B760     -0.2183
     15  C10        4.8820    4.5380   37.2530 C.3   760  H4B760      0.1842
     16  C11        3.5820    4.4510   38.0740 C.3   760  H4B760      0.0383
     17  O10        5.0590    5.8430   36.7890 O.3   760  H4B760     -0.2204
@<TRIPOS>BOND
     1     6     5    2
     2     4     5    2
     3     4     2    2
     4     3     2    1
     5     5     7    1
     6     2     1    2
     7     7     9    2
     8     7     8    1
     9     1     8    2
    10     9    11    1
    11     8    10    2
    12    11    13    1
    13    11    12    1
    14    13    14    1
    15    13    15    1
    16    10    12    1
    17    17    15    1
    18    15    16    1
