@<TRIPOS>MOLECULE
3fc6_LX2_B_1.pdb
 44 48 0 0 0
SMALL
GASTEIGER

@<TRIPOS>ATOM
      1  F40       64.2520   44.1260   19.0610 F       1  LX21       -0.1658
      2  C37       63.2580   44.9890   19.1680 C.3     1  LX21        0.4194
      3  F38       62.6680   45.0760   17.9800 F       1  LX21       -0.1658
      4  F39       63.7520   46.1630   19.5050 F       1  LX21       -0.1658
      5  C34       62.3110   44.4990   20.2390 C.ar    1  LX21        0.0817
      6  C35       61.4710   43.3110   19.9900 C.ar    1  LX21        0.0589
      7 CL36       61.6120   42.5450   18.3860 Cl      1  LX21       -0.0826
      8  C33       62.2160   45.1060   21.4730 C.ar    1  LX21        0.0047
      9  C32       61.3360   44.5900   22.4250 C.ar    1  LX21       -0.0003
     10  C31       60.5380   43.4710   22.1860 C.ar    1  LX21       -0.0021
     11  C30       60.6030   42.8240   20.9620 C.ar    1  LX21        0.0044
     12  C29       59.7330   41.6110   20.6980 C.3     1  LX21        0.1000
     13  N14       59.6930   40.6760   21.8230 N.3     1  LX21       -0.2682
     14  C15       60.9330   39.9390   22.0720 C.3     1  LX21        0.0811
     15  C16       61.0430   39.5220   23.5500 C.3     1  LX21        0.0605
     16  C23       61.2740   40.6950   24.4270 C.ar    1  LX21       -0.0171
     17  C24       60.4570   40.9010   25.5370 C.ar    1  LX21       -0.0039
     18  C25       60.6760   42.0030   26.3660 C.ar    1  LX21       -0.0003
     19  C26       61.7090   42.8930   26.0860 C.ar    1  LX21       -0.0000
     20  C27       62.5310   42.6760   24.9810 C.ar    1  LX21       -0.0003
     21  C28       62.3190   41.5750   24.1580 C.ar    1  LX21       -0.0039
     22  C17       62.1680   38.5510   23.6920 C.ar    1  LX21       -0.0171
     23  C18       63.2570   38.6090   22.8260 C.ar    1  LX21       -0.0039
     24  C19       64.3050   37.7000   22.9390 C.ar    1  LX21       -0.0003
     25  C20       64.2740   36.7030   23.9120 C.ar    1  LX21       -0.0000
     26  C21       63.1820   36.6380   24.7740 C.ar    1  LX21       -0.0003
     27  C22       62.1310   37.5540   24.6570 C.ar    1  LX21       -0.0039
     28  C13       58.4780   39.8780   21.9110 C.3     1  LX21        0.0762
     29  C12       57.2830   40.8130   22.0590 C.3     1  LX21        0.0646
     30  C11       56.7230   40.6380   23.4640 C.3     1  LX21        0.2068
     31  O10       55.6090   41.4790   23.7660 O.3     1  LX21       -0.4754
     32  C9        55.0550   41.3680   25.0190 C.ar    1  LX21        0.1399
     33  C8        53.6880   41.2110   25.1750 C.ar    1  LX21        0.0512
     34  C44       53.0750   41.0880   26.3910 C.ar    1  LX21        0.0633
     35  C43       53.9210   41.1280   27.5580 C.ar    1  LX21        0.0174
     36  C42       55.3030   41.2860   27.4180 C.ar    1  LX21        0.0046
     37  C41       55.8680   41.4050   26.1500 C.ar    1  LX21        0.0370
     38  C7        52.7740   41.1690   24.1450 C.ar    1  LX21        0.0231
     39  C6        51.5650   41.0000   24.8060 C.ar    1  LX21        0.0765
     40  N5        51.7600   40.9690   26.1510 N.ar    1  LX21       -0.3159
     41  C4        50.7120   40.8020   27.1550 C.3     1  LX21        0.2211
     42  C2        50.5110   39.3170   27.3480 C.2     1  LX21        0.3875
     43  O1        49.6010   38.9350   28.0970 O.co2   1  LX21       -0.2435
     44  O3        51.2680   38.5320   26.7380 O.co2   1  LX21       -0.2435
@<TRIPOS>BOND
     1     3     2    1
     2     7     6    1
     3     1     2    1
     4     2     4    1
     5     2     5    1
     6     6     5   ar
     7     6    11   ar
     8     5     8   ar
     9    12    11    1
    10    12    13    1
    11    11    10   ar
    12     8     9   ar
    13    13    28    1
    14    13    14    1
    15    28    29    1
    16    29    30    1
    17    14    15    1
    18    10     9   ar
    19    23    24   ar
    20    23    22   ar
    21    24    25   ar
    22    30    31    1
    23    15    22    1
    24    15    16    1
    25    22    27   ar
    26    31    32    1
    27    25    26   ar
    28    38    39   ar
    29    38    33   ar
    30    21    16   ar
    31    21    20   ar
    32    16    17   ar
    33    27    26   ar
    34    39    40   ar
    35    20    19   ar
    36    32    33   ar
    37    32    37   ar
    38    33    34   ar
    39    17    18   ar
    40    19    18   ar
    41    37    36   ar
    42    40    34   ar
    43    40    41    1
    44    34    35   ar
    45    44    42   ar
    46    41    42    1
    47    42    43   ar
    48    36    35   ar
