@<TRIPOS>MOLECULE
3fc6_REA_A_1.pdb
 22 22 0 0 0
SMALL
GASTEIGER

@<TRIPOS>ATOM
      1  C1        84.0970   60.3600   31.2700 C.3   501  REA501      0.0183
      2  C2        83.9150   61.8640   31.0560 C.3   501  REA501      0.0044
      3  C3        83.2380   62.6150   32.1970 C.3   501  REA501      0.0047
      4  C4        82.2100   61.7710   32.9250 C.3   501  REA501      0.0217
      5  C5        82.9700   60.6250   33.5300 C.2   501  REA501     -0.0479
      6  C6        83.9050   59.9550   32.7280 C.2   501  REA501     -0.0310
      7  C7        84.7750   58.8680   33.2030 C.2   501  REA501     -0.0092
      8  C8        84.5510   58.1060   34.4300 C.2   501  REA501     -0.0224
      9  C9        85.4810   57.0280   34.7730 C.3   501  REA501      0.0436
     10  C10       86.0710   56.9790   36.1180 C.2   501  REA501     -0.0263
     11  C11       86.9930   58.0290   36.5730 C.2   501  REA501     -0.0260
     12  C12       87.8070   57.7770   37.7690 C.3   501  REA501      0.0479
     13  C13       88.1510   58.8390   38.7300 C.2   501  REA501     -0.0330
     14  C14       88.5820   58.4470   40.0170 C.2   501  REA501      0.0780
     15  C15       88.9910   59.3880   41.0730 C.2   501  REA501      0.3873
     16  C16       85.5280   59.9920   30.8940 C.3   501  REA501      0.0043
     17  C17       83.1460   59.5700   30.3770 C.3   501  REA501      0.0043
     18  C18       82.7010   60.2920   34.9690 C.3   501  REA501      0.0260
     19  C19       85.7700   55.9610   33.7610 C.3   501  REA501      0.0094
     20  C20       88.0170   60.2800   38.3370 C.3   501  REA501      0.0269
     21  O1        89.0010   59.0100   42.2640 O.co2 501  REA501     -0.2406
     22  O2        89.3490   60.5540   40.8080 O.co2 501  REA501     -0.2406
@<TRIPOS>BOND
     1    17     1    1
     2    16     1    1
     3     2     1    1
     4     2     3    1
     5     1     6    1
     6     3     4    1
     7     6     7    1
     8     6     5    2
     9     4     5    1
    10     7     8    2
    11     5    18    1
    12    19     9    1
    13     8     9    1
    14     9    10    1
    15    10    11    2
    16    11    12    1
    17    12    13    1
    18    20    13    1
    19    13    14    2
    20    14    15    1
    21    22    15   ar
    22    15    21   ar
