@<TRIPOS>MOLECULE
3fc8_IFA_A_1.pdb
 25 26 0 0 0
SMALL
GASTEIGER

@<TRIPOS>ATOM
      1  FAF       21.2200   -2.3560   -7.9650 F     3000  IFA3000    -0.2041
      2  CAT       21.1810   -1.1600   -8.5630 C.ar  3000  IFA3000     0.1423
      3  CAJ       21.2000   -1.1490   -9.9590 C.ar  3000  IFA3000     0.0592
      4  CAS       21.1510    0.0470  -10.6530 C.ar  3000  IFA3000     0.1424
      5  FAE       21.1690    0.0430  -12.0020 F     3000  IFA3000    -0.2041
      6  CAH       21.0970    1.2400   -9.9270 C.ar  3000  IFA3000     0.0298
      7  CAI       21.0980    1.2210   -8.5210 C.ar  3000  IFA3000     0.0045
      8  CAY       21.1210    0.0130   -7.7990 C.ar  3000  IFA3000     0.0273
      9  CAW       21.1330   -0.0300   -6.3630 C.2   3000  IFA3000    -0.0007
     10  CAL       20.1650    0.6540   -5.6100 C.2   3000  IFA3000     0.0073
     11  CAK       22.0610   -0.7330   -5.5650 C.2   3000  IFA3000    -0.0082
     12  CAU       22.1000   -0.7980   -4.1120 C.3   3000  IFA3000     0.1363
     13  IAG       23.6320   -1.9410   -3.2100 I     3000  IFA3000    -0.0621
     14  CAV       21.2140   -0.0970   -3.1990 C.2   3000  IFA3000     0.1909
     15  OAD       21.0660   -0.0590   -1.9720 O.2   3000  IFA3000    -0.2900
     16  CAX       20.1730    0.6250   -4.1500 C.2   3000  IFA3000     0.0907
     17  CAR       18.9600    1.4680   -3.6130 C.2   3000  IFA3000     0.2676
     18  OAC       18.0810    2.0320   -4.3060 O.2   3000  IFA3000    -0.2683
     19  NAO       18.8540    1.5080   -2.2750 N.am  3000  IFA3000    -0.2010
     20  CAM       17.8470    2.1350   -1.4090 C.3   3000  IFA3000     0.1271
     21  CAN       16.6480    1.1860   -1.4740 C.3   3000  IFA3000     0.1329
     22  CAQ       15.9400    0.9830   -0.1530 C.2   3000  IFA3000     0.3189
     23  OAB       16.0840    1.7740    0.7700 O.2   3000  IFA3000    -0.2500
     24  OAP       15.0680   -0.1700    0.0360 O.3   3000  IFA3000    -0.4443
     25  CAA       13.9880   -0.1250    0.9740 C.3   3000  IFA3000     0.2556
@<TRIPOS>BOND
     1     5     4    1
     2     4     3   ar
     3     4     6   ar
     4     3     2   ar
     5     6     7   ar
     6     2     1    1
     7     2     8   ar
     8     7     8   ar
     9     8     9    1
    10     9    10    1
    11     9    11    2
    12    10    16    2
    13    11    12    1
    14    18    17    2
    15    16    17    1
    16    16    14    1
    17    12    13    1
    18    12    14    1
    19    17    19   am
    20    14    15    2
    21    19    20    1
    22    21    20    1
    23    21    22    1
    24    22    24    1
    25    22    23    2
    26    24    25    1
