@<TRIPOS>MOLECULE
3fc9_CDP_B_1.pdb
 25 26 0 0 0
SMALL
GASTEIGER

@<TRIPOS>ATOM
      1  O3B       33.9660   40.2970  117.2510 O.3   143  CDP143     -0.1143
      2  PB        34.8000   41.4510  116.7480 P.3   143  CDP143      0.5373
      3  O1B       35.9110   41.9040  117.6600 O.3   143  CDP143     -0.1143
      4  O2B       35.2530   41.3150  115.3190 O.2   143  CDP143     -0.2221
      5  O3A       33.7300   42.6600  116.7440 O.3   143  CDP143     -0.2261
      6  PA        33.5150   43.7010  115.5290 P.3   143  CDP143      0.2231
      7  O1A       34.4110   43.3510  114.3650 O.2   143  CDP143     -0.5169
      8  O2A       32.0390   43.9200  115.3380 O.3   143  CDP143     -0.4370
      9  O5'       34.0320   45.0510  116.2150 O.3   143  CDP143     -0.3111
     10  C5'       35.4100   45.3880  116.1760 C.3   143  CDP143      0.1813
     11  C4'       35.7150   45.8820  117.5730 C.3   143  CDP143      0.1799
     12  O4'       35.1750   47.1880  117.7710 O.3   143  CDP143     -0.3320
     13  C3'       35.0870   45.0020  118.6320 C.3   143  CDP143      0.2158
     14  O3'       36.0270   44.0060  119.0410 O.3   143  CDP143     -0.2175
     15  C2'       34.8200   45.9660  119.7660 C.3   143  CDP143      0.2319
     16  O2'       35.9360   45.9120  120.6580 O.3   143  CDP143     -0.2157
     17  C1'       34.7520   47.3480  119.1250 C.3   143  CDP143      0.2400
     18  N1        33.3760   47.8680  119.0940 N.am  143  CDP143     -0.1778
     19  C2        32.9820   49.0100  119.8350 C.1   143  CDP143      0.2756
     20  O2        33.8100   49.6240  120.5370 O.2   143  CDP143     -0.1925
     21  N3        31.7050   49.4530  119.7870 N.2   143  CDP143     -0.3024
     22  C4        30.7930   48.8030  119.0340 C.2   143  CDP143      0.2346
     23  N4        29.5130   49.2370  118.9800 N.pl3 143  CDP143     -0.0921
     24  C5        31.1590   47.6810  118.3060 C.2   143  CDP143      0.0687
     25  C6        32.4670   47.2240  118.3550 C.2   143  CDP143      0.0836
@<TRIPOS>BOND
     1     7     6    2
     2     4     2    2
     3     8     6    1
     4     6     9    1
     5     6     5    1
     6    10     9    1
     7    10    11    1
     8     5     2    1
     9     2     1    1
    10     2     3    1
    11    11    12    1
    12    11    13    1
    13    12    17    1
    14    24    25    2
    15    24    22    1
    16    25    18    1
    17    13    14    1
    18    13    15    1
    19    23    22    1
    20    22    21    2
    21    18    17    1
    22    18    19   am
    23    17    15    1
    24    15    16    1
    25    21    19    2
    26    19    20    2
