@<TRIPOS>MOLECULE
3fc9_CTP_A_1.pdb
 29 30 0 0 0
SMALL
GASTEIGER

@<TRIPOS>ATOM
      1  N1        11.7430   23.4970  140.7830 N.am  142  CTP142     -0.1778
      2  C2        11.4510   22.4240  141.6100 C.1   142  CTP142      0.2756
      3  N3        10.8570   21.2850  141.1060 N.2   142  CTP142     -0.3024
      4  C4        10.4670   21.2530  139.7840 C.2   142  CTP142      0.2346
      5  C5        10.6960   22.3560  138.9640 C.2   142  CTP142      0.0687
      6  C6        11.4450   23.4290  139.4460 C.2   142  CTP142      0.0836
      7  O2        11.7200   22.4900  142.8080 O.2   142  CTP142     -0.1925
      8  N4         9.8770   20.1640  139.3010 N.pl3 142  CTP142     -0.0921
      9  C1'       12.3490   24.7140  141.3690 C.3   142  CTP142      0.2400
     10  C2'       13.7630   24.8990  140.8510 C.3   142  CTP142      0.2319
     11  O2'       14.5970   24.9940  141.9800 O.3   142  CTP142     -0.2157
     12  C3'       13.7360   26.2330  140.1340 C.3   142  CTP142      0.2158
     13  C4'       12.5470   26.9260  140.7710 C.3   142  CTP142      0.1799
     14  O4'       11.6270   25.8860  141.0430 O.3   142  CTP142     -0.3320
     15  O3'       14.9240   26.9810  140.2910 O.3   142  CTP142     -0.2175
     16  C5'       11.9680   28.0030  139.8660 C.3   142  CTP142      0.1813
     17  O5'       11.2470   27.3950  138.8260 O.3   142  CTP142     -0.3112
     18  PA        11.7110   27.6440  137.3130 P.3   142  CTP142      0.2189
     19  O1A       11.1190   28.9760  136.9360 O.3   142  CTP142     -0.4371
     20  O2A       11.2570   26.5120  136.4230 O.2   142  CTP142     -0.5170
     21  O3A       13.3200   27.6700  137.3660 O.3   142  CTP142     -0.2700
     22  PB        14.2280   28.9820  137.1490 P.3   142  CTP142      0.2277
     23  O1B       15.3550   28.5590  136.2420 O.2   142  CTP142     -0.5168
     24  O2B       14.7990   29.4720  138.4650 O.3   142  CTP142     -0.4368
     25  O3B       13.3390   30.1110  136.3700 O.3   142  CTP142     -0.2258
     26  PG        12.4570   31.3430  136.9840 P.3   142  CTP142      0.5373
     27  O1G       12.9350   32.6410  136.3580 O.2   142  CTP142     -0.2221
     28  O2G       12.5210   31.4650  138.5000 O.3   142  CTP142     -0.1143
     29  O3G       11.0140   31.1400  136.5540 O.3   142  CTP142     -0.1143
@<TRIPOS>BOND
     1    23    22    2
     2    27    26    2
     3    25    26    1
     4    25    22    1
     5    20    18    2
     6    29    26    1
     7    19    18    1
     8    26    28    1
     9    22    21    1
    10    22    24    1
    11    18    21    1
    12    18    17    1
    13    17    16    1
    14     5     6    2
    15     5     4    1
    16     8     4    1
    17     6     1    1
    18     4     3    2
    19    16    13    1
    20    12    15    1
    21    12    13    1
    22    12    10    1
    23    13    14    1
    24     1     9    1
    25     1     2   am
    26    10     9    1
    27    10    11    1
    28    14     9    1
    29     3     2    2
    30     2     7    2
