@<TRIPOS>MOLECULE
3fcb_IFB_A_1.pdb
 24 25 0 0 0
SMALL
GASTEIGER

@<TRIPOS>ATOM
      1  OAP       16.3770    0.2720   -0.7450 O.co2 3000  IFB3000    -0.2456
      2  CAQ       17.4320    0.8580   -0.7780 C.2   3000  IFB3000     0.3667
      3  OAB       18.4700    0.3830   -0.2400 O.co2 3000  IFB3000    -0.2456
      4  CAN       17.4810    2.2040   -1.4870 C.3   3000  IFB3000     0.1374
      5  CAM       18.9310    2.8220   -1.5200 C.3   3000  IFB3000     0.1273
      6  NAO       19.7910    2.0010   -2.4780 N.am  3000  IFB3000    -0.2010
      7  CAR       19.5820    1.7910   -3.7280 C.2   3000  IFB3000     0.2679
      8  OAC       18.5460    2.2610   -4.3020 O.2   3000  IFB3000    -0.2683
      9  CAX       20.6030    0.8770   -4.4770 C.ar  3000  IFB3000     0.0943
     10  CAL       20.6340    0.8310   -5.8650 C.ar  3000  IFB3000     0.0079
     11  CAV       21.5150    0.0320   -3.7360 C.ar  3000  IFB3000     0.2053
     12  OAD       21.5190    0.0280   -2.4160 O.3   3000  IFB3000    -0.2860
     13  CAU       22.4340   -0.8160   -4.4080 C.ar  3000  IFB3000     0.0691
     14  IAG       23.8320   -2.0950   -3.3050 I     3000  IFB3000    -0.0392
     15  CAK       22.4100   -0.7950   -5.8090 C.ar  3000  IFB3000     0.0091
     16  CAW       21.5210    0.0160   -6.5650 C.ar  3000  IFB3000     0.0029
     17  CAY       21.5220    0.0140   -7.9980 C.ar  3000  IFB3000     0.0276
     18  CAT       21.5410   -1.2220   -8.7620 C.ar  3000  IFB3000     0.1423
     19  FAF       21.5790   -2.4000   -8.1890 F     3000  IFB3000    -0.2041
     20  CAI       21.4980    1.2600   -8.7230 C.ar  3000  IFB3000     0.0045
     21  CAH       21.4900    1.2630  -10.1160 C.ar  3000  IFB3000     0.0298
     22  CAS       21.5220    0.0140  -10.8160 C.ar  3000  IFB3000     0.1424
     23  FAE       21.5240    0.0040  -12.1690 F     3000  IFB3000    -0.2041
     24  CAJ       21.5470   -1.2240  -10.1360 C.ar  3000  IFB3000     0.0592
@<TRIPOS>BOND
     1    23    22    1
     2    22    24   ar
     3    22    21   ar
     4    24    18   ar
     5    21    20   ar
     6    18    19    1
     7    18    17   ar
     8    20    17   ar
     9    17    16    1
    10    16    10   ar
    11    16    15   ar
    12    10     9   ar
    13    15    13   ar
    14     9    11   ar
    15     9     7    1
    16    13    11   ar
    17    13    14    1
    18     8     7    2
    19    11    12    1
    20     7     6   am
    21     6     5    1
    22     5     4    1
    23     4     2    1
    24     2     1   ar
    25     2     3   ar
