@<TRIPOS>MOLECULE
3fcc_ATP_A_1.pdb
 31 33 0 0 0
SMALL
GASTEIGER

@<TRIPOS>ATOM
      1  PG        21.4920   -4.1900    7.7810 P.3   711  ATP711      0.5373
      2  O1G       22.5180   -5.0270    8.3650 O.3   711  ATP711     -0.1143
      3  O2G       21.9550   -2.7690    7.7790 O.3   711  ATP711     -0.1143
      4  O3G       21.2240   -4.6110    6.4250 O.2   711  ATP711     -0.2221
      5  PB        20.0260   -5.2660    9.8900 P.3   711  ATP711      0.2277
      6  O1B       18.6860   -5.1280   10.5110 O.2   711  ATP711     -0.5168
      7  O2B       21.0610   -4.9460   10.8530 O.3   711  ATP711     -0.4368
      8  O3B       20.1230   -4.2840    8.6430 O.3   711  ATP711     -0.2258
      9  PA        19.3480   -7.9840    9.8920 P.3   711  ATP711      0.2189
     10  O1A       18.0690   -8.0230    9.0310 O.2   711  ATP711     -0.5170
     11  O2A       20.1140   -9.2440    9.7430 O.3   711  ATP711     -0.4371
     12  O3A       20.2670   -6.7650    9.3830 O.3   711  ATP711     -0.2700
     13  O5'       18.9360   -7.7500   11.4900 O.3   711  ATP711     -0.3112
     14  C5'       19.8500   -8.2250   12.6170 C.3   711  ATP711      0.1813
     15  C4'       19.8490   -7.3260   13.6000 C.3   711  ATP711      0.1821
     16  O4'       18.5040   -7.2250   14.2400 O.3   711  ATP711     -0.3135
     17  C3'       20.8360   -7.7770   14.7350 C.3   711  ATP711      0.2184
     18  O3'       22.1300   -7.3620   14.4500 O.3   711  ATP711     -0.2174
     19  C2'       20.1120   -7.2570   16.0370 C.3   711  ATP711      0.2570
     20  O2'       20.6160   -5.8400   16.3140 O.3   711  ATP711     -0.2130
     21  C1'       18.6360   -7.1660   15.6720 C.3   711  ATP711      0.3186
     22  N9        17.9600   -8.1730   16.2650 N.pl3 711  ATP711     -0.1439
     23  C8        17.7400   -9.4640   15.7570 C.3   711  ATP711      0.3377
     24  N7        17.0560  -10.1520   16.6110 N.2   711  ATP711     -0.2095
     25  C5        16.7930   -9.3910   17.6920 C.2   711  ATP711      0.2526
     26  C6        16.1130   -9.6050   18.8930 C.2   711  ATP711      0.4393
     27  N6        15.5370  -10.7960   19.1630 N.pl3 711  ATP711      0.2180
     28  N1        16.0280   -8.5700   19.8250 N.2   711  ATP711      0.0021
     29  C2        16.6250   -7.3100   19.5660 C.3   711  ATP711      0.5254
     30  N3        17.2970   -7.0620   18.4060 N.2   711  ATP711     -0.0055
     31  C4        17.3580   -8.1430   17.4880 C.2   711  ATP711      0.3518
@<TRIPOS>BOND
     1     4     1    2
     2     3     1    1
     3     1     2    1
     4     1     8    1
     5     8     5    1
     6    10     9    2
     7    12     5    1
     8    12     9    1
     9    11     9    1
    10     5     6    2
    11     5     7    1
    12     9    13    1
    13    13    14    1
    14    14    15    1
    15    15    16    1
    16    15    17    1
    17    16    21    1
    18    18    17    1
    19    17    19    1
    20    21    19    1
    21    21    22    1
    22    23    22    1
    23    23    24    1
    24    19    20    1
    25    22    31    1
    26    24    25    2
    27    31    25    1
    28    31    30    2
    29    25    26    1
    30    30    29    1
    31    26    27    1
    32    26    28    2
    33    29    28    1
