@<TRIPOS>MOLECULE
3fce_ATP_A_1.pdb
 31 33 0 0 0
SMALL
GASTEIGER

@<TRIPOS>ATOM
      1  PG        21.3230   -4.1200    6.7250 P.3   711  ATP711      0.5373
      2  O1G       22.5960   -4.5680    7.2250 O.3   711  ATP711     -0.1143
      3  O2G       21.4590   -2.7100    6.2240 O.3   711  ATP711     -0.1143
      4  O3G       20.8900   -4.9720    5.6370 O.2   711  ATP711     -0.2221
      5  PB        20.2250   -5.3360    9.0000 P.3   711  ATP711      0.2277
      6  O1B       19.0950   -5.1160    9.9350 O.3   711  ATP711     -0.4368
      7  O2B       21.4780   -5.2890    9.7320 O.2   711  ATP711     -0.5168
      8  O3B       20.2130   -4.1730    7.9040 O.3   711  ATP711     -0.2258
      9  PA        19.6960   -8.1470    9.0980 P.3   711  ATP711      0.2189
     10  O1A       18.4230   -8.7480    8.4950 O.2   711  ATP711     -0.5170
     11  O2A       20.8020   -9.1210    8.9600 O.3   711  ATP711     -0.4371
     12  O3A       20.0700   -6.7790    8.2760 O.3   711  ATP711     -0.2700
     13  O5'       19.4240   -7.8350   10.7120 O.3   711  ATP711     -0.3112
     14  C5'       20.4000   -8.3050   11.7940 C.3   711  ATP711      0.1813
     15  C4'       20.4370   -7.3970   12.7690 C.3   711  ATP711      0.1821
     16  O4'       19.1040   -7.2720   13.4030 O.3   711  ATP711     -0.3135
     17  C3'       21.4080   -7.8420   13.9240 C.3   711  ATP711      0.2184
     18  O3'       22.7240   -7.5350   13.6340 O.3   711  ATP711     -0.2174
     19  C2'       20.7270   -7.2050   15.1870 C.3   711  ATP711      0.2570
     20  O2'       21.2330   -5.7550   15.3210 O.3   711  ATP711     -0.2130
     21  C1'       19.2450   -7.1660   14.8360 C.3   711  ATP711      0.3186
     22  N9        18.5600   -8.1470   15.4950 N.pl3 711  ATP711     -0.1439
     23  C8        18.2710   -9.4510   15.0450 C.3   711  ATP711      0.3377
     24  N7        17.5990  -10.0890   15.9590 N.2   711  ATP711     -0.2095
     25  C5        17.4170   -9.2690   17.0190 C.2   711  ATP711      0.2526
     26  C6        16.7870   -9.3990   18.2610 C.2   711  ATP711      0.4393
     27  N6        16.1750  -10.5520   18.6230 N.pl3 711  ATP711      0.2180
     28  N1        16.7930   -8.3090   19.1470 N.2   711  ATP711      0.0021
     29  C2        17.4240   -7.0900   18.7960 C.3   711  ATP711      0.5254
     30  N3        18.0450   -6.9200   17.6030 N.2   711  ATP711     -0.0055
     31  C4        18.0180   -8.0480   16.7330 C.2   711  ATP711      0.3518
@<TRIPOS>BOND
     1     4     1    2
     2     3     1    1
     3     1     2    1
     4     1     8    1
     5     8     5    1
     6    12     5    1
     7    12     9    1
     8    10     9    2
     9    11     9    1
    10     5     7    2
    11     5     6    1
    12     9    13    1
    13    13    14    1
    14    14    15    1
    15    15    16    1
    16    15    17    1
    17    16    21    1
    18    18    17    1
    19    17    19    1
    20    21    19    1
    21    21    22    1
    22    23    22    1
    23    23    24    1
    24    19    20    1
    25    22    31    1
    26    24    25    2
    27    31    25    1
    28    31    30    2
    29    25    26    1
    30    30    29    1
    31    26    27    1
    32    26    28    2
    33    29    28    1
