@<TRIPOS>MOLECULE
3fcf_FCF_A_1.pdb
 25 26 0 0 0
SMALL
GASTEIGER

@<TRIPOS>ATOM
      1  O40      -11.8940   -7.5360   -1.4420 O.co2   1  FCF1       -0.2406
      2  C38      -12.4150   -7.3750   -2.7660 C.2     1  FCF1        0.3878
      3  O39      -12.6310   -8.3610   -3.5070 O.co2   1  FCF1       -0.2406
      4  C5       -12.7200   -5.9920   -3.2720 C.ar    1  FCF1        0.0798
      5  C6       -13.0780   -5.7900   -4.6080 C.ar    1  FCF1        0.0066
      6  C1       -13.3650   -4.5070   -5.0760 C.ar    1  FCF1        0.0003
      7  C4       -12.6520   -4.9010   -2.4020 C.ar    1  FCF1        0.0082
      8  C3       -12.9360   -3.6160   -2.8660 C.ar    1  FCF1        0.0226
      9  C2       -13.2930   -3.4220   -4.2040 C.ar    1  FCF1        0.0017
     10  C17      -12.8570   -2.4720   -1.9260 C.2     1  FCF1        0.1400
     11  N18      -13.2000   -1.3080   -2.2730 N.2     1  FCF1       -0.0813
     12  O21      -13.1210   -0.2820   -1.3880 O.2     1  FCF1       -0.3730
     13  C22      -13.4680    1.0450   -1.7900 C.3     1  FCF1        0.2885
     14  C23      -14.9770    1.2460   -1.6660 C.3     1  FCF1        0.2885
     15  O27      -15.3010    1.9220   -0.4470 O.2     1  FCF1       -0.3730
     16  N31      -15.1160    1.3030    0.7470 N.2     1  FCF1       -0.0788
     17  C30      -15.8180    1.5900    1.7550 C.2     1  FCF1        0.1697
     18  C16      -15.5660    0.8790    3.0270 C.2     1  FCF1        0.1644
     19  N11      -14.9970   -0.3370    2.9960 N.2     1  FCF1       -0.3095
     20  C15      -15.9080    1.4510    4.2490 C.3     1  FCF1        0.1969
     21  C14      -15.6410    0.7250    5.4090 C.1     1  FCF1        0.2008
     22  O33      -15.9250    1.1920    6.5320 O.2     1  FCF1       -0.2129
     23  N13      -15.0700   -0.4870    5.3190 N.2     1  FCF1       -0.2366
     24  C12      -14.7480   -1.0130    4.1270 C.1     1  FCF1        0.3650
     25  O34      -14.2130   -2.1410    4.0700 O.2     1  FCF1       -0.1745
@<TRIPOS>BOND
     1     6     5   ar
     2     6     9   ar
     3     5     4   ar
     4     9     8   ar
     5     3     2   ar
     6     4     2    1
     7     4     7   ar
     8     8     7   ar
     9     8    10    1
    10     2     1   ar
    11    11    10    2
    12    11    12    1
    13    13    14    1
    14    13    12    1
    15    14    15    1
    16    15    16    1
    17    16    17    2
    18    17    18    1
    19    19    18    2
    20    19    24    2
    21    18    20    1
    22    25    24    2
    23    24    23    2
    24    20    21    1
    25    23    21    2
    26    21    22    2
