@<TRIPOS>MOLECULE
3fci_3FI_A_1.pdb
 25 26 0 0 0
SMALL
GASTEIGER

@<TRIPOS>ATOM
      1  C1       -12.9750   -4.8020   -5.5910 C.ar    1  3FI1        0.0003
      2  C2       -13.0810   -3.6930   -4.7500 C.ar    1  3FI1        0.0017
      3  C3       -12.8910   -3.8110   -3.3720 C.ar    1  3FI1        0.0226
      4  C4       -12.5960   -5.0200   -2.7450 C.ar    1  3FI1        0.0082
      5  C5       -12.4980   -6.1530   -3.6160 C.ar    1  3FI1        0.0798
      6  C6       -12.6850   -6.0430   -5.0170 C.ar    1  3FI1        0.0066
      7  O40      -11.6310   -7.7600   -2.0980 O.co2   1  3FI1       -0.2406
      8  C38      -12.1950   -7.5490   -3.1390 C.2     1  3FI1        0.3878
      9  O39      -12.6360   -8.5580   -4.0020 O.co2   1  3FI1       -0.2406
     10  C9       -13.0600   -2.4860   -2.6670 C.2     1  3FI1        0.1400
     11  N18      -12.5520   -1.2670   -2.5120 N.2     1  3FI1       -0.0814
     12  O1       -13.0850   -0.2560   -1.7000 O.2     1  3FI1       -0.3772
     13  C22      -13.2500    0.9440   -2.4090 C.3     1  3FI1        0.2400
     14  C23      -12.9030    2.0730   -1.4860 C.3     1  3FI1        0.0691
     15  C8       -14.1910    2.5380   -0.7730 C.3     1  3FI1        0.0931
     16  N31      -14.3870    1.8700    0.5110 N.3     1  3FI1       -0.2107
     17  C30      -15.7080    1.7780    1.1730 C.3     1  3FI1        0.1450
     18  C16      -15.5710    1.0750    2.5440 C.2     1  3FI1        0.1373
     19  N11      -15.8920    1.6000    3.7940 N.2     1  3FI1       -0.3142
     20  C15      -15.0350   -0.2150    2.3200 C.3     1  3FI1        0.1921
     21  C14      -14.8680   -0.8860    3.5140 C.1     1  3FI1        0.2004
     22  O33      -14.3750   -2.0980    3.4240 O.2     1  3FI1       -0.2129
     23  N13      -15.1600   -0.4790    4.7470 N.2     1  3FI1       -0.2366
     24  C12      -15.6740    0.7900    4.8990 C.1     1  3FI1        0.3647
     25  O34      -15.9190    1.1780    6.0550 O.2     1  3FI1       -0.1745
@<TRIPOS>BOND
     1     1     6   ar
     2     1     2   ar
     3     6     5   ar
     4     2     3   ar
     5     9     8   ar
     6     5     8    1
     7     5     4   ar
     8     3     4   ar
     9     3    10    1
    10     8     7   ar
    11    10    11    2
    12    11    12    1
    13    13    12    1
    14    13    14    1
    15    14    15    1
    16    15    16    1
    17    16    17    1
    18    17    18    1
    19    20    18    1
    20    20    21    1
    21    18    19    2
    22    22    21    2
    23    21    23    2
    24    19    24    2
    25    23    24    2
    26    24    25    2
