@<TRIPOS>MOLECULE
3fck_FCK_B_1.pdb
 25 26 0 0 0
SMALL
GASTEIGER

@<TRIPOS>ATOM
      1  C1       -18.0920   -2.4200    9.2670 C.ar    1  FCK1       -0.0001
      2  C2       -17.3120   -1.7000    8.3680 C.ar    1  FCK1       -0.0029
      3  C3       -17.4500   -1.8990    6.9970 C.ar    1  FCK1       -0.0046
      4  C4       -18.3790   -2.8250    6.5370 C.ar    1  FCK1        0.0037
      5  C5       -19.1630   -3.5500    7.4280 C.ar    1  FCK1        0.0795
      6  C6       -19.0170   -3.3450    8.7980 C.ar    1  FCK1        0.0066
      7  C7       -16.8390    0.3650    4.0530 C.3     1  FCK1        0.0918
      8  O39      -20.2450   -4.7070    5.7370 O.co2   1  FCK1       -0.2406
      9  C38      -20.1320   -4.5210    6.9090 C.2     1  FCK1        0.3877
     10  O40      -20.8660   -5.1690    7.8290 O.co2   1  FCK1       -0.2406
     11  C17      -16.6190   -1.1330    6.0060 C.3     1  FCK1        0.1150
     12  N18      -17.4370   -0.1610    5.2810 N.3     1  FCK1       -0.2132
     13  C22      -17.0630   -0.5600    2.8500 C.3     1  FCK1        0.0531
     14  C23      -16.4860    0.0100    1.5520 C.3     1  FCK1        0.1698
     15  O27      -16.7490   -0.8900    0.5000 O.3     1  FCK1       -0.2658
     16  N31      -15.8620   -0.8430   -0.7620 N.4     1  FCK1       -0.0763
     17  C30      -16.4230   -1.0440   -1.8730 C.3     1  FCK1        0.1776
     18  C16      -15.8400   -0.5190   -3.1330 C.2     1  FCK1        0.1399
     19  N11      -15.1420    0.6320   -3.1460 N.2     1  FCK1       -0.3141
     20  C15      -16.0230   -1.2210   -4.3230 C.3     1  FCK1        0.1922
     21  C14      -15.4740   -0.7110   -5.4960 C.1     1  FCK1        0.2004
     22  O33      -15.6180   -1.3140   -6.5800 O.2     1  FCK1       -0.2129
     23  N13      -14.7850    0.4380   -5.4550 N.2     1  FCK1       -0.2366
     24  C12      -14.6210    1.0980   -4.2980 C.1     1  FCK1        0.3647
     25  O34      -13.9740    2.1640   -4.3060 O.2     1  FCK1       -0.1745
@<TRIPOS>BOND
     1    22    21    2
     2    21    23    2
     3    21    20    1
     4    23    24    2
     5    20    18    1
     6    25    24    2
     7    24    19    2
     8    19    18    2
     9    18    17    1
    10    17    16    1
    11    16    15    1
    12    15    14    1
    13    14    13    1
    14    13     7    1
    15     7    12    1
    16    12    11    1
    17     8     9   ar
    18    11     3    1
    19     4     3   ar
    20     4     5   ar
    21     9     5    1
    22     9    10   ar
    23     3     2   ar
    24     5     6   ar
    25     2     1   ar
    26     6     1   ar
