@<TRIPOS>MOLECULE
3fcl_3FL_A_1.pdb
 25 26 0 0 0
SMALL
GASTEIGER

@<TRIPOS>ATOM
      1  C8        35.0190    4.6120   19.0000 C.3     1  3FL1        0.0892
      2  C5        40.9530    1.0470   14.9850 C.ar    1  3FL1        0.0795
      3  C6        41.5200    2.3120   14.8690 C.ar    1  3FL1        0.0066
      4  C2        39.3140    3.2920   14.8070 C.ar    1  3FL1       -0.0029
      5  C4        39.5670    0.8960   15.0060 C.ar    1  3FL1        0.0037
      6  O40       41.8780   -0.8370   16.0430 O.co2   1  3FL1       -0.2406
      7  C38       41.8590   -0.1460   15.0620 C.2     1  3FL1        0.3877
      8  O39       42.6280   -0.3970   14.0100 O.co2   1  3FL1       -0.2406
      9  C1        40.7010    3.4350   14.7830 C.ar    1  3FL1       -0.0001
     10  C3        38.7480    2.0250   14.9180 C.ar    1  3FL1       -0.0046
     11  C17       37.2440    1.8880   14.9510 C.3     1  3FL1        0.1150
     12  N18       36.8120    1.6570   16.3170 N.3     1  3FL1       -0.2133
     13  C7        36.8750    2.7140   17.3040 C.3     1  3FL1        0.0891
     14  C22       36.0250    2.3820   18.5220 C.3     1  3FL1        0.0203
     15  C23       35.9790    3.5420   19.5040 C.3     1  3FL1        0.0203
     16  N31       33.8040    4.6370   19.7300 N.3     1  3FL1       -0.2108
     17  C30       33.1230    5.8270   19.3690 C.3     1  3FL1        0.1450
     18  C16       31.8710    5.4740   18.6000 C.2     1  3FL1        0.1373
     19  N11       31.9660    4.8730   17.3990 N.2     1  3FL1       -0.3142
     20  C15       30.6260    5.7740   19.1360 C.3     1  3FL1        0.1921
     21  C14       29.5030    5.4370   18.3910 C.1     1  3FL1        0.2004
     22  O33       28.3620    5.6830   18.8290 O.2     1  3FL1       -0.2129
     23  N13       29.6490    4.8340   17.1970 N.2     1  3FL1       -0.2366
     24  C12       30.8640    4.5560   16.7020 C.1     1  3FL1        0.3647
     25  O34       30.9640    3.9900   15.5920 O.2     1  3FL1       -0.1745
@<TRIPOS>BOND
     1     8     7   ar
     2     9     4   ar
     3     9     3   ar
     4     4    10   ar
     5     3     2   ar
     6    10    11    1
     7    10     5   ar
     8    11    12    1
     9     2     5   ar
    10     2     7    1
    11     7     6   ar
    12    25    24    2
    13    12    13    1
    14    24    23    2
    15    24    19    2
    16    23    21    2
    17    13    14    1
    18    19    18    2
    19    21    22    2
    20    21    20    1
    21    14    15    1
    22    18    20    1
    23    18    17    1
    24     1    15    1
    25     1    16    1
    26    17    16    1
