@<TRIPOS>MOLECULE
3fco_NAP_A_1.pdb
 48 52 0 0 0
SMALL
GASTEIGER

@<TRIPOS>ATOM
      1  PA        59.0720   39.3220   -3.7740 P.3     1  NAP1        0.2189
      2  O1A       59.3970   40.3520   -4.7880 O.2     1  NAP1       -0.5170
      3  O2A       59.3610   37.8960   -4.0670 O.3     1  NAP1       -0.4371
      4  O5B       59.8310   39.7500   -2.4240 O.3     1  NAP1       -0.3112
      5  C5B       59.8910   38.9250   -1.2900 C.3     1  NAP1        0.1813
      6  C4B       60.7020   39.7590   -0.3400 C.3     1  NAP1        0.1820
      7  O4B       60.6440   39.1780    0.9380 O.3     1  NAP1       -0.3136
      8  C3B       62.1580   39.7380   -0.7390 C.3     1  NAP1        0.2157
      9  O3B       62.7640   40.9080   -0.2500 O.3     1  NAP1       -0.2175
     10  C2B       62.7110   38.6130    0.0800 C.3     1  NAP1        0.2314
     11  O2B       64.0990   38.7850    0.2470 O.3     1  NAP1       -0.2630
     12  C1B       61.9320   38.8440    1.3650 C.3     1  NAP1        0.3158
     13  N9A       61.8990   37.6200    2.1590 N.pl3   1  NAP1       -0.1439
     14  C8A       61.6680   36.3410    1.7060 C.3     1  NAP1        0.3377
     15  N7A       61.7830   35.5080    2.7800 N.2     1  NAP1       -0.2095
     16  C5A       62.1100   36.2560    3.8720 C.2     1  NAP1        0.2526
     17  C6A       62.3370   35.9270    5.2010 C.2     1  NAP1        0.4393
     18  N6A       62.2790   34.6530    5.5840 N.pl3   1  NAP1        0.2180
     19  N1A       62.6430   36.8990    6.1170 N.2     1  NAP1        0.0021
     20  C2A       62.7320   38.2180    5.7050 C.3     1  NAP1        0.5254
     21  N3A       62.4960   38.5400    4.3850 N.2     1  NAP1       -0.0055
     22  C4A       62.1880   37.5730    3.4910 C.2     1  NAP1        0.3518
     23  O3        57.4950   39.4140   -3.4650 O.3     1  NAP1       -0.2703
     24  PN        56.3160   40.3810   -3.9350 P.3     1  NAP1        0.2189
     25  O1N       56.8290   41.7470   -4.1080 O.3     1  NAP1       -0.4371
     26  O2N       55.4770   39.7130   -4.9630 O.2     1  NAP1       -0.5170
     27  O5D       55.3580   40.3180   -2.6250 O.3     1  NAP1       -0.3112
     28  C5D       55.3190   41.3660   -1.6530 C.3     1  NAP1        0.1813
     29  C4D       53.9970   41.3190   -0.9410 C.3     1  NAP1        0.1799
     30  O4D       53.0040   41.4940   -1.9040 O.3     1  NAP1       -0.3327
     31  C3D       53.7250   39.9680   -0.2680 C.3     1  NAP1        0.2158
     32  O3D       53.2790   40.1990    1.0440 O.3     1  NAP1       -0.2175
     33  C2D       52.5900   39.4060   -1.0570 C.3     1  NAP1        0.2309
     34  O2D       51.6710   38.5160   -0.4080 O.3     1  NAP1       -0.2158
     35  C1D       51.9420   40.6800   -1.5150 C.3     1  NAP1        0.2263
     36  N1N       51.2070   40.2830   -2.7120 N.pl3   1  NAP1       -0.2787
     37  C2N       51.8820   39.9240   -3.8330 C.3     1  NAP1        0.1244
     38  C3N       51.1620   39.5270   -4.9570 C.2     1  NAP1        0.0544
     39  C7N       51.7920   39.3710   -6.3340 C.2     1  NAP1        0.2818
     40  O7N       50.9770   38.8480   -7.3460 O.2     1  NAP1       -0.2670
     41  N7N       53.0560   39.7070   -6.5840 N.am    1  NAP1       -0.0839
     42  C4N       49.7800   39.5060   -4.9060 C.2     1  NAP1        0.0033
     43  C5N       49.1210   39.8710   -3.7500 C.2     1  NAP1        0.0157
     44  C6N       49.8540   40.2520   -2.6460 C.2     1  NAP1        0.0633
     45  P2B       65.0990   37.5670    0.6800 P.3     1  NAP1        0.5328
     46  O1X       66.4320   38.2520    0.4440 O.3     1  NAP1       -0.1145
     47  O2X       65.0240   37.0590    2.1030 O.3     1  NAP1       -0.1145
     48  O3X       64.7750   36.2840   -0.0410 O.2     1  NAP1       -0.2224
@<TRIPOS>BOND
     1    40    39    2
     2    41    39   am
     3    39    38    1
     4    26    24    2
     5    38    42    2
     6    38    37    1
     7    42    43    1
     8     2     1    2
     9    25    24    1
    10     3     1    1
    11    24    23    1
    12    24    27    1
    13    37    36    1
    14     1    23    1
    15     1     4    1
    16    43    44    2
    17    36    44    1
    18    36    35    1
    19    27    28    1
    20     4     5    1
    21    30    35    1
    22    30    29    1
    23    28    29    1
    24    35    33    1
    25     5     6    1
    26    33    34    1
    27    33    31    1
    28    29    31    1
    29     8     6    1
    30     8     9    1
    31     8    10    1
    32     6     7    1
    33    31    32    1
    34    48    45    2
    35    10    11    1
    36    10    12    1
    37    11    45    1
    38    46    45    1
    39    45    47    1
    40     7    12    1
    41    12    13    1
    42    14    13    1
    43    14    15    1
    44    13    22    1
    45    15    16    2
    46    22    16    1
    47    22    21    2
    48    16    17    1
    49    21    20    1
    50    17    18    1
    51    17    19    2
    52    20    19    1
