@<TRIPOS>MOLECULE
3fco_IIG_A_1.pdb
 29 32 0 0 0
SMALL
GASTEIGER

@<TRIPOS>ATOM
      1  N1        47.4400   35.6800   -5.6980 N.am  293  IIG293     -0.2793
      2  C4        50.6790   36.1450   -5.9270 C.ar  293  IIG293      0.0043
      3  C5        49.7950   35.4960   -5.0310 C.ar  293  IIG293      0.0536
      4  C6        50.2180   34.4110   -4.2550 C.ar  293  IIG293      0.0043
      5  C7        51.5300   33.9560   -4.4140 C.ar  293  IIG293     -0.0015
      6  C8        53.7910   34.0560   -5.5020 C.3   293  IIG293      0.2317
      7  C10       54.3220   33.4340   -4.2270 C.3   293  IIG293      0.0465
      8  C13       46.1260   36.3090   -5.5500 C.3   293  IIG293      0.0757
      9  C15       45.5440   37.0320   -6.7480 C.3   293  IIG293      0.0215
     10  C17       46.7700   32.4690   -7.2490 C.3   293  IIG293      0.0321
     11  C20       47.0700   31.0510   -8.7820 C.3   293  IIG293      0.0281
     12  C21       45.8130   30.1780   -8.9980 C.3   293  IIG293      0.0025
     13  C22       46.8710   30.3190  -10.1110 C.3   293  IIG293      0.0025
     14  C1        46.8320   32.5660   -8.8170 C.3   293  IIG293      0.1267
     15  C18       47.9620   33.5550   -8.7510 C.3   293  IIG293      0.0321
     16  C19       47.5350   34.8640   -8.1140 C.3   293  IIG293      0.0223
     17  O3        45.5050   33.0670   -8.9230 O.3   293  IIG293     -0.2257
     18  C16       46.3580   33.7240   -6.5170 C.3   293  IIG293      0.0223
     19  C12       47.5850   34.5550   -6.6160 C.3   293  IIG293      0.0757
     20  C14       46.2830   37.8300   -5.7050 C.3   293  IIG293      0.0215
     21  C11       48.4120   36.0980   -4.8740 C.2   293  IIG293      0.2489
     22  O2        48.2510   36.9770   -4.0120 O.2   293  IIG293     -0.2699
     23  C3        51.9970   35.6920   -6.0720 C.ar  293  IIG293     -0.0015
     24  C2        52.3900   34.5920   -5.3100 C.ar  293  IIG293      0.0132
     25  C9        53.7270   32.9160   -6.5080 C.3   293  IIG293      0.4263
     26  F2        54.9880   32.7620   -6.8620 F     293  IIG293     -0.1671
     27  F3        53.2270   31.8220   -5.9260 F     293  IIG293     -0.1671
     28  F1        52.9770   33.2160   -7.5670 F     293  IIG293     -0.1671
     29  O1        54.6250   35.0990   -6.0820 O.3   293  IIG293     -0.2124
@<TRIPOS>BOND
     1    13    12    1
     2    13    11    1
     3    12    11    1
     4    17    14    1
     5    14    11    1
     6    14    15    1
     7    14    10    1
     8    15    16    1
     9    16    19    1
    10    28    25    1
    11    10    18    1
    12    26    25    1
    13     9    20    1
    14     9     8    1
    15    19    18    1
    16    19     1    1
    17    25    27    1
    18    25     6    1
    19    29     6    1
    20    23     2   ar
    21    23    24   ar
    22     2     3   ar
    23    20     8    1
    24     1     8    1
    25     1    21   am
    26     6    24    1
    27     6     7    1
    28    24     5   ar
    29     3    21    1
    30     3     4   ar
    31    21    22    2
    32     5     4   ar
