@<TRIPOS>MOLECULE
3fcq_M3S_A_1.pdb
 14 14 0 0 0
SMALL
GASTEIGER

@<TRIPOS>ATOM
      1  O12       37.6510   42.4060   -3.3720 O.2   600  M3S600     -0.2497
      2  C11       36.7500   42.7090   -2.5950 C.2   600  M3S600      0.3220
      3  O1        35.6710   41.9040   -2.5740 O.3   600  M3S600     -0.4242
      4  C2        35.7260   40.7140   -3.2690 C.ar  600  M3S600      0.1507
      5  C7        35.8100   39.5460   -2.4890 C.ar  600  M3S600      0.0130
      6  C1        35.8360   39.6720   -0.9660 C.3   600  M3S600      0.0342
      7  C6        35.8660   38.3060   -3.1300 C.ar  600  M3S600     -0.0012
      8  C5        35.8450   38.2300   -4.5270 C.ar  600  M3S600      0.0001
      9  C4        35.7620   39.3990   -5.3050 C.ar  600  M3S600      0.0096
     10  C3        35.7020   40.6370   -4.6570 C.ar  600  M3S600      0.1140
     11  C8        35.6120   41.9300   -5.5630 C.2   600  M3S600      0.3907
     12  O10       34.8350   42.8840   -5.1130 O.co2 600  M3S600     -0.2404
     13  O9        36.3630   41.8940   -6.6150 O.co2 600  M3S600     -0.2404
     14  C13       36.7080   43.9220   -1.7150 C.3   600  M3S600      0.1216
@<TRIPOS>BOND
     1    13    11   ar
     2    11    12   ar
     3    11    10    1
     4     9    10   ar
     5     9     8   ar
     6    10     4   ar
     7     8     7   ar
     8     1     2    2
     9     4     3    1
    10     4     5   ar
    11     7     5   ar
    12     2     3    1
    13     2    14    1
    14     5     6    1
