@<TRIPOS>MOLECULE
3fcr_PLP_A_1.pdb
 16 16 0 0 0
SMALL
GASTEIGER

@<TRIPOS>ATOM
      1  N1         7.4190   65.7850    9.5460 N.2   458  PLP458     -0.2505
      2  C2         8.5860   65.1200    9.9120 C.2   458  PLP458      0.0679
      3  C2A        9.1460   65.2910   11.2930 C.3   458  PLP458      0.0499
      4  C3         9.2400   64.2890    8.9850 C.3   458  PLP458      0.1987
      5  O3        10.5540   63.9010    9.2110 O.3   458  PLP458     -0.2162
      6  C4         8.6910   64.1290    7.6960 C.3   458  PLP458      0.1228
      7  C4A        9.1750   62.9810    6.8450 C.2   458  PLP458      0.2141
      8  O4A       10.2600   63.0760    6.2660 O.2   458  PLP458     -0.2879
      9  C5         7.5160   64.8120    7.3330 C.2   458  PLP458      0.0147
     10  C6         6.8870   65.6390    8.2680 C.2   458  PLP458      0.0926
     11  C5A        7.0040   64.7310    5.9130 C.3   458  PLP458      0.1780
     12  O4P        6.4690   63.4400    5.6600 O.3   458  PLP458     -0.2656
     13  P          6.4370   62.7760    4.1680 P.3   458  PLP458      0.5329
     14  O1P        5.5350   63.5690    3.2810 O.2   458  PLP458     -0.2224
     15  O2P        5.8950   61.3650    4.3370 O.3   458  PLP458     -0.1145
     16  O3P        7.8340   62.7490    3.6160 O.3   458  PLP458     -0.1145
@<TRIPOS>BOND
     1    14    13    2
     2    16    13    1
     3    13    15    1
     4    13    12    1
     5    12    11    1
     6    11     9    1
     7     8     7    2
     8     7     6    1
     9     9     6    1
    10     9    10    2
    11     6     4    1
    12    10     1    1
    13     4     5    1
    14     4     2    1
    15     1     2    2
    16     2     3    1
