@<TRIPOS>MOLECULE
3fcs_MAN_B_1.pdb
 11 11 0 0 0
SMALL
GASTEIGER

@<TRIPOS>ATOM
      1  C1       -39.0980  -57.0260  -81.5520 C.3   3561  MAN3561     0.1777
      2  C2       -38.4070  -58.3890  -81.5710 C.3   3561  MAN3561     0.2141
      3  C3       -36.9360  -58.2480  -81.9480 C.3   3561  MAN3561     0.2173
      4  C4       -36.7950  -57.4560  -83.2400 C.3   3561  MAN3561     0.2142
      5  C5       -37.5400  -56.1370  -83.0970 C.3   3561  MAN3561     0.1810
      6  C6       -37.4090  -55.3140  -84.3730 C.3   3561  MAN3561     0.2141
      7  O2       -39.0680  -59.2860  -82.4410 O.3   3561  MAN3561    -0.2176
      8  O3       -36.3280  -59.5200  -82.0590 O.3   3561  MAN3561    -0.2175
      9  O4       -35.4350  -57.2060  -83.5140 O.3   3561  MAN3561    -0.2176
     10  O5       -38.9000  -56.4030  -82.8060 O.3   3561  MAN3561    -0.3481
     11  O6       -36.1570  -54.6630  -84.3790 O.3   3561  MAN3561    -0.2176
@<TRIPOS>BOND
     1    11     6    1
     2     6     5    1
     3     9     4    1
     4     4     5    1
     5     4     3    1
     6     5    10    1
     7    10     1    1
     8     7     2    1
     9     8     3    1
    10     3     2    1
    11     2     1    1
