@<TRIPOS>MOLECULE
3fct_MMP_B_1.pdb
 43 47 0 0 0
SMALL
GASTEIGER

@<TRIPOS>ATOM
      1  C1        21.6300  -14.2060   23.8810 C.3   910  MMP910      0.1304
      2  N1        20.5990  -13.5630   22.9610 N.ar  910  MMP910     -0.3253
      3  C11       19.2760  -14.0800   22.9500 C.ar  910  MMP910      0.0585
      4  C12       18.8210  -14.2460   21.5860 C.ar  910  MMP910     -0.0046
      5  C13       19.8500  -13.8310   20.7590 C.ar  910  MMP910      0.0133
      6  C14       20.9530  -13.4040   21.5990 C.ar  910  MMP910      0.0622
      7  C15       22.2040  -12.8840   21.1220 C.2   910  MMP910      0.0498
      8  C16       17.4240  -14.7850   21.1400 C.3   910  MMP910      0.0326
      9  C17       19.8360  -13.8110   19.2460 C.2   910  MMP910      0.0012
     10  C18       20.0480  -14.9210   18.5370 C.2   910  MMP910      0.0000
     11  N2        22.3800  -11.0510   22.7970 N.2   910  MMP910     -0.3677
     12  C21       22.7640  -11.6590   21.6050 C.2   910  MMP910      0.1391
     13  C22       23.7970  -10.8610   20.9690 C.2   910  MMP910      0.0175
     14  C23       24.0300   -9.7630   21.8000 C.2   910  MMP910      0.0555
     15  C24       23.1320   -9.8950   22.9440 C.1   910  MMP910      0.0124
     16  C25       23.0340   -9.0080   24.0600 C.2   910  MMP910      0.1304
     17  C26       24.5060  -11.1710   19.6320 C.3   910  MMP910      0.0344
     18  C27       25.0350   -8.6470   21.5570 C.2   910  MMP910      0.0093
     19  C28       24.7300   -7.6100   20.7560 C.2   910  MMP910      0.0007
     20  N3        21.2230  -10.1420   25.3730 N.2   910  MMP910     -0.3327
     21  C31       22.1650   -9.1270   25.1910 C.1   910  MMP910      0.0183
     22  C32       22.1290   -8.2330   26.3340 C.2   910  MMP910      0.0408
     23  C33       21.1760   -8.7180   27.2120 C.2   910  MMP910      0.0410
     24  C34       20.6060   -9.9130   26.5990 C.1   910  MMP910      0.0183
     25  C35       19.5830  -10.7340   27.1820 C.2   910  MMP910      0.1301
     26  C36       23.0060   -6.9810   26.5480 C.3   910  MMP910      0.0418
     27  C37       20.7900   -8.1100   28.6050 C.3   910  MMP910      0.0482
     28  C38       19.3170   -7.6320   28.7170 C.3   910  MMP910      0.1194
     29  C39       19.0660   -7.1050   30.1180 C.2   910  MMP910      0.3652
     30  O31       18.3660   -7.8710   31.0140 O.co2 910  MMP910     -0.2456
     31  O32       19.5520   -5.8810   30.4880 O.co2 910  MMP910     -0.2456
     32  N4        19.2590  -12.4310   25.3930 N.2   910  MMP910     -0.3680
     33  C41       18.9700  -11.8970   26.6400 C.1   910  MMP910      0.0084
     34  C42       17.9440  -12.7150   27.3000 C.2   910  MMP910      0.0338
     35  C43       17.6390  -13.7510   26.4180 C.2   910  MMP910      0.0135
     36  C44       18.4570  -13.5630   25.2340 C.2   910  MMP910      0.1388
     37  C45       18.4610  -14.3850   24.0730 C.2   910  MMP910      0.0494
     38  C46       16.6120  -14.8890   26.6490 C.3   910  MMP910      0.0341
     39  C47       17.3110  -12.4830   28.7240 C.3   910  MMP910      0.0476
     40  C48       16.2020  -11.3640   28.7160 C.3   910  MMP910      0.1194
     41  C49       14.7630  -11.9190   28.6500 C.2   910  MMP910      0.3652
     42  O41       13.8270  -11.5170   29.5750 O.co2 910  MMP910     -0.2456
     43  O42       14.4050  -12.8000   27.6620 O.co2 910  MMP910     -0.2456
@<TRIPOS>BOND
     1    10     9    2
     2     9     5    1
     3    17    13    1
     4    19    18    2
     5     5     4   ar
     6     5     6   ar
     7    13    12    1
     8    13    14    2
     9     7     6    2
    10     7    12    1
    11     8     4    1
    12    18    14    1
    13     4     3   ar
    14     6     2   ar
    15    12    11    2
    16    14    15    1
    17    11    15    2
    18    15    16    2
    19     3     2   ar
    20     3    37    2
    21     2     1    1
    22    16    21    1
    23    37    36    1
    24    21    20    2
    25    21    22    2
    26    36    32    2
    27    36    35    1
    28    20    24    2
    29    32    33    2
    30    22    26    1
    31    22    23    1
    32    35    38    1
    33    35    34    2
    34    24    25    1
    35    24    23    2
    36    33    25    2
    37    33    34    1
    38    23    27    1
    39    34    39    1
    40    43    41   ar
    41    27    28    1
    42    41    40    1
    43    41    42   ar
    44    40    39    1
    45    28    29    1
    46    29    31   ar
    47    29    30   ar
