@<TRIPOS>MOLECULE
3fcv_DUD_A_1.pdb
 24 25 0 0 0
SMALL
GASTEIGER

@<TRIPOS>ATOM
      1  N1        52.0050    5.3870   32.5600 N.am  201  DUD201     -0.1790
      2  C2        51.4940    4.0730   32.5460 C.1   201  DUD201      0.2844
      3  N3        50.8730    3.5830   33.6270 N.2   201  DUD201     -0.2452
      4  C4        50.7230    4.3330   34.7270 C.1   201  DUD201      0.2182
      5  C5        51.2110    5.6330   34.7600 C.2   201  DUD201      0.1242
      6  C6        51.8490    6.1510   33.6440 C.2   201  DUD201      0.0928
      7  O2        51.6250    3.3610   31.5290 O.2   201  DUD201     -0.1918
      8  O4        50.1430    3.8630   35.7310 O.2   201  DUD201     -0.2085
      9  C1'       52.6770    5.9640   31.3970 C.3   201  DUD201      0.2090
     10  C2'       51.7740    6.9740   30.7050 C.3   201  DUD201      0.0874
     11  C3'       52.4760    8.3050   30.8780 C.3   201  DUD201      0.1857
     12  C4'       53.8990    7.9500   31.2810 C.3   201  DUD201      0.1773
     13  O4'       53.8250    6.6600   31.8850 O.3   201  DUD201     -0.3339
     14  O3'       52.4440    9.0390   29.6500 O.3   201  DUD201     -0.2203
     15  C5'       54.4670    8.9370   32.2890 C.3   201  DUD201      0.1812
     16  O5'       53.5380    8.9920   33.3700 O.3   201  DUD201     -0.3111
     17  PA        53.0640   10.4100   33.9630 P.3   201  DUD201      0.2231
     18  O1A       54.1920   11.3980   33.7920 O.2   201  DUD201     -0.5169
     19  O2A       52.4570   10.1830   35.3290 O.3   201  DUD201     -0.4370
     20  O3A       51.8740   10.7460   32.9250 O.3   201  DUD201     -0.2261
     21  PB        51.6590   12.2120   32.2900 P.3   201  DUD201      0.5373
     22  O1B       52.5610   13.1290   33.0820 O.3   201  DUD201     -0.1143
     23  O2B       50.1880   12.4950   32.4730 O.3   201  DUD201     -0.1143
     24  O3B       52.0670   12.0120   30.8500 O.2   201  DUD201     -0.2221
@<TRIPOS>BOND
     1    14    11    1
     2    10    11    1
     3    10     9    1
     4    24    21    2
     5    11    12    1
     6    12    13    1
     7    12    15    1
     8     9    13    1
     9     9     1    1
    10     7     2    2
    11    15    16    1
    12    21    23    1
    13    21    20    1
    14    21    22    1
    15     2     1   am
    16     2     3    2
    17     1     6    1
    18    20    17    1
    19    16    17    1
    20     3     4    2
    21     6     5    2
    22    18    17    2
    23    17    19    1
    24     4     5    1
    25     4     8    2
