@<TRIPOS>MOLECULE
3fcw_UDP_A_1.pdb
 25 26 0 0 0
SMALL
GASTEIGER

@<TRIPOS>ATOM
      1  N1       -15.7920   14.5450   15.2360 N.am  138  UDP138     -0.1996
      2  C2       -16.8880   14.7480   14.4010 C.1   138  UDP138      0.2802
      3  N3       -17.2420   16.0090   14.0060 N.2   138  UDP138     -0.2497
      4  C4       -16.5100   17.0870   14.4290 C.1   138  UDP138      0.1941
      5  C5       -15.4090   16.8850   15.2620 C.3   138  UDP138      0.1579
      6  C6       -15.1890   15.6250   15.8120 C.3   138  UDP138      0.1249
      7  O2       -17.5850   13.8240   13.9950 O.2   138  UDP138     -0.1922
      8  O4       -16.8550   18.2100   14.0510 O.2   138  UDP138     -0.2133
      9  C1'      -15.4160   13.1790   15.6560 C.3   138  UDP138      0.2361
     10  C2'      -14.0980   12.7900   14.9940 C.3   138  UDP138      0.2316
     11  O2'      -14.0900   11.4210   14.6490 O.3   138  UDP138     -0.2157
     12  C3'      -13.0620   13.0740   16.0690 C.3   138  UDP138      0.2158
     13  C4'      -13.8360   12.9070   17.3720 C.3   138  UDP138      0.1799
     14  O4'      -15.2030   13.1360   17.0580 O.3   138  UDP138     -0.3322
     15  O3'      -11.9760   12.1800   16.0070 O.3   138  UDP138     -0.2175
     16  C5'      -13.3390   13.8450   18.4730 C.3   138  UDP138      0.1813
     17  O5'      -13.2260   15.1750   18.0050 O.3   138  UDP138     -0.3111
     18  PA       -11.7860   15.8930   18.1210 P.3   138  UDP138      0.2231
     19  O1A      -11.2830   15.8000   19.5170 O.3   138  UDP138     -0.4370
     20  O2A      -11.8500   17.2740   17.5920 O.2   138  UDP138     -0.5169
     21  O3A      -10.9080   14.9680   17.1350 O.3   138  UDP138     -0.2261
     22  PB        -9.5200   14.2660   17.5560 P.3   138  UDP138      0.5373
     23  O1B       -8.4630   14.9270   16.7660 O.2   138  UDP138     -0.2221
     24  O2B       -9.6390   12.8130   17.3030 O.3   138  UDP138     -0.1143
     25  O3B       -9.2150   14.4530   18.9880 O.3   138  UDP138     -0.1143
@<TRIPOS>BOND
     1     7     2    2
     2     3     2    2
     3     3     4    2
     4     8     4    2
     5     2     1   am
     6     4     5    1
     7    11    10    1
     8    10     9    1
     9    10    12    1
    10     1     9    1
    11     1     6    1
    12     5     6    1
    13     9    14    1
    14    15    12    1
    15    12    13    1
    16    23    22    2
    17    14    13    1
    18    21    22    1
    19    21    18    1
    20    24    22    1
    21    13    16    1
    22    22    25    1
    23    20    18    2
    24    17    18    1
    25    17    16    1
    26    18    19    1
