@<TRIPOS>MOLECULE
3fd5_AP2_A_1.pdb
 27 29 0 0 0
SMALL
GASTEIGER

@<TRIPOS>ATOM
      1  PB        60.6790   35.7450   83.2950 P.3   393  AP2393      0.1295
      2  O1B       60.4410   35.4590   81.8470 O.2   393  AP2393     -0.4595
      3  O2B       59.4540   35.5280   84.1450 O.3   393  AP2393     -0.3567
      4  O3B       61.3160   37.0730   83.5270 O.3   393  AP2393     -0.3567
      5  C3A       61.9560   34.5760   83.8550 C.3   393  AP2393      0.1765
      6  PA        61.3580   32.8630   84.0180 P.3   393  AP2393      0.3770
      7  O1A       60.8390   32.3850   82.6840 O.2   393  AP2393     -0.2550
      8  O2A       60.4560   32.7720   85.2270 O.3   393  AP2393     -0.1394
      9  O5'       62.6110   31.9080   84.3840 O.3   393  AP2393     -0.2897
     10  C5'       63.2680   32.1110   85.6410 C.3   393  AP2393      0.1836
     11  C4'       64.7680   32.3320   85.4920 C.3   393  AP2393      0.1822
     12  O4'       65.3920   31.1430   85.0060 O.3   393  AP2393     -0.3135
     13  C3'       65.1520   33.3960   84.4930 C.3   393  AP2393      0.2184
     14  O3'       66.4630   33.7930   84.8980 O.3   393  AP2393     -0.2174
     15  C2'       65.2570   32.6360   83.1850 C.3   393  AP2393      0.2570
     16  O2'       66.0750   33.3670   82.2510 O.3   393  AP2393     -0.2130
     17  C1'       65.9280   31.3640   83.6930 C.3   393  AP2393      0.3186
     18  N9        65.6750   30.1340   82.9080 N.pl3 393  AP2393     -0.1439
     19  C8        64.4720   29.5750   82.6640 C.3   393  AP2393      0.3377
     20  N7        64.6180   28.4340   81.9430 N.2   393  AP2393     -0.2095
     21  C5        65.9410   28.2370   81.7320 C.2   393  AP2393      0.2526
     22  C6        66.7800   27.2200   81.0360 C.2   393  AP2393      0.4393
     23  N6        66.2140   26.1600   80.4150 N.pl3 393  AP2393      0.2180
     24  N1        68.1180   27.4010   81.0500 N.2   393  AP2393      0.0021
     25  C2        68.6930   28.4610   81.6670 C.3   393  AP2393      0.5254
     26  N3        68.0010   29.4240   82.3150 N.2   393  AP2393     -0.0055
     27  C4        66.6380   29.3630   82.3810 C.2   393  AP2393      0.3518
@<TRIPOS>BOND
     1    23    22    1
     2    22    24    2
     3    22    21    1
     4    24    25    1
     5    25    26    1
     6    21    20    2
     7    21    27    1
     8     2     1    2
     9    20    19    1
    10    16    15    1
    11    26    27    2
    12    27    18    1
    13    19    18    1
    14     7     6    2
    15    18    17    1
    16    15    17    1
    17    15    13    1
    18     1     4    1
    19     1     5    1
    20     1     3    1
    21    17    12    1
    22     5     6    1
    23     6     9    1
    24     6     8    1
    25     9    10    1
    26    13    14    1
    27    13    11    1
    28    12    11    1
    29    11    10    1
