@<TRIPOS>MOLECULE
3fd6_ADP_A_1.pdb
 27 29 0 0 0
SMALL
GASTEIGER

@<TRIPOS>ATOM
      1  PB        62.0430   35.9540   83.1970 P.3   393  ADP393      0.5373
      2  O1B       62.5930   35.9570   81.8080 O.2   393  ADP393     -0.2221
      3  O2B       60.5540   35.6860   83.2350 O.3   393  ADP393     -0.1143
      4  O3B       62.4600   37.1160   84.0590 O.3   393  ADP393     -0.1143
      5  PA        61.9460   33.1970   83.9990 P.3   393  ADP393      0.2231
      6  O1A       61.4630   32.6520   82.6830 O.2   393  ADP393     -0.5169
      7  O2A       60.9500   33.2710   85.1290 O.3   393  ADP393     -0.4370
      8  O3A       62.6840   34.6370   83.8830 O.3   393  ADP393     -0.2261
      9  O5'       63.2160   32.2890   84.4090 O.3   393  ADP393     -0.3111
     10  C5'       63.8700   32.5280   85.6680 C.3   393  ADP393      0.1813
     11  C4'       65.3640   32.7810   85.4760 C.3   393  ADP393      0.1821
     12  O4'       66.0160   31.5610   85.1070 O.3   393  ADP393     -0.3135
     13  C3'       65.6380   33.7650   84.3580 C.3   393  ADP393      0.2184
     14  O3'       66.7450   34.5370   84.7730 O.3   393  ADP393     -0.2174
     15  C2'       66.0950   32.9480   83.1700 C.3   393  ADP393      0.2570
     16  O2'       67.0950   33.6590   82.4100 O.3   393  ADP393     -0.2130
     17  C1'       66.6590   31.7060   83.8370 C.3   393  ADP393      0.3186
     18  N9        66.4150   30.4480   83.0970 N.pl3 393  ADP393     -0.1439
     19  C8        65.2290   29.8240   82.9400 C.3   393  ADP393      0.3377
     20  N7        65.3840   28.6710   82.2320 N.2   393  ADP393     -0.2095
     21  C5        66.6980   28.5520   81.9470 C.2   393  ADP393      0.2526
     22  C6        67.5460   27.5890   81.2300 C.2   393  ADP393      0.4393
     23  N6        67.0110   26.4770   80.6610 N.pl3 393  ADP393      0.2180
     24  N1        68.8670   27.8710   81.1590 N.2   393  ADP393      0.0021
     25  C2        69.4200   28.9540   81.7130 C.3   393  ADP393      0.5254
     26  N3        68.7100   29.8730   82.3790 N.2   393  ADP393     -0.0055
     27  C4        67.3690   29.7250   82.5220 C.2   393  ADP393      0.3518
@<TRIPOS>BOND
     1    23    22    1
     2    24    22    2
     3    24    25    1
     4    22    21    1
     5    25    26    1
     6     2     1    2
     7    21    20    2
     8    21    27    1
     9    20    19    1
    10    26    27    2
    11    16    15    1
    12    27    18    1
    13     6     5    2
    14    19    18    1
    15    18    17    1
    16    15    17    1
    17    15    13    1
    18     1     3    1
    19     1     8    1
    20     1     4    1
    21    17    12    1
    22     8     5    1
    23     5     9    1
    24     5     7    1
    25    13    14    1
    26    13    11    1
    27     9    10    1
    28    12    11    1
    29    11    10    1
