@<TRIPOS>MOLECULE
3fdc_BTF_A_1.pdb
 23 25 0 0 0
SMALL
GASTEIGER

@<TRIPOS>ATOM
      1  C6        22.7280  -32.4430   -9.6260 C.ar  129  BTF129      0.0220
      2  C7        23.1490  -31.6010   -8.4270 C.ar  129  BTF129      0.0197
      3  C8        24.6040  -31.6360   -7.9780 C.ar  129  BTF129      0.0220
      4  C9        25.6020  -32.5090   -8.7330 C.ar  129  BTF129      0.0989
      5  N2        25.1360  -33.3120   -9.8930 N.ar  129  BTF129     -0.2423
      6  C10       23.7210  -33.2910  -10.3490 C.ar  129  BTF129      0.0989
      7  C15       22.1160  -30.7220   -7.6450 C.2   129  BTF129      0.0887
      8  C16       20.1340  -29.8770   -3.3020 C.3   129  BTF129      0.0097
      9  C17       21.4400  -29.7780   -4.0730 C.3   129  BTF129      0.0872
     10  C18       21.1980  -30.0050   -5.4730 C.2   129  BTF129      0.2456
     11  C19       19.6210  -28.1660   -3.0250 C.3   129  BTF129      0.0014
     12  C20       18.0520  -28.2900   -2.8210 C.3   129  BTF129      0.0129
     13  C21       17.0070  -27.4390   -3.6720 C.3   129  BTF129      0.0729
     14  C22       15.2930  -25.7270   -4.4120 C.3   129  BTF129      0.0848
     15  C23       15.5690  -27.7070   -3.1280 C.3   129  BTF129      0.1500
     16  C24       14.5250  -26.7110   -3.5730 C.3   129  BTF129      0.1509
     17  C25       14.5230  -26.7210   -1.1850 C.1   129  BTF129      0.2386
     18  N7        22.1930  -30.4030   -6.2020 N.am  129  BTF129     -0.1779
     19  O1        20.0390  -29.7370   -5.9740 O.2   129  BTF129     -0.2730
     20  O2        14.2530  -26.4740    0.0150 O.2   129  BTF129     -0.2023
     21  N8        13.9660  -26.1880   -2.2970 N.2   129  BTF129     -0.1859
     22  N9        15.4700  -27.6170   -1.6270 N.2   129  BTF129     -0.1860
     23  S1        16.9480  -25.6110   -3.6210 S.3   129  BTF129     -0.1369
@<TRIPOS>BOND
     1     6     5   ar
     2     6     1   ar
     3     5     4   ar
     4     1     2   ar
     5     4     3   ar
     6     2     3   ar
     7     2     7    1
     8     7    18    2
     9    18    10    1
    10    19    10    2
    11    10     9    1
    12    14    23    1
    13    14    16    1
    14     9     8    1
    15    13    23    1
    16    13    15    1
    17    13    12    1
    18    16    15    1
    19    16    21    1
    20     8    11    1
    21    15    22    1
    22    11    12    1
    23    21    17    2
    24    22    17    2
    25    17    20    2
