@<TRIPOS>MOLECULE
3fdd_PLP_A_1.pdb
 15 15 0 0 0
SMALL
GASTEIGER

@<TRIPOS>ATOM
      1  N1       -14.6180   -7.3860  -48.9430 N.ar  534  PLP534     -0.2452
      2  C2       -15.9300   -7.1020  -48.8280 C.ar  534  PLP534      0.0978
      3  C2A      -16.9010   -7.5870  -49.8650 C.3   534  PLP534      0.0555
      4  C3       -16.4250   -6.3020  -47.6800 C.ar  534  PLP534      0.2049
      5  O3       -17.7420   -5.9900  -47.5300 O.3   534  PLP534     -0.2857
      6  C4       -15.4120   -5.8610  -46.6980 C.ar  534  PLP534      0.0182
      7  C4A      -15.7860   -5.0730  -45.5160 C.3   534  PLP534      0.0342
      8  C5       -13.9990   -6.2420  -46.9320 C.ar  534  PLP534      0.0261
      9  C6       -13.6750   -6.9940  -48.0600 C.ar  534  PLP534      0.0965
     10  C5A      -12.9400   -5.8150  -45.9460 C.3   534  PLP534      0.1815
     11  O4P      -12.2590   -4.6550  -46.4130 O.3   534  PLP534     -0.2653
     12  P        -10.8590   -4.2520  -45.7340 P.3   534  PLP534      0.5329
     13  O1P      -10.1830   -5.5790  -45.5140 O.3   534  PLP534     -0.1145
     14  O2P      -11.3240   -3.5560  -44.4820 O.3   534  PLP534     -0.1145
     15  O3P      -10.1780   -3.3650  -46.7460 O.2   534  PLP534     -0.2224
@<TRIPOS>BOND
     1     3     2    1
     2     1     2   ar
     3     1     9   ar
     4     2     4   ar
     5     9     8   ar
     6     4     5    1
     7     4     6   ar
     8     8     6   ar
     9     8    10    1
    10    15    12    2
    11     6     7    1
    12    11    10    1
    13    11    12    1
    14    12    13    1
    15    12    14    1
