@<TRIPOS>MOLECULE
3fdn_MMH_A_1.pdb
 30 32 0 0 0
SMALL
GASTEIGER

@<TRIPOS>ATOM
      1  CBC       -4.5100  -33.6370   -0.7240 C.3     1  MMH1        0.0968
      2  CBB       -4.7860  -33.0070    0.6470 C.2     1  MMH1        0.2461
      3  OBD       -4.7230  -33.7300    1.6420 O.2     1  MMH1       -0.2730
      4  NBA       -5.0940  -31.6900    0.6170 N.am    1  MMH1       -0.1792
      5  CAY       -5.3540  -30.8530    1.6630 C.ar    1  MMH1        0.0747
      6  CAZ       -4.8580  -31.0820    2.9500 C.ar    1  MMH1        0.0332
      7  CAX       -6.0930  -29.6840    1.4500 C.ar    1  MMH1        0.0167
      8  CAW       -6.3510  -28.7720    2.4800 C.ar    1  MMH1        0.0027
      9  CAV       -5.8580  -29.0260    3.7790 C.ar    1  MMH1        0.0167
     10  CAS       -5.0880  -30.1800    4.0090 C.ar    1  MMH1        0.0747
     11  NAR       -4.6180  -30.5220    5.2280 N.am    1  MMH1       -0.1784
     12  CAG       -5.0020  -29.9860    6.3960 C.2     1  MMH1        0.2627
     13  OAQ       -5.8310  -29.0880    6.4800 O.2     1  MMH1       -0.2719
     14  CAD       -4.4120  -30.6090    7.6810 C.3     1  MMH1        0.2317
     15  CAE       -4.5950  -30.1460    8.9740 C.2     1  MMH1        0.1039
     16  CAF       -5.3410  -28.8490    9.4530 C.3     1  MMH1        0.0525
     17  NAA       -3.9820  -30.9970    9.8110 N.2     1  MMH1       -0.0420
     18  NAB       -3.4750  -31.9400    9.1770 N.2     1  MMH1        0.0821
     19  CAC       -3.6980  -31.8060    7.8630 C.2     1  MMH1        0.4075
     20  NAH       -3.2160  -32.7330    7.0010 N.pl3   1  MMH1        0.1116
     21  NAI       -2.8380  -32.5500    5.8370 N.2     1  MMH1       -0.0422
     22  CAJ       -2.3380  -33.6020    5.1970 C.2     1  MMH1        0.1469
     23  CAL       -1.9110  -33.6160    3.8660 C.ar    1  MMH1        0.0231
     24  CAK       -1.9350  -32.4760    3.0520 C.ar    1  MMH1        0.0048
     25  CAP       -1.5170  -32.5520    1.7150 C.ar    1  MMH1        0.0370
     26  CAO       -1.0940  -33.7800    1.1910 C.ar    1  MMH1        0.1387
     27  OAT       -0.6940  -33.8470   -0.1130 O.3     1  MMH1       -0.4714
     28  CAU       -0.1990  -35.1680   -0.4890 C.3     1  MMH1        0.2525
     29  CAN       -1.0800  -34.9170    1.9930 C.ar    1  MMH1        0.0370
     30  CAM       -1.4900  -34.8360    3.3230 C.ar    1  MMH1        0.0048
@<TRIPOS>BOND
     1     1     2    1
     2    28    27    1
     3    27    26    1
     4     4     2   am
     5     4     5    1
     6     2     3    2
     7    26    25   ar
     8    26    29   ar
     9     7     5   ar
    10     7     8   ar
    11     5     6   ar
    12    25    24   ar
    13    29    30   ar
    14     8     9   ar
    15     6    10   ar
    16    24    23   ar
    17    30    23   ar
    18     9    10   ar
    19    23    22    1
    20    10    11    1
    21    22    21    2
    22    11    12   am
    23    21    20    1
    24    12    13    2
    25    12    14    1
    26    20    19    1
    27    14    19    1
    28    14    15    1
    29    19    18    2
    30    15    16    1
    31    15    17    2
    32    18    17    1
