@<TRIPOS>MOLECULE
3fdx_ATP_A_1.pdb
 31 33 0 0 0
SMALL
GASTEIGER

@<TRIPOS>ATOM
      1  PG        54.6500   29.9350   13.8530 P.3   301  ATP301      0.5373
      2  O1G       55.1950   31.2100   13.2310 O.3   301  ATP301     -0.1143
      3  O2G       53.5890   30.0920   14.8680 O.3   301  ATP301     -0.1143
      4  O3G       54.1940   28.8570   12.8950 O.2   301  ATP301     -0.2221
      5  PB        57.1200   28.4140   14.4670 P.3   301  ATP301      0.2277
      6  O1B       56.9900   28.0240   12.9710 O.2   301  ATP301     -0.5168
      7  O2B       58.3830   29.0070   14.8790 O.3   301  ATP301     -0.4368
      8  O3B       55.8600   29.3640   14.8090 O.3   301  ATP301     -0.2258
      9  PA        55.5630   26.1290   15.3050 P.3   301  ATP301      0.2189
     10  O1A       54.8730   26.2300   13.9700 O.2   301  ATP301     -0.5170
     11  O2A       54.7710   26.0270   16.5460 O.3   301  ATP301     -0.4371
     12  O3A       56.6890   27.1480   15.4140 O.3   301  ATP301     -0.2700
     13  O5'       56.4180   24.7440   15.0780 O.3   301  ATP301     -0.3112
     14  C5'       56.7900   23.9950   16.2470 C.3   301  ATP301      0.1813
     15  C4'       56.6230   22.5580   15.7640 C.3   301  ATP301      0.1821
     16  O4'       55.2700   22.2150   15.4640 O.3   301  ATP301     -0.3135
     17  C3'       57.4150   22.1560   14.5500 C.3   301  ATP301      0.2184
     18  O3'       58.8240   21.9110   14.7950 O.3   301  ATP301     -0.2174
     19  C2'       56.6500   20.9060   14.2030 C.3   301  ATP301      0.2570
     20  O2'       56.9780   19.8250   15.1160 O.3   301  ATP301     -0.2130
     21  C1'       55.2210   21.2550   14.4420 C.3   301  ATP301      0.3186
     22  N9        54.6700   21.8970   13.2100 N.pl3 301  ATP301     -0.1439
     23  C8        54.5580   23.2140   12.9290 C.3   301  ATP301      0.3377
     24  N7        54.0060   23.3280   11.6960 N.2   301  ATP301     -0.2095
     25  C5        53.7500   22.0890   11.2420 C.2   301  ATP301      0.2526
     26  C6        53.2320   21.4520   10.0390 C.2   301  ATP301      0.4393
     27  N6        52.7660   22.2460    9.0390 N.pl3 301  ATP301      0.2180
     28  N1        53.1100   20.1240    9.9700 N.2   301  ATP301      0.0021
     29  C2        53.5570   19.2880   10.9540 C.3   301  ATP301      0.5254
     30  N3        54.0790   19.8060   12.0720 N.2   301  ATP301     -0.0055
     31  C4        54.2180   21.1310   12.2330 C.2   301  ATP301      0.3518
@<TRIPOS>BOND
     1    27    26    1
     2    28    26    2
     3    28    29    1
     4    26    25    1
     5    29    30    1
     6    25    24    2
     7    25    31    1
     8    24    23    1
     9    30    31    2
    10    31    22    1
    11     4     1    2
    12    23    22    1
    13     6     5    2
    14    22    21    1
    15     2     1    1
    16     1     8    1
    17     1     3    1
    18    10     9    2
    19    19    21    1
    20    19    17    1
    21    19    20    1
    22    21    16    1
    23     5     8    1
    24     5     7    1
    25     5    12    1
    26    17    18    1
    27    17    15    1
    28    13     9    1
    29    13    14    1
    30     9    12    1
    31     9    11    1
    32    16    15    1
    33    15    14    1
