@<TRIPOS>MOLECULE
3fdz_DG2_A_1.pdb
 15 14 0 0 0
SMALL
GASTEIGER

@<TRIPOS>ATOM
      1  C3        -0.3770  -20.0140   29.4520 C.3   1001  DG21001     0.2583
      2  C4        -0.6300  -20.1970   27.9460 C.3   1001  DG21001     0.1954
      3  O2         0.9470  -20.5040   29.8610 O.3   1001  DG21001    -0.2584
      4  O5        -1.9820  -19.8150   27.6030 O.3   1001  DG21001    -0.2670
      5  O7         0.2830  -17.6740   29.4180 O.co2 1001  DG21001    -0.2428
      6  O8        -1.7460  -18.1790   30.1320 O.co2 1001  DG21001    -0.2428
      7  O9         2.5670  -20.9120   31.6640 O.3   1001  DG21001    -0.1145
      8  O10        0.1610  -21.7100   31.8500 O.3   1001  DG21001    -0.1145
      9  O11        1.7620  -22.8110   30.2060 O.2   1001  DG21001    -0.2224
     10  P1         1.3910  -21.5710   30.9860 P.3   1001  DG21001     0.5331
     11  C7        -0.6150  -18.5250   29.6940 C.2   1001  DG21001     0.3945
     12  P6        -2.4880  -19.8320   26.0740 P.3   1001  DG21001     0.5327
     13  O15       -1.6330  -18.8550   25.3020 O.2   1001  DG21001    -0.2224
     14  O14       -3.9470  -19.4560   26.1490 O.3   1001  DG21001    -0.1145
     15  O13       -2.2460  -21.2420   25.5930 O.3   1001  DG21001    -0.1145
@<TRIPOS>BOND
     1    13    12    2
     2    15    12    1
     3    12    14    1
     4    12     4    1
     5     4     2    1
     6     2     1    1
     7     5    11   ar
     8     1    11    1
     9     1     3    1
    10    11     6   ar
    11     3    10    1
    12     9    10    2
    13    10     7    1
    14    10     8    1
