@<TRIPOS>MOLECULE
3fdz_3PG_B_1.pdb
 11 10 0 0 0
SMALL
GASTEIGER

@<TRIPOS>ATOM
      1  C1        23.6080  -36.8110   61.8170 C.2   1001  3PG1001     0.3972
      2  O1        24.2700  -36.7970   60.7420 O.co2 1001  3PG1001    -0.2427
      3  O2        23.0910  -37.8330   62.3230 O.co2 1001  3PG1001    -0.2427
      4  C2        23.3950  -35.5570   62.6010 C.3   1001  3PG1001     0.2838
      5  O3        24.4790  -34.6480   62.4450 O.3   1001  3PG1001    -0.2081
      6  C3        23.4180  -35.9540   64.0530 C.3   1001  3PG1001     0.1983
      7  O1P       24.1480  -34.9240   64.7170 O.3   1001  3PG1001    -0.2669
      8  P         25.3760  -35.2870   65.6430 P.3   1001  3PG1001     0.5327
      9  O2P       26.5030  -35.6770   64.6980 O.2   1001  3PG1001    -0.2224
     10  O3P       24.8630  -36.4160   66.5010 O.3   1001  3PG1001    -0.1145
     11  O4P       25.6260  -34.0070   66.4190 O.3   1001  3PG1001    -0.1145
@<TRIPOS>BOND
     1     2     1   ar
     2     1     3   ar
     3     1     4    1
     4     5     4    1
     5     4     6    1
     6     6     7    1
     7     9     8    2
     8     7     8    1
     9     8    11    1
    10     8    10    1
