@<TRIPOS>MOLECULE
3fe1_ADP_A_1.pdb
 27 29 0 0 0
SMALL
GASTEIGER

@<TRIPOS>ATOM
      1  PB         6.7430   -0.8650   22.9850 P.3   386  ADP386      0.5373
      2  O1B        6.8070    0.6010   23.3750 O.3   386  ADP386     -0.1143
      3  O2B        8.0070   -1.6280   23.3170 O.3   386  ADP386     -0.1143
      4  O3B        6.2390   -1.1890   21.6300 O.2   386  ADP386     -0.2221
      5  PA         4.9230   -2.8410   23.9500 P.3   386  ADP386      0.2231
      6  O1A        4.4100   -3.0990   25.3420 O.3   386  ADP386     -0.4370
      7  O2A        5.7590   -3.8410   23.2320 O.2   386  ADP386     -0.5169
      8  O3A        5.6580   -1.4280   24.0310 O.3   386  ADP386     -0.2261
      9  O5'        3.6780   -2.5780   22.9780 O.3   386  ADP386     -0.3111
     10  C5'        2.6370   -1.7400   23.4280 C.3   386  ADP386      0.1813
     11  C4'        1.5110   -1.8570   22.4330 C.3   386  ADP386      0.1821
     12  O4'        0.9330   -3.1340   22.6430 O.3   386  ADP386     -0.3135
     13  C3'        0.4010   -0.8480   22.6580 C.3   386  ADP386      0.2184
     14  O3'       -0.1110   -0.4460   21.3760 O.3   386  ADP386     -0.2174
     15  C2'       -0.6460   -1.6320   23.4250 C.3   386  ADP386      0.2570
     16  O2'       -1.9740   -1.1280   23.2270 O.3   386  ADP386     -0.2130
     17  C1'       -0.4590   -2.9740   22.7670 C.3   386  ADP386      0.3186
     18  N9        -1.0330   -4.0690   23.5240 N.pl3 386  ADP386     -0.1439
     19  C8        -0.7390   -4.4100   24.8110 C.3   386  ADP386      0.3377
     20  N7        -1.4950   -5.4890   25.1720 N.2   386  ADP386     -0.2095
     21  C5        -2.2540   -5.8570   24.0990 C.2   386  ADP386      0.2526
     22  C6        -3.2500   -6.8980   23.7910 C.2   386  ADP386      0.4393
     23  N6        -3.5830   -7.7780   24.7420 N.pl3 386  ADP386      0.2180
     24  N1        -3.8040   -6.9600   22.5420 N.2   386  ADP386      0.0021
     25  C2        -3.4810   -6.0490   21.5970 C.3   386  ADP386      0.5254
     26  N3        -2.5660   -5.0650   21.8170 N.2   386  ADP386     -0.0055
     27  C4        -1.9310   -4.9230   23.0070 C.2   386  ADP386      0.3518
@<TRIPOS>BOND
     1    14    13    1
     2    25    26    1
     3    25    24    1
     4     4     1    2
     5    26    27    2
     6    11    12    1
     7    11    13    1
     8    11    10    1
     9    24    22    2
    10    12    17    1
    11    13    15    1
    12    17    15    1
    13    17    18    1
    14     9    10    1
    15     9     5    1
    16     1     3    1
    17     1     2    1
    18     1     8    1
    19    27    18    1
    20    27    21    1
    21    16    15    1
    22     7     5    2
    23    18    19    1
    24    22    21    1
    25    22    23    1
    26     5     8    1
    27     5     6    1
    28    21    20    2
    29    19    20    1
