@<TRIPOS>MOLECULE
3fe2_ADP_A_1.pdb
 27 29 0 0 0
SMALL
GASTEIGER

@<TRIPOS>ATOM
      1  PB        -4.5350   35.5680    6.8080 P.3   308  ADP308      0.5373
      2  O1B       -3.5200   34.5990    6.2230 O.2   308  ADP308     -0.2221
      3  O2B       -4.2650   36.1470    8.1780 O.3   308  ADP308     -0.1143
      4  O3B       -5.9550   35.0530    6.7220 O.3   308  ADP308     -0.1143
      5  PA        -4.1990   36.8310    4.3530 P.3   308  ADP308      0.2231
      6  O1A       -2.7060   36.7560    4.1180 O.3   308  ADP308     -0.4370
      7  O2A       -5.0760   35.7970    3.6930 O.2   308  ADP308     -0.5169
      8  O3A       -4.4980   36.9040    5.9120 O.3   308  ADP308     -0.2261
      9  O5'       -4.6850   38.2900    3.8870 O.3   308  ADP308     -0.3111
     10  C5'       -6.0440   38.6750    4.0630 C.3   308  ADP308      0.1813
     11  C4'       -6.4560   39.6500    2.9770 C.3   308  ADP308      0.1821
     12  O4'       -5.9330   40.9370    3.2900 O.3   308  ADP308     -0.3135
     13  C3'       -5.9270   39.3010    1.5960 C.3   308  ADP308      0.2184
     14  O3'       -6.9800   39.5170    0.6670 O.3   308  ADP308     -0.2174
     15  C2'       -4.8140   40.2830    1.3260 C.3   308  ADP308      0.2570
     16  O2'       -4.7210   40.6710   -0.0420 O.3   308  ADP308     -0.2130
     17  C1'       -5.2190   41.4760    2.1740 C.3   308  ADP308      0.3186
     18  N9        -4.0760   42.2770    2.6640 N.pl3 308  ADP308     -0.1439
     19  C8        -2.8290   41.8440    2.9240 C.3   308  ADP308      0.3377
     20  N7        -2.0460   42.8410    3.3810 N.2   308  ADP308     -0.2095
     21  C5        -2.7980   43.9440    3.4230 C.2   308  ADP308      0.2526
     22  C6        -2.5850   45.3520    3.8070 C.2   308  ADP308      0.4393
     23  N6        -1.3850   45.7760    4.2350 N.pl3 308  ADP308      0.2180
     24  N1        -3.6370   46.1850    3.7080 N.2   308  ADP308      0.0021
     25  C2        -4.8430   45.7650    3.2840 C.3   308  ADP308      0.5254
     26  N3        -5.0900   44.5020    2.9030 N.2   308  ADP308     -0.0055
     27  C4        -4.1340   43.5650    2.9510 C.2   308  ADP308      0.3518
@<TRIPOS>BOND
     1    16    15    1
     2    14    13    1
     3    15    13    1
     4    15    17    1
     5    13    11    1
     6    17    18    1
     7    17    12    1
     8    18    19    1
     9    18    27    1
    10    26    27    2
    11    26    25    1
    12    19    20    1
    13    27    21    1
    14    11    12    1
    15    11    10    1
    16    25    24    1
    17    20    21    2
    18    21    22    1
    19     7     5    2
    20    24    22    2
    21    22    23    1
    22     9    10    1
    23     9     5    1
    24     6     5    1
    25     5     8    1
    26     8     1    1
    27     2     1    2
    28     4     1    1
    29     1     3    1
