@<TRIPOS>MOLECULE
3fec_GLU_A_1.pdb
 10 9 0 0 0
SMALL
GASTEIGER

@<TRIPOS>ATOM
      1  N         18.2140   44.0520   18.1920 N.3   742  GLU742     -0.1208
      2  CA        17.8320   42.7270   18.8040 C.3   742  GLU742      0.1949
      3  C         18.9270   41.6740   18.5630 C.2   742  GLU742      0.3819
      4  O         18.9660   40.6350   19.1630 O.co2 742  GLU742     -0.2441
      5  CB        16.5210   42.2460   18.1870 C.3   742  GLU742      0.0424
      6  CG        16.6580   42.2140   16.6540 C.3   742  GLU742      0.1161
      7  CD        15.5350   41.4400   15.9760 C.2   742  GLU742      0.3649
      8  OE1       14.8790   40.6180   16.6470 O.co2 742  GLU742     -0.2457
      9  OE2       15.3170   41.6310   14.7730 O.co2 742  GLU742     -0.2457
     10  OXT       19.8340   41.8080   17.7260 O.co2 742  GLU742     -0.2441
@<TRIPOS>BOND
     1     9     7   ar
     2     7     8   ar
     3     7     6    1
     4     6     5    1
     5    10     3   ar
     6     5     2    1
     7     1     2    1
     8     3     2    1
     9     3     4   ar
