@<TRIPOS>MOLECULE
3fed_BIX_A_1.pdb
 20 19 0 0 0
SMALL
GASTEIGER

@<TRIPOS>ATOM
      1  C2        22.7110   44.6760   15.8310 C.3     1  BIX1        0.1949
      2  C5        21.0930   45.2890   17.7790 C.3     1  BIX1        0.0916
      3  C3        22.4110   45.9540   15.1150 C.2     1  BIX1        0.3819
      4  C4        21.5760   44.2040   16.7940 C.3     1  BIX1        0.0409
      5  C1        18.5420   43.8280   18.1310 C.3     1  BIX1        0.1007
      6  O1        22.8480   46.9960   15.6410 O.co2   1  BIX1       -0.2441
      7  OE2       14.8810   40.5640   16.7220 O.co2   1  BIX1       -0.2457
      8  CD        15.6400   41.2130   16.0280 C.2     1  BIX1        0.3649
      9  OE1       15.4790   41.3710   14.8060 O.co2   1  BIX1       -0.2457
     10  CG        16.8510   41.8730   16.6490 C.3     1  BIX1        0.1146
     11  CB        16.8120   41.9870   18.1830 C.3     1  BIX1        0.0236
     12  CA        18.1300   42.5160   18.7980 C.3     1  BIX1        0.1137
     13  C         19.1500   41.4400   18.5880 C.2     1  BIX1        0.3649
     14  OC        19.1900   40.4590   19.3500 O.co2   1  BIX1       -0.2457
     15  O         19.9940   41.5290   17.6280 O.co2   1  BIX1       -0.2457
     16  P6        19.8950   44.7490   19.0050 P.3     1  BIX1        0.2547
     17  O61       20.5680   43.8330   19.9820 O.3     1  BIX1       -0.1678
     18  O6        19.2410   45.8780   19.6660 O.2     1  BIX1       -0.2869
     19  N         23.9310   44.7870   16.5960 N.3     1  BIX1       -0.1208
     20  O3        21.7070   45.9640   14.0650 O.co2   1  BIX1       -0.2441
@<TRIPOS>BOND
     1    20     3   ar
     2     9     8   ar
     3     3     6   ar
     4     3     1    1
     5     1    19    1
     6     1     4    1
     7     8    10    1
     8     8     7   ar
     9    10    11    1
    10     4     2    1
    11    15    13   ar
    12     2    16    1
    13     5    12    1
    14     5    16    1
    15    11    12    1
    16    13    12    1
    17    13    14   ar
    18    16    18    2
    19    16    17    1
