@<TRIPOS>MOLECULE
3fee_QUS_A_1.pdb
 13 13 0 0 0
SMALL
GASTEIGER

@<TRIPOS>ATOM
      1  C01       19.0100   41.3910   18.4550 C.2   741  QUS741      0.3838
      2  C02       18.0320   42.5190   18.6570 C.3   741  QUS741      0.2184
      3  C03       16.6110   42.1340   18.1870 C.3   741  QUS741      0.1793
      4  C04       15.5740   40.8810   16.3360 C.1   741  QUS741      0.3141
      5  C05       16.4560   41.9860   14.7250 C.1   741  QUS741      0.4071
      6  NP3       18.4810   43.7450   17.9610 N.3   741  QUS741     -0.1188
      7  N14       16.7370   41.4520   16.8880 N.am  741  QUS741     -0.0527
      8  N15       15.4830   41.1150   15.0190 N.2   741  QUS741     -0.2120
      9  O16       19.8700   41.5150   17.5730 O.co2 741  QUS741     -0.2440
     10  O17       18.8550   40.3790   19.1870 O.co2 741  QUS741     -0.2440
     11  O18       14.8000   40.2420   17.0130 O.2   741  QUS741     -0.1893
     12  O19       16.7640   42.5010   13.6590 O.2   741  QUS741     -0.1667
     13  O20       17.2480   42.3420   15.8700 O.3   741  QUS741     -0.2752
@<TRIPOS>BOND
     1    12     5    2
     2     5     8    2
     3     5    13    1
     4     8     4    2
     5    13     7    1
     6     4     7   am
     7     4    11    2
     8     7     3    1
     9     9     1   ar
    10     6     2    1
    11     3     2    1
    12     1     2    1
    13     1    10   ar
