@<TRIPOS>MOLECULE
3feg_ADP_A_1.pdb
 27 29 0 0 0
SMALL
GASTEIGER

@<TRIPOS>ATOM
      1  PB        28.8280   56.5130    8.8830 P.3   397  ADP397      0.5373
      2  O1B       29.6910   57.1860    7.8370 O.2   397  ADP397     -0.2221
      3  O2B       28.3950   57.4290    9.9980 O.3   397  ADP397     -0.1143
      4  O3B       27.6950   55.6770    8.3260 O.3   397  ADP397     -0.1143
      5  PA        29.8990   53.7750    9.6180 P.3   397  ADP397      0.2231
      6  O1A       28.5220   53.2410    9.2320 O.2   397  ADP397     -0.5169
      7  O2A       30.4540   53.3510   10.9560 O.3   397  ADP397     -0.4370
      8  O3A       29.8580   55.4300    9.5420 O.3   397  ADP397     -0.2261
      9  O5'       30.9850   53.4590    8.4930 O.3   397  ADP397     -0.3111
     10  C5'       30.8040   53.9560    7.1720 C.3   397  ADP397      0.1813
     11  C4'       31.1560   52.8780    6.1450 C.3   397  ADP397      0.1821
     12  O4'       32.3750   52.1900    6.4930 O.3   397  ADP397     -0.3135
     13  C3'       30.0590   51.8340    6.0570 C.3   397  ADP397      0.2184
     14  O3'       29.7340   51.5680    4.6990 O.3   397  ADP397     -0.2174
     15  C2'       30.6120   50.5910    6.6730 C.3   397  ADP397      0.2570
     16  O2'       30.2510   49.4610    5.8670 O.3   397  ADP397     -0.2130
     17  C1'       32.1170   50.8030    6.7060 C.3   397  ADP397      0.3186
     18  N9        32.6780   50.4510    8.0230 N.pl3 397  ADP397     -0.1439
     19  C8        32.3610   51.0490    9.1950 C.3   397  ADP397      0.3377
     20  N7        33.0730   50.4940   10.2040 N.2   397  ADP397     -0.2095
     21  C5        33.8450   49.5390    9.6590 C.2   397  ADP397      0.2526
     22  C6        34.8280   48.5930   10.1740 C.2   397  ADP397      0.4393
     23  N6        35.0990   48.5790   11.4880 N.pl3 397  ADP397      0.2180
     24  N1        35.4330   47.7560    9.2990 N.2   397  ADP397      0.0021
     25  C2        35.1470   47.7930    7.9850 C.3   397  ADP397      0.5254
     26  N3        34.2500   48.6370    7.4430 N.2   397  ADP397     -0.0055
     27  C4        33.5900   49.5180    8.2330 C.2   397  ADP397      0.3518
@<TRIPOS>BOND
     1    14    13    1
     2    16    15    1
     3    13    11    1
     4    13    15    1
     5    11    12    1
     6    11    10    1
     7    12    17    1
     8    15    17    1
     9    17    18    1
    10    10     9    1
    11    26    25    1
    12    26    27    2
    13     2     1    2
    14    25    24    1
    15    18    27    1
    16    18    19    1
    17    27    21    1
    18     4     1    1
    19     9     5    1
    20     1     8    1
    21     1     3    1
    22    19    20    1
    23     6     5    2
    24    24    22    2
    25     8     5    1
    26     5     7    1
    27    21    22    1
    28    21    20    2
    29    22    23    1
