@<TRIPOS>MOLECULE
3feg_AMP_A_1.pdb
 23 25 0 0 0
SMALL
GASTEIGER

@<TRIPOS>ATOM
      1  P         30.7440   55.5340    6.5030 P.3   398  AMP398      0.5327
      2  O1P       29.5190   55.2290    5.6800 O.2   398  AMP398     -0.2224
      3  O2P       31.6220   56.6350    5.9350 O.3   398  AMP398     -0.1145
      4  O3P       30.4930   55.6880    7.9810 O.3   398  AMP398     -0.1145
      5  O5'       31.6150   54.1570    6.3910 O.3   398  AMP398     -0.2675
      6  C5'       32.3500   53.8250    5.2160 C.3   398  AMP398      0.1860
      7  C4'       32.2190   52.3380    4.9280 C.3   398  AMP398      0.1823
      8  O4'       32.9390   51.5110    5.8620 O.3   398  AMP398     -0.3135
      9  C3'       30.8080   51.8530    5.0470 C.3   398  AMP398      0.2184
     10  O3'       30.5990   50.9090    3.9670 O.3   398  AMP398     -0.2174
     11  C2'       30.7260   51.1800    6.4150 C.3   398  AMP398      0.2570
     12  O2'       29.7380   50.1820    6.4600 O.3   398  AMP398     -0.2130
     13  C1'       32.1000   50.5440    6.5070 C.3   398  AMP398      0.3186
     14  N9        32.7080   50.3560    7.8580 N.pl3 398  AMP398     -0.1439
     15  C8        32.5130   51.1530    8.9480 C.3   398  AMP398      0.3377
     16  N7        33.2730   50.7270    9.9870 N.2   398  AMP398     -0.2095
     17  C5        33.9520   49.6580    9.5470 C.2   398  AMP398      0.2526
     18  C6        34.9130   48.7570   10.1440 C.2   398  AMP398      0.4393
     19  N6        35.2950   48.9320   11.4040 N.pl3 398  AMP398      0.2180
     20  N1        35.4140   47.7730    9.3710 N.2   398  AMP398      0.0021
     21  C2        35.0250   47.6310    8.1030 C.3   398  AMP398      0.5254
     22  N3        34.1440   48.4130    7.4760 N.2   398  AMP398     -0.0055
     23  C4        33.5990   49.4330    8.1650 C.2   398  AMP398      0.3518
@<TRIPOS>BOND
     1    10     9    1
     2     7     9    1
     3     7     6    1
     4     7     8    1
     5     9    11    1
     6     6     5    1
     7     2     1    2
     8     8    13    1
     9     3     1    1
    10     5     1    1
    11    11    12    1
    12    11    13    1
    13     1     4    1
    14    13    14    1
    15    22    21    1
    16    22    23    2
    17    14    23    1
    18    14    15    1
    19    21    20    1
    20    23    17    1
    21    15    16    1
    22    20    18    2
    23    17    16    2
    24    17    18    1
    25    18    19    1
