@<TRIPOS>MOLECULE
3feg_HC7_A_1.pdb
 34 36 0 0 0
SMALL
GASTEIGER

@<TRIPOS>ATOM
      1  CAW       25.7660   61.1140   -2.7830 C.3     1  HC71       -0.0080
      2  NBG       26.6970   61.5850   -3.8190 N.4     1  HC71        0.3924
      3  CAC       27.7750   60.5930   -4.0070 C.3     1  HC71       -0.0955
      4  CAD       25.9360   61.7600   -5.0630 C.3     1  HC71       -0.0955
      5  CAT       27.2840   62.8770   -3.4400 C.3     1  HC71       -0.0403
      6  CAR       27.8980   62.7970   -2.0390 C.3     1  HC71        0.1229
      7  OAX       26.9030   62.4080   -1.0860 O.3     1  HC71       -0.3327
      8  CBE       26.4510   61.0840   -1.4170 C.3     1  HC71        0.2200
      9  OAG       27.5650   60.1940   -1.4400 O.3     1  HC71       -0.1927
     10  CBD       25.4330   60.5900   -0.3850 C.ar    1  HC71        0.0290
     11  CAQ       24.9950   59.2710   -0.3850 C.ar    1  HC71        0.0004
     12  CAO       24.0630   58.8370    0.5760 C.ar    1  HC71       -0.0002
     13  CAP       24.9390   61.4790    0.5580 C.ar    1  HC71        0.0004
     14  CAN       24.0110   61.0450    1.5070 C.ar    1  HC71       -0.0002
     15  CBC       23.5710   59.7220    1.5370 C.ar    1  HC71       -0.0000
     16  CBB       22.6120   59.3000    2.4940 C.ar    1  HC71        0.0000
     17  CAM       22.6050   58.0250    3.0560 C.ar    1  HC71        0.0001
     18  CAK       21.6380   57.6350    4.0030 C.ar    1  HC71        0.0028
     19  CAL       21.6110   60.1740    2.8920 C.ar    1  HC71        0.0001
     20  CAJ       20.6410   59.7820    3.8060 C.ar    1  HC71        0.0028
     21  CBA       20.6410   58.5160    4.3760 C.ar    1  HC71        0.0326
     22  CAZ       19.5690   58.1230    5.3960 C.2     1  HC71        0.1529
     23  OAE       18.6240   58.8880    5.6160 O.2     1  HC71       -0.2935
     24  CAV       19.7050   56.8040    6.1670 C.3     1  HC71       -0.0021
     25  NBF       18.9070   56.7610    7.4260 N.4     1  HC71        0.3938
     26  CAA       19.2350   55.4800    8.0670 C.3     1  HC71       -0.0951
     27  CAB       17.4550   56.7790    7.1450 C.3     1  HC71       -0.0951
     28  CAU       19.2100   57.8820    8.3410 C.3     1  HC71       -0.0394
     29  CAS       20.5630   57.8090    9.0430 C.3     1  HC71        0.1317
     30  OAY       21.5790   57.8080    8.1160 O.3     1  HC71       -0.2725
     31  PBH       23.0400   57.3140    8.5230 P.3     1  HC71        0.5325
     32  OAH       23.5390   58.2550    9.6700 O.3     1  HC71       -0.1145
     33  OAI       23.8220   57.5840    7.2220 O.2     1  HC71       -0.2224
     34  OAF       23.0460   55.8450    8.8490 O.3     1  HC71       -0.1145
@<TRIPOS>BOND
     1     4     2    1
     2     3     2    1
     3     2     5    1
     4     2     1    1
     5     5     6    1
     6     1     8    1
     7     6     7    1
     8     9     8    1
     9     8     7    1
    10     8    10    1
    11    11    10   ar
    12    11    12   ar
    13    10    13   ar
    14    13    14   ar
    15    12    15   ar
    16    14    15   ar
    17    15    16    1
    18    16    19   ar
    19    16    17   ar
    20    19    20   ar
    21    17    18   ar
    22    20    21   ar
    23    18    21   ar
    24    21    22    1
    25    22    23    2
    26    22    24    1
    27    24    25    1
    28    27    25    1
    29    33    31    2
    30    25    26    1
    31    25    28    1
    32    30    31    1
    33    30    29    1
    34    28    29    1
    35    31    34    1
    36    31    32    1
