@<TRIPOS>MOLECULE
3fei_CTM_A_1.pdb
 29 31 0 0 0
SMALL
GASTEIGER

@<TRIPOS>ATOM
      1  N1        48.0770   31.0950   35.1900 N.2     1  CTM1       -0.3997
      2  C2        48.3560   31.4880   36.4230 C.2     1  CTM1        0.1566
      3  S3        47.3110   32.7150   37.0750 S.3     1  CTM1       -0.0750
      4  C4        46.9890   31.7680   34.7000 C.2     1  CTM1        0.1423
      5  C5        46.4480   32.6790   35.5610 C.3     1  CTM1        0.1226
      6  C6        48.4710   38.0940   28.5530 C.2     1  CTM1        0.3917
      7  C7        46.3480   35.4980   30.2460 C.ar    1  CTM1       -0.0229
      8  C8        46.6050   36.4950   29.1620 C.3     1  CTM1        0.0673
      9  C9        49.4190   31.0020   37.2940 C.ar    1  CTM1        0.0356
     10  C10       45.4390   35.7820   31.2780 C.ar    1  CTM1       -0.0227
     11  C11       47.8950   37.2030   29.6000 C.3     1  CTM1        0.2220
     12  C12       45.2200   34.8520   32.2780 C.ar    1  CTM1        0.0324
     13  O13       48.2400   39.2980   28.4940 O.co2   1  CTM1       -0.2429
     14  C14       47.0560   34.2920   30.2290 C.ar    1  CTM1       -0.0014
     15  C15       49.5380   31.5550   38.5760 C.ar    1  CTM1        0.0039
     16  C16       50.3150   30.0000   36.8960 C.ar    1  CTM1        0.0039
     17  C17       46.3950   31.5680   33.3200 C.3     1  CTM1        0.2600
     18  C18       45.9290   33.6560   32.2320 C.ar    1  CTM1        0.1388
     19  O19       45.6680   32.7760   33.2350 O.3     1  CTM1       -0.4682
     20  O20       49.2860   37.5030   27.6590 O.co2   1  CTM1       -0.2429
     21  C21       51.4260   30.1400   39.0380 C.ar    1  CTM1        0.0577
     22  C22       46.8460   33.3470   31.2280 C.ar    1  CTM1        0.0366
     23  C23       50.5380   31.1330   39.4460 C.ar    1  CTM1        0.0115
     24  C24       51.3150   29.5760   37.7670 C.ar    1  CTM1        0.0115
     25 CL25       52.6980   29.5990   40.1390 Cl      1  CTM1       -0.0822
     26  O26       47.6990   37.9910   30.7720 O.3     1  CTM1       -0.3448
     27  C27       44.6710   37.0660   31.3160 C.3     1  CTM1        0.0308
     28  C28       48.9290   38.6250   31.1170 C.3     1  CTM1        0.1429
     29  C29       48.6920   39.6220   32.2510 C.3     1  CTM1        0.0347
@<TRIPOS>BOND
     1    20     6   ar
     2    13     6   ar
     3     6    11    1
     4     8    11    1
     5     8     7    1
     6    11    26    1
     7    14     7   ar
     8    14    22   ar
     9     7    10   ar
    10    26    28    1
    11    28    29    1
    12    22    18   ar
    13    10    27    1
    14    10    12   ar
    15    18    12   ar
    16    18    19    1
    17    19    17    1
    18    17     4    1
    19     4     1    2
    20     4     5    1
    21     1     2    2
    22     5     3    1
    23     2     3    1
    24     2     9    1
    25    16     9   ar
    26    16    24   ar
    27     9    15   ar
    28    24    21   ar
    29    15    23   ar
    30    21    23   ar
    31    21    25    1
