@<TRIPOS>MOLECULE
3fej_CTM_A_1.pdb
 29 31 0 0 0
SMALL
GASTEIGER

@<TRIPOS>ATOM
      1  N1         6.7330   24.1690   17.1050 N.2     1  CTM1       -0.3997
      2  C2         7.0120   24.4000   15.8520 C.2     1  CTM1        0.1566
      3  S3         7.6150   26.0030   15.5000 S.3     1  CTM1       -0.0750
      4  C4         6.9720   25.2660   17.8680 C.2     1  CTM1        0.1423
      5  C5         7.4530   26.3440   17.1970 C.3     1  CTM1        0.1226
      6  C6        -1.2690   28.4770   20.0010 C.2     1  CTM1        0.3917
      7  C7         2.4520   27.6830   20.4590 C.ar    1  CTM1       -0.0229
      8  C8         1.0520   28.1220   20.7880 C.3     1  CTM1        0.0673
      9  C9         6.8290   23.4120   14.7980 C.ar    1  CTM1        0.0356
     10  C10        3.3860   28.6040   19.9710 C.ar    1  CTM1       -0.0227
     11  C11        0.1180   28.0780   19.5730 C.3     1  CTM1        0.2220
     12  C12        4.6960   28.2030   19.7420 C.ar    1  CTM1        0.0324
     13  O13       -1.5900   29.7030   19.9690 O.co2   1  CTM1       -0.2429
     14  C14        2.8340   26.3560   20.6780 C.ar    1  CTM1       -0.0014
     15  C15        7.1460   23.7110   13.4670 C.ar    1  CTM1        0.0039
     16  C16        6.3110   22.1470   15.1080 C.ar    1  CTM1        0.0039
     17  C17        6.7030   25.2430   19.3420 C.3     1  CTM1        0.2600
     18  C18        5.0730   26.8850   19.9860 C.ar    1  CTM1        0.1388
     19  O19        6.3890   26.5540   19.7850 O.3     1  CTM1       -0.4682
     20  O20       -2.0470   27.5760   20.4340 O.co2   1  CTM1       -0.2429
     21  C21        6.4030   21.5220   12.7850 C.ar    1  CTM1        0.0577
     22  C22        4.1440   25.9470   20.4400 C.ar    1  CTM1        0.0366
     23  C23        6.9340   22.7730   12.4650 C.ar    1  CTM1        0.0115
     24  C24        6.0980   21.2070   14.1100 C.ar    1  CTM1        0.0115
     25 CL25        6.1080   20.3430   11.5180 Cl      1  CTM1       -0.0822
     26  O26        0.5940   28.9380   18.5370 O.3     1  CTM1       -0.3448
     27  C27        3.0150   30.0380   19.7160 C.3     1  CTM1        0.0308
     28  C28        0.1630   28.5100   17.2480 C.3     1  CTM1        0.1429
     29  C29        0.7000   29.4520   16.1700 C.3     1  CTM1        0.0347
@<TRIPOS>BOND
     1    25    21    1
     2    23    21   ar
     3    23    15   ar
     4    21    24   ar
     5    15     9   ar
     6    24    16   ar
     7     9    16   ar
     8     9     2    1
     9     3     2    1
    10     3     5    1
    11     2     1    2
    12    29    28    1
    13     1     4    2
    14     5     4    1
    15    28    26    1
    16     4    17    1
    17    26    11    1
    18    17    19    1
    19    11     6    1
    20    11     8    1
    21    27    10    1
    22    12    10   ar
    23    12    18   ar
    24    19    18    1
    25    13     6   ar
    26    10     7   ar
    27    18    22   ar
    28     6    20   ar
    29    22    14   ar
    30     7    14   ar
    31     7     8    1
