@<TRIPOS>MOLECULE
3fep_LMC_A_1.pdb
 19 20 0 0 0
SMALL
GASTEIGER

@<TRIPOS>ATOM
      1  C18       32.6940  -17.2210    6.4890 C.2   139  LMC139     -0.0046
      2  C17       33.9100  -17.4710    6.9500 C.2   139  LMC139     -0.0221
      3  C16       34.7920  -18.2030    6.2610 C.3   139  LMC139      0.0440
      4  C20       34.4480  -18.7870    4.9290 C.3   139  LMC139      0.0094
      5  C15       35.9950  -18.4050    6.7950 C.2   139  LMC139     -0.0221
      6  C14       37.0700  -18.6920    6.0730 C.2   139  LMC139     -0.0033
      7  C13       38.1860  -18.8570    6.7670 C.2   139  LMC139      0.0104
      8  C8        39.3210  -19.6970    6.3320 C.2   139  LMC139      0.0318
      9  C7        39.3770  -20.4440    5.0540 C.3   139  LMC139      0.0515
     10  C11       38.3140  -21.5200    4.9430 C.3   139  LMC139      0.0101
     11  C10       39.3970  -19.4950    3.8730 C.3   139  LMC139      0.0101
     12  C2        40.7230  -21.0120    5.2840 C.ar  139  LMC139     -0.0042
     13  C3        41.2840  -20.6080    6.4820 C.ar  139  LMC139      0.0477
     14  N9        40.4060  -19.8070    7.0970 N.pl3 139  LMC139     -0.2885
     15  C12       40.6100  -19.1570    8.4090 C.3   139  LMC139      0.1170
     16  C1        41.4260  -21.8550    4.4430 C.ar  139  LMC139     -0.0027
     17  C6        42.6900  -22.2920    4.8080 C.ar  139  LMC139     -0.0002
     18  C5        43.2490  -21.8880    6.0080 C.ar  139  LMC139      0.0013
     19  C4        42.5450  -21.0430    6.8460 C.ar  139  LMC139      0.0145
@<TRIPOS>BOND
     1    11     9    1
     2    16    17   ar
     3    16    12   ar
     4    17    18   ar
     5     4     3    1
     6    10     9    1
     7     9    12    1
     8     9     8    1
     9    12    13   ar
    10    18    19   ar
    11     6     7    1
    12     6     5    2
    13     3     5    1
    14     3     2    1
    15     8     7    2
    16     8    14    1
    17    13    19   ar
    18    13    14    1
    19     1     2    2
    20    14    15    1
