@<TRIPOS>MOLECULE
3ff3_GLU_A_1.pdb
 10 9 0 0 0
SMALL
GASTEIGER

@<TRIPOS>ATOM
      1  N         18.5190   44.0390   18.2280 N.3     1  GLU1       -0.1208
      2  CA        18.0780   42.6780   18.8070 C.3     1  GLU1        0.1949
      3  C         19.1260   41.6470   18.5890 C.2     1  GLU1        0.3819
      4  O         19.1020   40.6040   19.2510 O.co2   1  GLU1       -0.2441
      5  CB        16.7470   42.2250   18.2460 C.3     1  GLU1        0.0424
      6  CG        16.8200   42.1600   16.7150 C.3     1  GLU1        0.1161
      7  CD        15.6380   41.4760   16.0340 C.2     1  GLU1        0.3649
      8  OE1       14.9140   40.7360   16.7170 O.co2   1  GLU1       -0.2457
      9  OE2       15.4510   41.7030   14.7940 O.co2   1  GLU1       -0.2457
     10  OXT       19.9510   41.8590   17.6290 O.co2   1  GLU1       -0.2441
@<TRIPOS>BOND
     1     9     7   ar
     2     7     6    1
     3     7     8   ar
     4     6     5    1
     5    10     3   ar
     6     1     2    1
     7     5     2    1
     8     3     2    1
     9     3     4   ar
