@<TRIPOS>MOLECULE
3ff5_DPW_A_1.pdb
 21 20 0 0 0
SMALL
GASTEIGER

@<TRIPOS>ATOM
      1  C1        23.4820   14.1380   60.2280 C.3     1  DPW1       -0.0959
      2  C2        24.8800   15.8760   61.1180 C.3     1  DPW1       -0.0959
      3  C3        22.9040   16.4380   59.9120 C.3     1  DPW1       -0.0959
      4  C4        24.7340   15.4990   58.6930 C.3     1  DPW1       -0.0402
      5  C5        26.2540   15.6050   58.8200 C.3     1  DPW1        0.1271
      6  C10       33.2990   15.1620   56.3990 C.3     1  DPW1        0.0000
      7  C11       34.5590   15.2850   55.5510 C.3     1  DPW1        0.0000
      8  C6        30.2580   13.1750   59.4550 C.3     1  DPW1        0.1491
      9  C7        31.4630   14.0310   59.0640 C.3     1  DPW1        0.0325
     10  C9        33.4950   14.2030   57.5640 C.3     1  DPW1        0.0001
     11  O3        27.0880   12.0050   58.7250 O.2     1  DPW1       -0.5172
     12  P         27.6120   13.3580   59.1200 P.3     1  DPW1        0.2139
     13  O4        27.5330   13.7970   60.5630 O.3     1  DPW1       -0.4373
     14  O1        26.8650   14.4600   58.2180 O.3     1  DPW1       -0.3163
     15  N         24.0210   15.4850   59.9880 N.4     1  DPW1        0.3874
     16  O2        29.1420   13.5070   58.6230 O.3     1  DPW1       -0.3141
     17  C8        32.2120   13.4400   57.8720 C.3     1  DPW1        0.0026
     18  C12       34.2070   15.8960   54.2010 C.3     1  DPW1        0.0000
     19  C13       35.4030   16.5670   53.5350 C.3     1  DPW1        0.0000
     20  C14       35.0420   16.9550   52.1040 C.3     1  DPW1        0.0000
     21  C15       35.8650   18.1310   51.6270 C.3     1  DPW1        0.0000
@<TRIPOS>BOND
     1    21    20    1
     2    20    19    1
     3    19    18    1
     4    18     7    1
     5     7     6    1
     6     6    10    1
     7    10    17    1
     8    17     9    1
     9    14     5    1
    10    14    12    1
    11    16    12    1
    12    16     8    1
    13     4     5    1
    14     4    15    1
    15    11    12    2
    16     9     8    1
    17    12    13    1
    18     3    15    1
    19    15     1    1
    20    15     2    1
