@<TRIPOS>MOLECULE
3ff6_RCP_A_1.pdb
 36 41 0 0 0
SMALL
GASTEIGER

@<TRIPOS>ATOM
      1  C29        8.6880   17.8500   26.0430 C.3     1  RCP1        0.1255
      2  C30        9.6030   16.6560   25.9210 C.3     1  RCP1        0.1636
      3  O28       10.9300   17.0780   25.6430 O.3     1  RCP1       -0.3501
      4  C28       10.9610   17.7800   24.4120 C.3     1  RCP1        0.1636
      5  C27       10.3320   19.1160   24.6870 C.3     1  RCP1        0.1255
      6  N26        8.9630   18.9020   25.0730 N.am    1  RCP1       -0.2744
      7  C26        7.9700   19.4900   24.3190 C.2     1  RCP1        0.2267
      8  O26        8.1080   19.9000   23.1750 O.2     1  RCP1       -0.2748
      9  C25        6.6600   19.5680   25.0550 C.3     1  RCP1        0.0927
     10  C24        6.2320   21.0160   25.2290 C.3     1  RCP1        0.0812
     11  C23        5.6750   18.6960   24.3070 C.3     1  RCP1        0.0119
     12  C22        5.1800   19.3860   23.0750 C.3     1  RCP1        0.0179
     13  C21        4.6210   20.7170   23.4750 C.3     1  RCP1        0.0721
     14  N20        5.7120   21.5880   23.9750 N.3     1  RCP1       -0.2734
     15  C20        5.2900   23.0170   24.0850 C.3     1  RCP1        0.0609
     16  C19        3.8030   23.1890   24.2910 C.3     1  RCP1        0.0375
     17  C18        3.4850   24.6230   24.0010 C.3     1  RCP1        0.0951
     18  C17        5.9780   23.7670   25.1970 C.3     1  RCP1        0.0375
     19  C16        5.5960   25.2280   25.1160 C.3     1  RCP1        0.0951
     20  N15        4.1680   25.4260   24.9670 N.am    1  RCP1       -0.2760
     21  C15        3.4330   26.3330   25.6870 C.2     1  RCP1        0.2490
     22  O15        2.2230   26.4980   25.6360 O.2     1  RCP1       -0.2699
     23  C14        4.2020   27.1700   26.6010 C.ar    1  RCP1        0.0536
     24  C1         4.3240   26.7770   27.9240 C.ar    1  RCP1        0.0044
     25  C2         3.7490   25.6200   28.4140 C.ar    1  RCP1        0.0001
     26  C3         3.8960   25.2700   29.7330 C.ar    1  RCP1        0.0000
     27  C4         4.6220   26.0730   30.5750 C.ar    1  RCP1        0.0000
     28  C5         5.1990   27.2240   30.0950 C.ar    1  RCP1        0.0000
     29  C6         5.0500   27.5760   28.7730 C.ar    1  RCP1        0.0001
     30  C7         5.6290   28.7320   28.2980 C.ar    1  RCP1        0.0000
     31  C8         5.4940   29.1050   26.9760 C.ar    1  RCP1        0.0001
     32  C13        4.7750   28.3230   26.1030 C.ar    1  RCP1        0.0044
     33  C12        4.6480   28.7120   24.7830 C.ar    1  RCP1        0.0001
     34  C11        5.2310   29.8750   24.3330 C.ar    1  RCP1        0.0000
     35  C10        5.9490   30.6510   25.2080 C.ar    1  RCP1        0.0000
     36  C9         6.0800   30.2660   26.5240 C.ar    1  RCP1        0.0000
@<TRIPOS>BOND
     1    12    13    1
     2    12    11    1
     3     8     7    2
     4    13    14    1
     5    14    15    1
     6    14    10    1
     7    17    16    1
     8    17    20    1
     9    15    16    1
    10    15    18    1
    11    11     9    1
    12     7     9    1
    13     7     6   am
    14    34    33   ar
    15    34    35   ar
    16     4     5    1
    17     4     3    1
    18     5     6    1
    19    33    32   ar
    20    20    19    1
    21    20    21   am
    22     9    10    1
    23     6     1    1
    24    19    18    1
    25    35    36   ar
    26    22    21    2
    27     3     2    1
    28    21    23    1
    29     2     1    1
    30    32    23   ar
    31    32    31   ar
    32    36    31   ar
    33    23    24   ar
    34    31    30   ar
    35    24    25   ar
    36    24    29   ar
    37    30    29   ar
    38    25    26   ar
    39    29    28   ar
    40    26    27   ar
    41    28    27   ar
