@<TRIPOS>MOLECULE
3ffa_GSP_A_1.pdb
 32 34 0 0 0
SMALL
GASTEIGER

@<TRIPOS>ATOM
      1  PG       -46.0600   15.8350  -12.4690 P.3     1  GSP1        0.4340
      2  O3B      -45.3910   16.4360  -11.0510 O.3     1  GSP1       -0.2405
      3  S1G      -46.4490   14.2390  -12.0520 S.3     1  GSP1        0.0416
      4  O2G      -45.0490   15.6700  -13.6360 O.2     1  GSP1       -0.2423
      5  O3G      -47.2710   16.7780  -13.0610 O.3     1  GSP1       -0.1305
      6  PB       -44.1540   15.9430  -10.0670 P.3     1  GSP1        0.2262
      7  O1B      -43.0280   15.3860  -10.7960 O.2     1  GSP1       -0.5168
      8  O2B      -44.6270   14.9350   -9.1390 O.3     1  GSP1       -0.4369
      9  PA       -42.4050   18.1500   -9.4270 P.3     1  GSP1        0.2189
     10  O1A      -42.5160   18.5330  -10.8600 O.2     1  GSP1       -0.5170
     11  O2A      -41.1850   17.4350   -9.1490 O.3     1  GSP1       -0.4371
     12  O3A      -43.6830   17.1990   -9.1720 O.3     1  GSP1       -0.2701
     13  O5'      -42.6550   19.3230   -8.3590 O.3     1  GSP1       -0.3112
     14  C5'      -43.6160   20.3520   -8.6580 C.3     1  GSP1        0.1813
     15  C4'      -43.0300   21.6800   -8.1810 C.3     1  GSP1        0.1799
     16  O4'      -42.8290   21.5590   -6.7850 O.3     1  GSP1       -0.3326
     17  C3'      -41.6300   21.9720   -8.7270 C.3     1  GSP1        0.2158
     18  O3'      -41.5320   23.3240   -9.0770 O.3     1  GSP1       -0.2175
     19  C2'      -40.6720   21.6270   -7.5870 C.3     1  GSP1        0.2310
     20  O2'      -39.5500   22.4300   -7.4880 O.3     1  GSP1       -0.2158
     21  C1'      -41.5220   21.8840   -6.3690 C.3     1  GSP1        0.2293
     22  N9       -41.2470   21.0180   -5.2100 N.pl3   1  GSP1       -0.2354
     23  C8       -41.1950   19.6520   -5.1890 C.3     1  GSP1        0.2246
     24  N7       -40.9780   19.2650   -3.9050 N.2     1  GSP1       -0.2322
     25  C5       -40.8940   20.3840   -3.1240 C.2     1  GSP1        0.2182
     26  C6       -40.6940   20.5830   -1.7610 C.1     1  GSP1        0.2372
     27  O6       -40.5230   19.6130   -1.0050 O.2     1  GSP1       -0.2069
     28  N1       -40.6860   21.8810   -1.2720 N.2     1  GSP1       -0.2485
     29  C2       -40.8380   22.9590   -2.1060 C.1     1  GSP1        0.2531
     30  N2       -40.7940   24.1890   -1.6240 N.pl3   1  GSP1       -0.0226
     31  N3       -41.0650   22.7680   -3.4320 N.2     1  GSP1       -0.3074
     32  C4       -41.0690   21.4960   -3.9400 C.2     1  GSP1        0.2300
@<TRIPOS>BOND
     1     4     1    2
     2     5     1    1
     3     1     3    1
     4     1     2    1
     5     2     6    1
     6    10     9    2
     7     7     6    2
     8     6    12    1
     9     6     8    1
    10     9    12    1
    11     9    11    1
    12     9    13    1
    13    18    17    1
    14    17    15    1
    15    17    19    1
    16    14    13    1
    17    14    15    1
    18    15    16    1
    19    19    20    1
    20    19    21    1
    21    16    21    1
    22    21    22    1
    23    22    23    1
    24    22    32    1
    25    23    24    1
    26    32    31    2
    27    32    25    1
    28    24    25    2
    29    31    29    2
    30    25    26    1
    31    29    30    1
    32    29    28    2
    33    26    28    2
    34    26    27    2
