@<TRIPOS>MOLECULE
3ffb_GDP_A_1.pdb
 28 30 0 0 0
SMALL
GASTEIGER

@<TRIPOS>ATOM
      1  PB       -38.7790   21.5060   -1.8290 P.3     1  GDP1        0.5373
      2  O1B      -39.0710   21.1200   -3.2590 O.2     1  GDP1       -0.2221
      3  O2B      -37.8170   20.5370   -1.1990 O.3     1  GDP1       -0.1143
      4  O3B      -38.2300   22.9110   -1.7680 O.3     1  GDP1       -0.1143
      5  O3A      -40.1780   21.3730   -1.0490 O.3     1  GDP1       -0.2261
      6  PA       -41.0220   22.5520   -0.3590 P.3     1  GDP1        0.2231
      7  O1A      -41.6280   23.4960   -1.3660 O.2     1  GDP1       -0.5169
      8  O2A      -40.2870   23.2890    0.7390 O.3     1  GDP1       -0.4370
      9  O5'      -42.1740   21.6380    0.2750 O.3     1  GDP1       -0.3111
     10  C5'      -43.1080   20.9770   -0.5780 C.3     1  GDP1        0.1813
     11  C4'      -44.5400   21.0820   -0.0560 C.3     1  GDP1        0.1799
     12  O4'      -44.7240   20.3780    1.1780 O.3     1  GDP1       -0.3326
     13  C3'      -44.9870   22.4890    0.2390 C.3     1  GDP1        0.2158
     14  O3'      -46.3810   22.4310   -0.0420 O.3     1  GDP1       -0.2175
     15  C2'      -44.7870   22.6490    1.7390 C.3     1  GDP1        0.2310
     16  O2'      -45.7270   23.5390    2.3300 O.3     1  GDP1       -0.2158
     17  C1'      -45.0610   21.2570    2.2590 C.3     1  GDP1        0.2293
     18  N9       -44.2730   20.8510    3.4550 N.pl3   1  GDP1       -0.2354
     19  C8       -42.9330   20.9490    3.6470 C.3     1  GDP1        0.2246
     20  N7       -42.5740   20.4350    4.8650 N.2     1  GDP1       -0.2322
     21  C5       -43.7050   19.9880    5.4650 C.2     1  GDP1        0.2182
     22  C6       -44.0610   19.3100    6.7340 C.1     1  GDP1        0.2372
     23  O6       -43.1900   19.0380    7.5960 O.2     1  GDP1       -0.2069
     24  N1       -45.3570   19.0160    6.9520 N.2     1  GDP1       -0.2485
     25  C2       -46.3390   19.3060    6.0680 C.1     1  GDP1        0.2531
     26  N2       -47.6260   18.9820    6.3660 N.pl3   1  GDP1       -0.0226
     27  N3       -46.0680   19.9130    4.8850 N.2     1  GDP1       -0.3074
     28  C4       -44.8120   20.2680    4.5370 C.2     1  GDP1        0.2300
@<TRIPOS>BOND
     1     2     1    2
     2     1     4    1
     3     1     3    1
     4     1     5    1
     5     7     6    2
     6     5     6    1
     7    10    11    1
     8    10     9    1
     9     6     9    1
    10     6     8    1
    11    11    13    1
    12    11    12    1
    13    14    13    1
    14    13    15    1
    15    12    17    1
    16    15    17    1
    17    15    16    1
    18    17    18    1
    19    18    19    1
    20    18    28    1
    21    19    20    1
    22    28    27    2
    23    28    21    1
    24    20    21    2
    25    27    25    2
    26    21    22    1
    27    25    26    1
    28    25    24    2
    29    22    24    2
    30    22    23    2
