@<TRIPOS>MOLECULE
3ffg_FFG_A_1.pdb
 45 51 0 0 0
SMALL
GASTEIGER

@<TRIPOS>ATOM
      1  C13       36.6140   33.2620   19.7820 C.ar    1  FFG1       -0.0002
      2  C18       36.7670   27.7520   14.2930 C.ar    1  FFG1        0.0836
      3  C17       36.8410   34.3820   22.1520 C.ar    1  FFG1       -0.0061
      4  C16       33.5320   28.7330   15.2920 C.ar    1  FFG1        0.0251
      5  C15       38.6590   28.2940   12.7470 C.ar    1  FFG1        0.0780
      6  C19       35.4040   31.4060   17.9210 C.ar    1  FFG1        0.0542
      7  C20       34.9070   28.7900   15.4800 C.ar    1  FFG1        0.1339
      8  C21       33.2850   27.8510   14.2150 C.ar    1  FFG1        0.1702
      9  C22       39.0680   29.0040   11.5300 C.1     1  FFG1        0.1218
     10  C23       35.5640   29.5850   16.4270 C.2     1  FFG1        0.2702
     11  C24       38.9780   30.1660    9.7490 C.1     1  FFG1        0.3285
     12  C11       35.3750   32.8400   17.6210 C.ar    1  FFG1        0.0149
     13  C12       37.2660   28.4250   13.1240 C.ar    1  FFG1        0.0302
     14  C27       33.4070   30.7870   16.6210 C.3     1  FFG1        0.1033
     15  C1        38.9910   36.0160   21.2350 C.ar    1  FFG1       -0.0000
     16  C2        38.5640   36.1660   22.6180 C.ar    1  FFG1       -0.0003
     17  C3        39.0800   26.8010   14.7210 C.ar    1  FFG1        0.0023
     18  C4        38.3730   35.0780   20.3080 C.ar    1  FFG1       -0.0003
     19  C5        36.6350   31.8220   20.0710 C.ar    1  FFG1        0.0013
     20  C6        35.9800   33.7680   18.5530 C.ar    1  FFG1        0.0013
     21  C7        39.5910   27.4790   13.5410 C.ar    1  FFG1        0.0112
     22  C8        37.4750   35.3360   23.0790 C.ar    1  FFG1       -0.0029
     23  C9        37.6730   26.9410   15.0880 C.ar    1  FFG1        0.0192
     24  C10       36.0280   30.8860   19.1390 C.ar    1  FFG1        0.0149
     25  C14       37.2610   34.2260   20.7580 C.ar    1  FFG1       -0.0027
     26  C25       32.6270   29.5410   16.1960 C.3     1  FFG1        0.0514
     27  C26       32.2770   34.3020   22.9970 C.3     1  FFG1        0.0517
     28  C28       33.3870   33.5270   23.6680 C.3     1  FFG1        0.0751
     29  C29       34.0580   35.3290   22.1250 C.3     1  FFG1        0.1056
     30  C30       32.7100   34.8070   21.6280 C.3     1  FFG1        0.1693
     31  C31       35.7070   33.5390   22.7290 C.3     1  FFG1        0.0992
     32  C32       31.9730   27.5320   13.5760 C.3     1  FFG1        0.4362
     33  N33       34.4610   27.3890   13.7880 N.ar    1  FFG1       -0.1613
     34  N34       40.2860   28.9960   10.9840 N.2     1  FFG1       -0.0686
     35  N35       35.4420   27.9580   14.5440 N.ar    1  FFG1       -0.2256
     36  N36       38.2450   29.7700   10.7730 N.2     1  FFG1       -0.2602
     37  N37       40.2260   29.6870    9.9430 N.2     1  FFG1       -0.0353
     38  N38       34.8290   30.5730   17.0010 N.am    1  FFG1       -0.2536
     39  N39       34.5210   34.3170   23.1170 N.3     1  FFG1       -0.2667
     40  O40       36.7510   29.4060   16.7070 O.2     1  FFG1       -0.2679
     41  O41       38.5810   30.8410    8.7980 O.2     1  FFG1       -0.1863
     42  O42       31.8980   35.9070   21.1980 O.3     1  FFG1       -0.2216
     43  F43       31.0540   27.4860   14.5030 F       1  FFG1       -0.1644
     44  F44       31.7570   28.4830   12.6760 F       1  FFG1       -0.1644
     45  F45       32.0940   26.3880   12.9400 F       1  FFG1       -0.1644
@<TRIPOS>BOND
     1    41    11    2
     2    11    37    2
     3    11    36    2
     4    37    34    1
     5    36     9    2
     6    34     9    2
     7     9     5    1
     8    44    32    1
     9     5    13   ar
    10     5    21   ar
    11    45    32    1
    12    13     2   ar
    13    21    17   ar
    14    32     8    1
    15    32    43    1
    16    33     8   ar
    17    33    35   ar
    18     8     4   ar
    19     2    35    1
    20     2    23   ar
    21    35     7   ar
    22    17    23   ar
    23     4     7   ar
    24     4    26    1
    25     7    10    1
    26    26    14    1
    27    10    40    2
    28    10    38   am
    29    14    38    1
    30    38     6    1
    31    12     6   ar
    32    12    20   ar
    33     6    24   ar
    34    20     1   ar
    35    24    19   ar
    36     1    19   ar
    37     1    25    1
    38    18    25   ar
    39    18    15   ar
    40    25     3   ar
    41    42    30    1
    42    15    16   ar
    43    30    29    1
    44    30    27    1
    45    29    39    1
    46     3    31    1
    47     3    22   ar
    48    16    22   ar
    49    31    39    1
    50    27    28    1
    51    39    28    1
