@<TRIPOS>MOLECULE
3ffi_3OB_A_1.pdb
 33 36 0 0 0
SMALL
GASTEIGER

@<TRIPOS>ATOM
      1  C1        48.6190   63.8630   20.7320 C.ar  561  3OB561      0.0723
      2  C2        48.5080   62.4830   20.8980 C.ar  561  3OB561      0.0219
      3  C3        48.1230   61.7030   19.8270 C.ar  561  3OB561      0.0614
      4  C4        47.8470   62.2710   18.5980 C.ar  561  3OB561      0.0489
      5  C5        47.9620   63.6440   18.4290 C.ar  561  3OB561      0.1465
      6  C6        48.3460   64.4440   19.4940 C.ar  561  3OB561      0.0478
      7  O7        47.6850   64.2140   17.2260 O.3   561  3OB561     -0.4551
      8  C8        49.0150   64.6880   21.8260 C.1   561  3OB561      0.1005
      9 CL9        47.9750   59.9890   20.0030 Cl    561  3OB561     -0.0821
     10  C10       48.3090   63.8110   16.0840 C.2   561  3OB561      0.1566
     11  C11       49.7140   63.9190   15.9430 C.2   561  3OB561      0.0645
     12  C12       50.2950   63.5100   14.7910 C.2   561  3OB561      0.1336
     13  N13       49.5540   63.0090   13.7630 N.2   561  3OB561     -0.3389
     14  C14       48.2120   62.8890   13.8460 C.1   561  3OB561      0.2020
     15  C15       47.5530   63.2930   15.0290 C.3   561  3OB561      0.2350
     16  N16       46.1530   63.1870   15.1500 N.3   561  3OB561     -0.2512
     17  O17       47.5830   62.4340   12.8970 O.2   561  3OB561     -0.2124
     18  C18       45.5280   61.9500   15.6250 C.3   561  3OB561      0.0909
     19  C19       45.3150   64.3300   14.7920 C.3   561  3OB561      0.0909
     20  C20       51.7860   63.6210   14.6200 C.3   561  3OB561      0.1451
     21  N21       49.3260   65.3520   22.6920 N.1   561  3OB561     -0.1908
     22  C22       52.0170   64.8270   13.7520 C.2   561  3OB561      0.2331
     23  O23       51.7240   64.7630   12.5780 O.2   561  3OB561     -0.2744
     24  N24       52.5050   65.9780   14.2560 N.am  561  3OB561     -0.2747
     25  C25       52.6990   67.1310   13.3600 C.3   561  3OB561      0.1198
     26  C26       52.2280   67.3180   16.3390 C.3   561  3OB561      0.0476
     27  C27       52.8750   66.0950   15.6860 C.3   561  3OB561      0.0984
     28  C28       52.2750   68.5340   15.4360 C.ar  561  3OB561     -0.0228
     29  C29       52.4830   68.4470   14.0680 C.ar  561  3OB561     -0.0062
     30  C30       52.5140   69.6100   13.2950 C.ar  561  3OB561     -0.0029
     31  C31       52.3290   70.8520   13.8880 C.ar  561  3OB561     -0.0003
     32  C32       52.1160   70.9380   15.2590 C.ar  561  3OB561     -0.0003
     33  C33       52.0900   69.7860   16.0290 C.ar  561  3OB561     -0.0045
@<TRIPOS>BOND
     1    23    22    2
     2    17    14    2
     3    30    31   ar
     4    30    29   ar
     5    25    29    1
     6    25    24    1
     7    22    24   am
     8    22    20    1
     9    13    14    2
    10    13    12    2
    11    14    15    1
    12    31    32   ar
    13    29    28   ar
    14    24    27    1
    15    20    12    1
    16    12    11    1
    17    19    16    1
    18    15    16    1
    19    15    10    1
    20    16    18    1
    21    32    33   ar
    22    28    33   ar
    23    28    26    1
    24    27    26    1
    25    11    10    2
    26    10     7    1
    27     7     5    1
    28     5     4   ar
    29     5     6   ar
    30     4     3   ar
    31     6     1   ar
    32     3     9    1
    33     3     2   ar
    34     1     2   ar
    35     1     8    1
    36     8    21    3
