@<TRIPOS>MOLECULE
3ffk_ATP_B_1.pdb
 31 33 0 0 0
SMALL
GASTEIGER

@<TRIPOS>ATOM
      1  PG       -47.1000   57.8270  -22.3150 P.3   380  ATP380      0.5373
      2  O1G      -48.1900   57.0360  -21.6330 O.3   380  ATP380     -0.1143
      3  O2G      -47.3330   59.3120  -22.4000 O.2   380  ATP380     -0.2221
      4  O3G      -45.6950   57.4810  -21.8790 O.3   380  ATP380     -0.1143
      5  PB       -46.2940   56.3670  -24.6380 P.3   380  ATP380      0.2277
      6  O1B      -47.1600   55.7560  -25.7010 O.2   380  ATP380     -0.5168
      7  O2B      -45.5260   55.4710  -23.6990 O.3   380  ATP380     -0.4368
      8  O3B      -47.2630   57.3880  -23.8590 O.3   380  ATP380     -0.2258
      9  PA       -43.8580   56.8130  -26.0570 P.3   380  ATP380      0.2189
     10  O1A      -42.7170   56.8800  -25.0750 O.3   380  ATP380     -0.4371
     11  O2A      -44.1010   55.4940  -26.7620 O.2   380  ATP380     -0.5170
     12  O3A      -45.2110   57.3440  -25.3340 O.3   380  ATP380     -0.2700
     13  O5'      -43.6540   57.9260  -27.2000 O.3   380  ATP380     -0.3112
     14  C5'      -44.6420   58.1800  -28.2050 C.3   380  ATP380      0.1813
     15  C4'      -44.6560   59.6840  -28.4820 C.3   380  ATP380      0.1821
     16  O4'      -43.3380   60.1080  -28.8270 O.3   380  ATP380     -0.3135
     17  C3'      -45.5540   60.1120  -29.6320 C.3   380  ATP380      0.2184
     18  O3'      -46.3250   61.2190  -29.1830 O.3   380  ATP380     -0.2174
     19  C2'      -44.6110   60.5930  -30.7150 C.3   380  ATP380      0.2570
     20  O2'      -45.1420   61.6640  -31.5010 O.3   380  ATP380     -0.2130
     21  C1'      -43.3890   61.0060  -29.9220 C.3   380  ATP380      0.3186
     22  N9       -42.1620   60.9000  -30.7380 N.pl3 380  ATP380     -0.1439
     23  C8       -41.5980   59.7860  -31.2530 C.3   380  ATP380      0.3377
     24  N7       -40.4730   60.1020  -31.9550 N.2   380  ATP380     -0.2095
     25  C5       -40.3150   61.4450  -31.8840 C.2   380  ATP380      0.2526
     26  C6       -39.3560   62.4640  -32.3890 C.2   380  ATP380      0.4393
     27  N6       -38.2900   62.1270  -33.1470 N.pl3 380  ATP380      0.2180
     28  N1       -39.5770   63.7600  -32.0720 N.2   380  ATP380      0.0021
     29  C2       -40.6290   64.1450  -31.3260 C.3   380  ATP380      0.5254
     30  N3       -41.5400   63.2870  -30.8380 N.2   380  ATP380     -0.0055
     31  C4       -41.4370   61.9580  -31.0810 C.2   380  ATP380      0.3518
@<TRIPOS>BOND
     1    27    26    1
     2    26    28    2
     3    26    25    1
     4    28    29    1
     5    24    25    2
     6    24    23    1
     7    25    31    1
     8    20    19    1
     9    29    30    1
    10    23    22    1
    11    31    30    2
    12    31    22    1
    13    22    21    1
    14    19    21    1
    15    19    17    1
    16    21    16    1
    17    17    18    1
    18    17    15    1
    19    16    15    1
    20    15    14    1
    21    14    13    1
    22    13     9    1
    23    11     9    2
    24     9    12    1
    25     9    10    1
    26     6     5    2
    27    12     5    1
    28     5     8    1
    29     5     7    1
    30     8     1    1
    31     3     1    2
    32     1     4    1
    33     1     2    1
