@<TRIPOS>MOLECULE
3ffo_MAN_A_1.pdb
 11 11 0 0 0
SMALL
GASTEIGER

@<TRIPOS>ATOM
      1  C1       -33.1600   42.8740    5.8650 C.3   178  MAN178      0.2716
      2  C2       -32.8660   44.2550    6.4330 C.3   178  MAN178      0.0999
      3  C3       -33.9110   44.4550    7.5230 C.3   178  MAN178      0.1898
      4  C4       -35.3080   44.3930    6.9120 C.3   178  MAN178      0.2118
      5  C5       -35.4880   43.1500    6.0380 C.3   178  MAN178      0.1834
      6  C6       -36.7640   43.2650    5.2090 C.3   178  MAN178      0.2142
      7  O1       -32.1200   42.4300    5.0210 O.3   178  MAN178     -0.1898
      8  O3       -33.7140   45.6900    8.1740 O.3   178  MAN178     -0.2201
      9  O4       -36.2790   44.3880    7.9370 O.3   178  MAN178     -0.2177
     10  O5       -34.3860   42.9550    5.1680 O.3   178  MAN178     -0.3255
     11  O6       -37.8910   43.1840    6.0510 O.3   178  MAN178     -0.2176
@<TRIPOS>BOND
     1     7     1    1
     2    10     1    1
     3    10     5    1
     4     6     5    1
     5     6    11    1
     6     1     2    1
     7     5     4    1
     8     2     3    1
     9     4     3    1
    10     4     9    1
    11     3     8    1
