@<TRIPOS>MOLECULE
3ffo_NAG_A_1.pdb
 15 15 0 0 0
SMALL
GASTEIGER

@<TRIPOS>ATOM
      1  C1       -31.5250   46.3970    5.6900 C.3   177  NAG177      0.2917
      2  C2       -31.1280   46.8710    4.2940 C.3   177  NAG177      0.1871
      3  C3       -30.0110   47.9080    4.3540 C.3   177  NAG177      0.2095
      4  C4       -30.3820   49.0250    5.3240 C.3   177  NAG177      0.2136
      5  C5       -30.8730   48.4680    6.6580 C.3   177  NAG177      0.1835
      6  C6       -31.4240   49.5900    7.5320 C.3   177  NAG177      0.2142
      7  C7       -31.4160   45.3120    2.4670 C.2   177  NAG177      0.2421
      8  C8       -32.8450   45.7620    2.3920 C.3   177  NAG177      0.0964
      9  N2       -30.6900   45.7540    3.4870 N.am  177  NAG177     -0.1991
     10  O1       -32.5760   45.4450    5.6500 O.3   177  NAG177     -0.1879
     11  O3       -29.7770   48.4320    3.0600 O.3   177  NAG177     -0.2183
     12  O4       -29.2640   49.8600    5.5460 O.3   177  NAG177     -0.2176
     13  O5       -31.9010   47.5170    6.4640 O.3   177  NAG177     -0.3242
     14  O6       -32.6090   50.0650    6.9280 O.3   177  NAG177     -0.2176
     15  O7       -30.9550   44.5560    1.6160 O.2   177  NAG177     -0.2733
@<TRIPOS>BOND
     1    15     7    2
     2     8     7    1
     3     7     9   am
     4    11     3    1
     5     9     2    1
     6     2     3    1
     7     2     1    1
     8     3     4    1
     9     4    12    1
    10     4     5    1
    11    10     1    1
    12     1    13    1
    13    13     5    1
    14     5     6    1
    15    14     6    1
