@<TRIPOS>MOLECULE
3ffp_LC1_X_1.pdb
 18 20 0 0 0
SMALL
GASTEIGER

@<TRIPOS>ATOM
      1  CAH       -6.7710    7.5470   12.2030 C.3   300  LC1300      0.1171
      2  SAI       -6.6190    8.9580   11.2610 S.3   300  LC1300     -0.1069
      3  CAR       -4.9260    8.9820   11.2550 C.3   300  LC1300      0.1839
      4  NAQ       -4.5390    7.9060   11.9720 N.2   300  LC1300     -0.2499
      5  CAP       -5.5250    7.1310   12.4980 C.2   300  LC1300      0.1504
      6  CAO       -5.2640    5.9710   13.2600 C.1   300  LC1300      0.1527
      7  NAN       -4.0930    5.3330   13.3980 N.2   300  LC1300     -0.3363
      8  CAM       -4.2800    4.2720   14.1910 C.ar  300  LC1300      0.1742
      9  CAL       -3.4370    3.2640   14.6340 C.ar  300  LC1300      0.0371
     10  CAK       -3.9300    2.2460   15.4640 C.ar  300  LC1300      0.0228
     11  CAD       -5.2920    2.1920   15.8220 C.ar  300  LC1300      0.1278
     12  SAC       -5.9790    1.0410   16.8710 S.O2  300  LC1300      0.0936
     13  OAA       -7.3540    0.9900   16.7300 O.2   300  LC1300     -0.1503
     14  OAJ       -5.3650    1.0120   18.1680 O.2   300  LC1300     -0.1503
     15  NAB       -5.4420   -0.3110   16.2900 N.3   300  LC1300      0.0392
     16  CAE       -6.1200    3.2300   15.3890 C.ar  300  LC1300      0.0557
     17  CAF       -5.6070    4.2420   14.5540 C.ar  300  LC1300      0.1755
     18  NAG       -6.1770    5.2850   13.9660 N.2   300  LC1300     -0.3362
@<TRIPOS>BOND
     1     3     2    1
     2     3     4    1
     3     2     1    1
     4     4     5    2
     5     1     5    1
     6     5     6    1
     7     6     7    2
     8     6    18    2
     9     7     8    2
    10    18    17    2
    11     8    17   ar
    12     8     9   ar
    13    17    16   ar
    14     9    10   ar
    15    16    11   ar
    16    10    11   ar
    17    11    12    1
    18    15    12    1
    19    13    12    2
    20    12    14    2
