@<TRIPOS>MOLECULE
3ffu_GTP_A_1.pdb
 32 34 0 0 0
SMALL
GASTEIGER

@<TRIPOS>ATOM
      1  PG        28.0640   -8.8070  -18.3680 P.3   4033  GTP4033     0.5373
      2  O1G       27.8920   -7.4940  -19.1260 O.2   4033  GTP4033    -0.2221
      3  O2G       27.9650   -8.5420  -16.8670 O.3   4033  GTP4033    -0.1143
      4  O3G       29.4530   -9.3790  -18.6510 O.3   4033  GTP4033    -0.1143
      5  O3B       26.8900   -9.8310  -18.8790 O.3   4033  GTP4033    -0.2258
      6  PB        25.3030   -9.6130  -18.6110 P.3   4033  GTP4033     0.2277
      7  O1B       24.7850   -8.4300  -19.3960 O.2   4033  GTP4033    -0.5168
      8  O2B       24.5400  -10.8720  -18.9330 O.3   4033  GTP4033    -0.4368
      9  O3A       25.1250   -9.2980  -17.0280 O.3   4033  GTP4033    -0.2700
     10  PA        25.2450  -10.5020  -15.9700 P.3   4033  GTP4033     0.2189
     11  O1A       24.8180  -11.7810  -16.6340 O.2   4033  GTP4033    -0.5170
     12  O2A       26.6510  -10.5600  -15.4570 O.3   4033  GTP4033    -0.4371
     13  O5'       24.2210  -10.2300  -14.7690 O.3   4033  GTP4033    -0.3112
     14  C5'       24.2360   -9.0110  -14.0810 C.3   4033  GTP4033     0.1813
     15  C4'       24.3400   -9.2030  -12.5590 C.3   4033  GTP4033     0.1799
     16  O4'       23.3160   -9.9900  -11.9480 O.3   4033  GTP4033    -0.3326
     17  C3'       25.6760   -9.8060  -12.1740 C.3   4033  GTP4033     0.2158
     18  O3'       26.4020   -8.8250  -11.4500 O.3   4033  GTP4033    -0.2175
     19  C2'       25.3010  -10.9980  -11.3180 C.3   4033  GTP4033     0.2310
     20  O2'       26.1050  -11.0240  -10.1730 O.3   4033  GTP4033    -0.2158
     21  C1'       23.8720  -10.7390  -10.8780 C.3   4033  GTP4033     0.2293
     22  N9        23.1190  -11.9960  -10.6240 N.pl3 4033  GTP4033    -0.2354
     23  C8        22.6820  -12.4990   -9.4190 C.3   4033  GTP4033     0.2246
     24  N7        22.0200  -13.6640   -9.6750 N.2   4033  GTP4033    -0.2322
     25  C5        22.0110  -13.9070  -11.0110 C.2   4033  GTP4033     0.2182
     26  C6        21.4890  -14.9210  -11.8230 C.1   4033  GTP4033     0.2372
     27  O6        20.8760  -15.8820  -11.3500 O.2   4033  GTP4033    -0.2069
     28  N1        21.6710  -14.8630  -13.1900 N.2   4033  GTP4033    -0.2485
     29  C2        22.3640  -13.8090  -13.7470 C.1   4033  GTP4033     0.2531
     30  N2        22.5720  -13.7100  -15.0520 N.pl3 4033  GTP4033    -0.0226
     31  N3        22.8650  -12.8200  -12.9460 N.2   4033  GTP4033    -0.3074
     32  C4        22.7050  -12.8660  -11.6060 C.2   4033  GTP4033     0.2300
@<TRIPOS>BOND
     1     7     6    2
     2     2     1    2
     3     8     6    1
     4     5     6    1
     5     5     1    1
     6     4     1    1
     7     6     9    1
     8     1     3    1
     9     9    10    1
    10    11    10    2
    11    10    12    1
    12    10    13    1
    13    30    29    1
    14    13    14    1
    15    14    15    1
    16    29    28    2
    17    29    31    2
    18    28    26    2
    19    31    32    2
    20    15    17    1
    21    15    16    1
    22    17    18    1
    23    17    19    1
    24    16    21    1
    25    26    27    2
    26    26    25    1
    27    32    25    1
    28    32    22    1
    29    19    21    1
    30    19    20    1
    31    25    24    2
    32    21    22    1
    33    22    23    1
    34    24    23    1
