@<TRIPOS>MOLECULE
3fg0_NAD_A_1.pdb
 44 48 0 0 0
SMALL
GASTEIGER

@<TRIPOS>ATOM
      1  PA        48.9060   35.6160   60.9580 P.3   600  NAD600      0.2189
      2  O1A       50.0130   34.7510   60.3850 O.3   600  NAD600     -0.4371
      3  O2A       47.7830   36.1160   60.0630 O.2   600  NAD600     -0.5170
      4  O5B       48.2560   34.7180   62.1300 O.3   600  NAD600     -0.3112
      5  C5B       48.9820   34.3100   63.2820 C.3   600  NAD600      0.1813
      6  C4B       48.6120   32.8690   63.6140 C.3   600  NAD600      0.1821
      7  O4B       48.5870   32.0890   62.4010 O.3   600  NAD600     -0.3135
      8  C3B       49.6700   32.2850   64.5240 C.3   600  NAD600      0.2184
      9  O3B       49.1650   31.2850   65.4270 O.3   600  NAD600     -0.2174
     10  C2B       50.6250   31.7120   63.4830 C.3   600  NAD600      0.2570
     11  O2B       51.6020   30.7660   63.9500 O.3   600  NAD600     -0.2130
     12  C1B       49.6080   31.0990   62.5060 C.3   600  NAD600      0.3186
     13  N9A       50.1820   30.7240   61.1940 N.pl3 600  NAD600     -0.1439
     14  C8A       51.1320   31.3630   60.4820 C.3   600  NAD600      0.3377
     15  N7A       51.3660   30.6530   59.3470 N.2   600  NAD600     -0.2095
     16  C5A       50.5430   29.5720   59.3320 C.2   600  NAD600      0.2526
     17  C6A       50.3450   28.5090   58.4590 C.2   600  NAD600      0.4393
     18  N6A       51.0460   28.3980   57.3050 N.pl3 600  NAD600      0.2180
     19  N1A       49.4200   27.5620   58.7460 N.2   600  NAD600      0.0021
     20  C2A       48.7270   27.6340   59.9000 C.3   600  NAD600      0.5254
     21  N3A       48.9090   28.6460   60.7760 N.2   600  NAD600     -0.0055
     22  C4A       49.8130   29.6230   60.5130 C.2   600  NAD600      0.3518
     23  O3        49.4270   36.8940   61.8230 O.3   600  NAD600     -0.2703
     24  PN        50.6730   37.8940   61.5460 P.3   600  NAD600      0.2189
     25  O1N       51.4520   37.4100   60.3430 O.2   600  NAD600     -0.5170
     26  O2N       51.3760   38.1590   62.8620 O.3   600  NAD600     -0.4371
     27  O5D       49.8790   39.2640   61.2610 O.3   600  NAD600     -0.3112
     28  C5D       49.7090   39.6800   59.8990 C.3   600  NAD600      0.1813
     29  C4D       48.5170   40.5960   59.8160 C.3   600  NAD600      0.1799
     30  O4D       47.3340   39.8180   60.0570 O.3   600  NAD600     -0.3327
     31  C3D       48.5080   41.7140   60.8490 C.3   600  NAD600      0.2158
     32  O3D       49.2920   42.8740   60.4830 O.3   600  NAD600     -0.2175
     33  C2D       47.0150   41.9710   60.9370 C.3   600  NAD600      0.2309
     34  O2D       46.5550   42.8910   59.9280 O.3   600  NAD600     -0.2158
     35  C1D       46.3700   40.6010   60.7280 C.3   600  NAD600      0.2263
     36  N1N       45.9980   40.0620   62.0390 N.pl3 600  NAD600     -0.2787
     37  C2N       44.6880   40.0150   62.3280 C.3   600  NAD600      0.1244
     38  C3N       44.2530   39.5850   63.5760 C.2   600  NAD600      0.0544
     39  C7N       42.7780   39.5250   63.8540 C.2   600  NAD600      0.2818
     40  O7N       42.3040   39.8680   65.0530 O.2   600  NAD600     -0.2670
     41  N7N       41.9770   39.0770   62.8820 N.am  600  NAD600     -0.0839
     42  C4N       45.1910   39.1660   64.5260 C.2   600  NAD600      0.0033
     43  C5N       46.5440   39.1830   64.1860 C.2   600  NAD600      0.0157
     44  C6N       46.9220   39.6570   62.9250 C.2   600  NAD600      0.0633
@<TRIPOS>BOND
     1    18    17    1
     2    17    19    2
     3    17    16    1
     4    19    20    1
     5    16    15    2
     6    16    22    1
     7    15    14    1
     8    29    28    1
     9    29    30    1
    10    29    31    1
    11    28    27    1
    12    20    21    1
    13    34    33    1
    14    30    35    1
    15     3     1    2
    16    25    24    2
    17     2     1    1
    18    14    13    1
    19    32    31    1
    20    22    21    2
    21    22    13    1
    22    35    33    1
    23    35    36    1
    24    31    33    1
    25     1    23    1
    26     1     4    1
    27    13    12    1
    28    27    24    1
    29    24    23    1
    30    24    26    1
    31    36    37    1
    32    36    44    1
    33     4     5    1
    34    37    38    1
    35     7    12    1
    36     7     6    1
    37    12    10    1
    38    41    39   am
    39    44    43    2
    40     5     6    1
    41    10    11    1
    42    10     8    1
    43    38    39    1
    44    38    42    2
    45     6     8    1
    46    39    40    2
    47    43    42    1
    48     8     9    1
