@<TRIPOS>MOLECULE
3fg5_III_C_1.pdb
 47 48 0 0 0
SMALL
GASTEIGER

@<TRIPOS>ATOM
      1  N         -4.8070   11.7650    5.9810 N.3     1  PHE1       -0.1227
      2  CA        -3.4840   11.7660    5.4240 C.3     1  PHE1        0.1736
      3  C         -3.0920   12.9680    4.6330 C.2     1  PHE1        0.2595
      4  O         -3.5930   13.3530    3.5180 O.2     1  PHE1       -0.2718
      5  CB        -3.1610   10.4550    4.7670 C.3     1  PHE1        0.0547
      6  CG        -2.7270    9.4360    5.7480 C.ar    1  PHE1       -0.0202
      7  CD1       -1.3810    9.1850    5.8960 C.ar    1  PHE1       -0.0042
      8  CD2       -3.6370    8.8460    6.6350 C.ar    1  PHE1       -0.0042
      9  CE1       -0.9230    8.3820    6.8530 C.ar    1  PHE1       -0.0003
     10  CE2       -3.1730    8.0070    7.6300 C.ar    1  PHE1       -0.0003
     11  CZ        -1.8010    7.7910    7.7440 C.ar    1  PHE1       -0.0000
     12  N         -2.3110   13.6250    5.5060 N.am    2  LEU2       -0.1966
     13  CA        -1.5600   14.8740    5.4860 C.3     2  LEU2        0.1728
     14  C         -2.2750   16.2130    5.2720 C.2     2  LEU2        0.2617
     15  O         -1.7350   17.0960    4.6370 O.2     2  LEU2       -0.2715
     16  CB        -0.3350   14.6330    4.6100 C.3     2  LEU2        0.0311
     17  CG         0.4090   13.5490    5.4080 C.3     2  LEU2        0.0022
     18  CD1       -0.1520   12.1750    5.1090 C.3     2  LEU2        0.0001
     19  CD2        1.8500   13.6120    5.0370 C.3     2  LEU2        0.0001
     20  N         -3.4930   16.3750    5.8030 N.am    3  SER3       -0.1936
     21  CA        -4.1310   17.6930    5.7230 C.3     3  SER3        0.2055
     22  C         -4.9110   18.0850    6.9560 C.2     3  SER3        0.2643
     23  O         -5.3530   17.2480    7.7450 O.2     3  SER3       -0.2714
     24  CB        -5.0520   17.8450    4.4880 C.3     3  SER3        0.2130
     25  OG        -5.3210   19.2030    4.1900 O.3     3  SER3       -0.2179
     26  N         -4.9160   19.4040    7.1460 N.am    4  TYR4       -0.1959
     27  CA        -5.6350   20.1990    8.1590 C.3     4  TYR4        0.1771
     28  C         -5.2880   21.5080    7.4530 C.2     4  TYR4        0.2620
     29  O         -4.2100   22.0360    7.6770 O.2     4  TYR4       -0.2715
     30  CB        -5.0300   20.1570    9.6090 C.3     4  TYR4        0.0574
     31  CG        -5.6410   21.3010   10.4170 C.ar    4  TYR4       -0.0198
     32  CD1       -5.4610   22.5960    9.9550 C.ar    4  TYR4       -0.0009
     33  CD2       -6.6040   21.1010   11.4260 C.ar    4  TYR4       -0.0009
     34  CE1       -6.2000   23.6470   10.4000 C.ar    4  TYR4        0.0417
     35  CE2       -7.3600   22.1740   11.8930 C.ar    4  TYR4        0.0417
     36  CZ        -7.1450   23.4410   11.3560 C.ar    4  TYR4        0.1957
     37  OH        -7.8950   24.5070   11.7610 O.3     4  TYR4       -0.2866
     38  N         -6.0970   21.9300    6.4620 N.am    5  LYS5       -0.1941
     39  CA        -5.8180   23.2290    5.8340 C.3     5  LYS5        0.1978
     40  C         -6.8020   24.1850    6.4140 C.2     5  LYS5        0.3842
     41  O         -7.8870   23.7530    6.8910 O.co2   5  LYS5       -0.2437
     42  CB        -5.9620   23.2500    4.3110 C.3     5  LYS5        0.0333
     43  CG        -5.6740   24.6140    3.7320 C.3     5  LYS5        0.0039
     44  CD        -6.8260   25.3110    3.1730 C.3     5  LYS5        0.0206
     45  CE        -7.4980   26.0700    4.2410 C.3     5  LYS5        0.1093
     46  NZ        -8.3200   27.2290    4.5800 N.3     5  LYS5       -0.1314
     47  OXT       -6.4360   25.3410    6.3750 O.co2   5  LYS5       -0.2437
@<TRIPOS>BOND
     1    44    43    1
     2    44    45    1
     3     4     3    2
     4    43    42    1
     5    25    24    1
     6    45    46    1
     7    42    39    1
     8    24    21    1
     9    16    17    1
    10    16    13    1
    11     3     2    1
    12     3    12   am
    13    15    14    2
    14     5     2    1
    15     5     6    1
    16    19    17    1
    17    18    17    1
    18    14    13    1
    19    14    20   am
    20     2     1    1
    21    13    12    1
    22    21    20    1
    23    21    22    1
    24     6     7   ar
    25     6     8   ar
    26    39    40    1
    27    39    38    1
    28     7     9   ar
    29    47    40   ar
    30    40    41   ar
    31    38    28   am
    32     8    10   ar
    33     9    11   ar
    34    22    26   am
    35    22    23    2
    36    26    27    1
    37    28    29    2
    38    28    27    1
    39    10    11   ar
    40    27    30    1
    41    30    31    1
    42    32    34   ar
    43    32    31   ar
    44    34    36   ar
    45    31    33   ar
    46    36    37    1
    47    36    35   ar
    48    33    35   ar
