@<TRIPOS>MOLECULE
3fg5_AJM_A_1.pdb
 22 27 0 0 0
SMALL
GASTEIGER

@<TRIPOS>ATOM
      1  O1       -12.1900   32.6520    8.3590 O.3   134  AJM134     -0.2227
      2  C15      -13.3310   31.9720    8.9050 C.3   134  AJM134      0.1585
      3  C5       -14.6730   32.5790    8.4430 C.3   134  AJM134      0.0674
      4  C4       -14.8270   31.9880    7.0480 C.3   134  AJM134      0.0243
      5  C6       -14.8790   34.0570    8.3470 C.ar  134  AJM134     -0.0054
      6  C7       -14.0280   35.1450    8.0490 C.ar  134  AJM134     -0.0029
      7  C8       -14.5840   36.4480    8.0490 C.ar  134  AJM134     -0.0002
      8  C9       -15.9370   36.6690    8.3570 C.ar  134  AJM134      0.0012
      9  C11      -16.2770   34.2730    8.6720 C.ar  134  AJM134      0.0439
     10  C10      -16.8120   35.6010    8.6620 C.ar  134  AJM134      0.0142
     11  C14      -13.4170   30.5110    8.4170 C.3   134  AJM134      0.0457
     12  C13      -13.7920   29.5410    9.6100 C.3   134  AJM134      0.0091
     13  C16      -14.2610   28.1690    9.0360 C.3   134  AJM134      0.0503
     14  C3       -14.5790   30.4680    7.3470 C.3   134  AJM134      0.0626
     15  N2       -15.8180   29.9080    8.0110 N.3   134  AJM134     -0.2493
     16  C17      -15.5500   28.4330    8.1950 C.3   134  AJM134      0.2126
     17  O2       -15.3570   27.8260    6.9230 O.3   134  AJM134     -0.2050
     18  C2       -16.0610   30.5910    9.3560 C.3   134  AJM134      0.0780
     19  C12      -15.0300   30.0530   10.4190 C.3   134  AJM134      0.0180
     20  C1       -15.8560   32.1110    9.3900 C.3   134  AJM134      0.0935
     21  N1       -16.9310   33.0230    8.9390 N.pl3 134  AJM134     -0.3059
     22  C18      -17.8860   33.1830   10.0570 C.3   134  AJM134      0.1122
@<TRIPOS>BOND
     1    17    16    1
     2     4    14    1
     3     4     3    1
     4    14    15    1
     5    14    11    1
     6    15    16    1
     7    15    18    1
     8     6     7   ar
     9     6     5   ar
    10     7     8   ar
    11    16    13    1
    12     5     3    1
    13     5     9   ar
    14     8    10   ar
    15     1     2    1
    16    11     2    1
    17    11    12    1
    18     3     2    1
    19     3    20    1
    20    10     9   ar
    21     9    21    1
    22    21    20    1
    23    21    22    1
    24    13    12    1
    25    18    20    1
    26    18    19    1
    27    12    19    1
