@<TRIPOS>MOLECULE
3fg8_3PB_A_1.pdb
 11 10 0 0 0
SMALL
GASTEIGER

@<TRIPOS>ATOM
      1  O2        77.8440    5.0520   30.1660 O.co2 301  3PB301     -0.2456
      2  C1        78.3150    5.8820   30.9710 C.2   301  3PB301      0.3673
      3  O1        79.4260    5.6980   31.4900 O.co2 301  3PB301     -0.2456
      4  C2        77.5010    7.1480   31.2840 C.3   301  3PB301      0.1440
      5  C3        76.3980    6.8510   32.3050 C.3   301  3PB301      0.1376
      6  C4        76.9950    6.2950   33.5970 C.3   301  3PB301      0.0333
      7  O1P       75.6370    8.0750   32.5910 O.3   301  3PB301     -0.2722
      8  P         74.0600    8.0660   33.0130 P.3   301  3PB301      0.5325
      9  O4P       73.9780    7.3180   34.3310 O.3   301  3PB301     -0.1145
     10  O2P       73.7240    9.5540   33.1490 O.3   301  3PB301     -0.1145
     11  O3P       73.3220    7.3940   31.8600 O.2   301  3PB301     -0.2224
@<TRIPOS>BOND
     1     1     2   ar
     2     2     4    1
     3     2     3   ar
     4     4     5    1
     5    11     8    2
     6     5     7    1
     7     5     6    1
     8     7     8    1
     9     8    10    1
    10     8     9    1
