@<TRIPOS>MOLECULE
3fgc_FMN_A_1.pdb
 31 33 0 0 0
SMALL
GASTEIGER

@<TRIPOS>ATOM
      1  N1         0.6980   19.8780   31.6080 N.2   3402  FMN3402    -0.2887
      2  C2         0.5930   21.2340   31.3070 C.1   3402  FMN3402     0.3669
      3  O2        -0.0780   22.0100   32.0040 O.2   3402  FMN3402    -0.1744
      4  N3         1.2490   21.7130   30.1990 N.2   3402  FMN3402    -0.2300
      5  C4         1.9920   20.8670   29.4230 C.1   3402  FMN3402     0.2513
      6  O4         2.6010   21.3700   28.4930 O.2   3402  FMN3402    -0.2057
      7  C4A        2.0910   19.4950   29.7370 C.2   3402  FMN3402     0.2703
      8  N5         2.8350   18.6230   28.9460 N.2   3402  FMN3402    -0.3882
      9  C5A        2.9470   17.2810   29.2490 C.2   3402  FMN3402     0.1277
     10  C6         3.7170   16.4640   28.4270 C.3   3402  FMN3402     0.0820
     11  C7         3.8500   15.1030   28.6970 C.2   3402  FMN3402    -0.0408
     12  C7M        4.6790   14.2220   27.8090 C.3   3402  FMN3402     0.0265
     13  C8         3.2160   14.5580   29.8010 C.2   3402  FMN3402    -0.0280
     14  C8M        3.3620   13.0760   30.0470 C.3   3402  FMN3402     0.0304
     15  C9         2.4400   15.3860   30.6280 C.2   3402  FMN3402     0.0123
     16  C9A        2.2940   16.7620   30.3710 C.2   3402  FMN3402     0.0793
     17  N10        1.5050   17.6260   31.1750 N.pl3 3402  FMN3402    -0.2545
     18  C10        1.4350   18.9940   30.8500 C.2   3402  FMN3402     0.2449
     19  C1'        0.4220   17.0450   32.0760 C.3   3402  FMN3402     0.1336
     20  C2'       -0.9920   16.9490   31.4480 C.3   3402  FMN3402     0.2048
     21  O2'       -1.5620   18.2530   31.2870 O.3   3402  FMN3402    -0.2185
     22  C3'       -2.0040   16.1120   32.2870 C.3   3402  FMN3402     0.2165
     23  O3'       -1.9390   16.4810   33.6530 O.3   3402  FMN3402    -0.2175
     24  C4'       -1.9020   14.5720   32.3210 C.3   3402  FMN3402     0.2147
     25  O4'       -0.5890   14.0860   32.1410 O.3   3402  FMN3402    -0.2176
     26  C5'       -2.8650   13.8400   31.3920 C.3   3402  FMN3402     0.1892
     27  O5'       -4.0770   14.5360   31.2150 O.3   3402  FMN3402    -0.2674
     28  P         -5.5200   13.9260   31.6380 P.3   3402  FMN3402     0.5327
     29  O1P       -5.7590   14.2650   33.1030 O.3   3402  FMN3402    -0.1145
     30  O2P       -6.5370   14.5580   30.7280 O.2   3402  FMN3402    -0.2224
     31  O3P       -5.5000   12.4200   31.4940 O.3   3402  FMN3402    -0.1145
@<TRIPOS>BOND
     1    12    11    1
     2    10    11    1
     3    10     9    1
     4     6     5    2
     5    11    13    2
     6     8     9    2
     7     8     7    2
     8     9    16    1
     9     5     7    1
    10     5     4    2
    11     7    18    1
    12    13    14    1
    13    13    15    1
    14     4     2    2
    15    16    15    2
    16    16    17    1
    17    30    28    2
    18    18    17    1
    19    18     1    2
    20    17    19    1
    21    27    26    1
    22    27    28    1
    23    21    20    1
    24     2     1    2
    25     2     3    2
    26    26    24    1
    27    20    19    1
    28    20    22    1
    29    31    28    1
    30    28    29    1
    31    25    24    1
    32    22    24    1
    33    22    23    1
