@<TRIPOS>MOLECULE
3fgd_BYA_A_1.pdb
 14 14 0 0 0
SMALL
GASTEIGER

@<TRIPOS>ATOM
      1  C2       -10.8760   38.5450    6.2390 C.2   322  BYA322      0.3667
      2  C4       -11.1620   39.9520    5.8770 C.3   322  BYA322      0.1374
      3  C5        -9.9620   40.5690    5.0900 C.3   322  BYA322      0.1273
      4  N6        -9.8800   40.0620    3.7260 N.am  322  BYA322     -0.2011
      5  C7        -8.9590   39.1690    3.2940 C.2   322  BYA322      0.2648
      6  C9        -8.9270   38.8440    1.8030 C.ar  322  BYA322      0.0550
      7  C14       -8.4750   37.6200    1.3310 C.ar  322  BYA322      0.0046
      8  C13       -8.4420   37.3240   -0.0330 C.ar  322  BYA322      0.0001
      9  C12       -8.8740   38.2980   -0.9350 C.ar  322  BYA322      0.0000
     10  C11       -9.3390   39.5280   -0.4690 C.ar  322  BYA322      0.0001
     11  C10       -9.3690   39.8170    0.8880 C.ar  322  BYA322      0.0046
     12  O8        -8.1600   38.6130    4.0230 O.2   322  BYA322     -0.2684
     13  O3        -9.8720   38.2810    6.9510 O.co2 322  BYA322     -0.2456
     14  O1       -11.5910   37.5960    5.8640 O.co2 322  BYA322     -0.2456
@<TRIPOS>BOND
     1     9    10   ar
     2     9     8   ar
     3    10    11   ar
     4     8     7   ar
     5    11     6   ar
     6     7     6   ar
     7     6     5    1
     8     5     4   am
     9     5    12    2
    10     4     3    1
    11     3     2    1
    12    14     1   ar
    13     2     1    1
    14     1    13   ar
