@<TRIPOS>MOLECULE
3fgo_ACP_A_1.pdb
 31 33 0 0 0
SMALL
GASTEIGER

@<TRIPOS>ATOM
      1  PG        47.7530   51.8170   66.4310 P.3   1007  ACP1007     0.1295
      2  O1G       48.4100   52.7910   65.3720 O.2   1007  ACP1007    -0.4595
      3  O2G       46.6740   51.1640   65.4670 O.3   1007  ACP1007    -0.3567
      4  O3G       46.9910   52.4740   67.5170 O.3   1007  ACP1007    -0.3567
      5  PB        50.2260   50.7050   67.8840 P.3   1007  ACP1007     0.3815
      6  O1B       50.0550   51.3880   69.2990 O.3   1007  ACP1007    -0.1391
      7  O2B       51.4630   51.1270   67.1920 O.2   1007  ACP1007    -0.2547
      8  C3B       48.7810   50.6580   66.9980 C.3   1007  ACP1007     0.1768
      9  PA        50.7120   48.0570   69.3130 P.3   1007  ACP1007     0.2209
     10  O1A       50.3780   48.7450   70.6870 O.3   1007  ACP1007    -0.4371
     11  O2A       50.0040   46.8000   69.0320 O.2   1007  ACP1007    -0.5170
     12  O3A       50.3660   49.1980   68.3190 O.3   1007  ACP1007    -0.2483
     13  O5'       52.3040   48.1060   69.4410 O.3   1007  ACP1007    -0.3111
     14  C5'       52.9990   47.8880   70.6420 C.3   1007  ACP1007     0.1813
     15  C4'       54.1580   48.8960   70.8660 C.3   1007  ACP1007     0.1821
     16  O4'       55.1990   48.1110   71.3940 O.3   1007  ACP1007    -0.3135
     17  C3'       54.7080   49.5010   69.5390 C.3   1007  ACP1007     0.2184
     18  O3'       54.1870   50.7750   69.2900 O.3   1007  ACP1007    -0.2174
     19  C2'       56.2520   49.5010   69.7360 C.3   1007  ACP1007     0.2570
     20  O2'       56.7820   50.5670   70.4590 O.3   1007  ACP1007    -0.2130
     21  C1'       56.3760   48.2500   70.6390 C.3   1007  ACP1007     0.3186
     22  N9        56.5850   47.0370   69.8480 N.pl3 1007  ACP1007    -0.1439
     23  C8        55.9080   46.4580   68.7240 C.3   1007  ACP1007     0.3377
     24  N7        56.4660   45.2970   68.3280 N.2   1007  ACP1007    -0.2095
     25  C5        57.5450   45.0960   69.2310 C.2   1007  ACP1007     0.2526
     26  C6        58.5290   44.0730   69.3730 C.2   1007  ACP1007     0.4393
     27  N6        58.5400   42.9850   68.5560 N.pl3 1007  ACP1007     0.2180
     28  N1        59.4740   44.1690   70.3670 N.2   1007  ACP1007     0.0021
     29  C2        59.4000   45.2580   71.1790 C.3   1007  ACP1007     0.5254
     30  N3        58.5470   46.2980   71.1610 N.2   1007  ACP1007    -0.0055
     31  C4        57.6320   46.1690   70.1610 C.2   1007  ACP1007     0.3518
@<TRIPOS>BOND
     1     2     1    2
     2     3     1    1
     3     1     8    1
     4     1     4    1
     5     8     5    1
     6     7     5    2
     7     5    12    1
     8     5     6    1
     9    12     9    1
    10    24    23    1
    11    24    25    2
    12    27    26    1
    13    23    22    1
    14    11     9    2
    15    25    26    1
    16    25    31    1
    17    18    17    1
    18     9    13    1
    19     9    10    1
    20    26    28    2
    21    13    14    1
    22    17    19    1
    23    17    15    1
    24    19    20    1
    25    19    21    1
    26    22    31    1
    27    22    21    1
    28    31    30    2
    29    28    29    1
    30    21    16    1
    31    14    15    1
    32    15    16    1
    33    30    29    1
