@<TRIPOS>MOLECULE
3fgo_CZA_A_1.pdb
 25 29 0 0 0
SMALL
GASTEIGER

@<TRIPOS>ATOM
      1  O2        39.7460   56.5670   14.5220 O.2   1005  CZA1005    -0.2934
      2  C6        39.5250   56.6580   13.3170 C.2   1005  CZA1005     0.1841
      3  C3        39.4040   55.6020   12.3090 C.3   1005  CZA1005     0.1926
      4  C2        39.3110   54.1620   12.6390 C.2   1005  CZA1005     0.1665
      5  O1        39.4240   53.7200   13.7810 O.2   1005  CZA1005    -0.2951
      6  C1        39.0550   53.1620   11.5120 C.3   1005  CZA1005     0.0732
      7  C5        39.5470   57.9660   12.5550 C.3   1005  CZA1005     0.1376
      8  C7        38.3230   58.8770   12.4840 C.3   1005  CZA1005     0.0511
      9  C15       37.9400   59.7980   13.6030 C.2   1005  CZA1005    -0.0004
     10  C16       37.0870   59.7210   14.6530 C.2   1005  CZA1005     0.0946
     11  N2        37.1340   60.9360   15.3390 N.2   1005  CZA1005    -0.2442
     12  C17       38.0170   61.8310   14.7470 C.2   1005  CZA1005     0.0801
     13  C14       38.5140   61.0990   13.6480 C.2   1005  CZA1005     0.0077
     14  C18       38.4610   63.1440   14.9740 C.2   1005  CZA1005     0.0148
     15  C19       39.4090   63.7060   14.0860 C.2   1005  CZA1005    -0.0202
     16  C20       39.9040   62.9670   12.9870 C.3   1005  CZA1005     0.0481
     17  C13       39.4650   61.6440   12.7830 C.2   1005  CZA1005    -0.0386
     18  C12       39.8980   60.8000   11.5980 C.3   1005  CZA1005     0.0244
     19  C8        38.8100   59.7060   11.2430 C.3   1005  CZA1005     0.0269
     20  C9        39.2230   58.5950   10.2330 C.3   1005  CZA1005     0.0614
     21  C10       38.0620   58.2830    9.2650 C.3   1005  CZA1005     0.0199
     22  C11       40.4870   58.9070    9.4430 C.3   1005  CZA1005     0.0199
     23  N1        39.5190   57.5150   11.1770 N.am  1005  CZA1005    -0.2766
     24  C4        39.4270   56.1700   11.0780 C.2   1005  CZA1005     0.2396
     25  O3        39.1550   55.5340    9.8920 O.2   1005  CZA1005    -0.2740
@<TRIPOS>BOND
     1    21    20    1
     2    22    20    1
     3    25    24    2
     4    20    23    1
     5    20    19    1
     6    24    23   am
     7    24     3    1
     8    23     7    1
     9    19    18    1
    10    19     8    1
    11     6     4    1
    12    18    17    1
    13     3     4    1
    14     3     2    1
    15     8     7    1
    16     8     9    1
    17     7     2    1
    18     4     5    2
    19    17    16    1
    20    17    13    2
    21    16    15    1
    22     2     1    2
    23     9    13    1
    24     9    10    2
    25    13    12    1
    26    15    14    2
    27    10    11    1
    28    12    14    1
    29    12    11    2
