@<TRIPOS>MOLECULE
3fgt_7PE_B_1.pdb
 21 20 0 0 0
SMALL
GASTEIGER

@<TRIPOS>ATOM
      1  C21      -34.6300   28.9400    8.7930 C.3   607  7PE607      0.0346
      2  C20      -35.7040   29.1100    9.8760 C.3   607  7PE607      0.1424
      3  O19      -35.1200   29.7960   11.0090 O.3   607  7PE607     -0.3511
      4  C18      -35.9410   29.7320   12.1920 C.3   607  7PE607      0.1741
      5  C17      -35.5370   28.6360   13.1760 C.3   607  7PE607      0.1742
      6  O16      -36.5410   27.5790   13.1980 O.3   607  7PE607     -0.3484
      7  C15      -36.0040   26.3150   13.6850 C.3   607  7PE607      0.1742
      8  C14      -35.2440   25.5760   12.5620 C.3   607  7PE607      0.1742
      9  O13      -35.0620   24.1600   12.8360 O.3   607  7PE607     -0.3484
     10  C12      -33.6810   23.8380   13.1200 C.3   607  7PE607      0.1742
     11  C11      -32.8400   23.4710   11.8930 C.3   607  7PE607      0.1742
     12  O10      -33.6130   23.3020   10.6960 O.3   607  7PE607     -0.3484
     13  C9       -32.7750   23.3320    9.5270 C.3   607  7PE607      0.1742
     14  C8       -33.5660   23.5200    8.2240 C.3   607  7PE607      0.1742
     15  O7       -33.4310   24.8350    7.6090 O.3   607  7PE607     -0.3484
     16  C6       -32.1370   25.0590    6.9830 C.3   607  7PE607      0.1742
     17  C5       -31.8680   26.5680    6.8340 C.3   607  7PE607      0.1742
     18  O4       -30.4570   26.9570    6.6840 O.3   607  7PE607     -0.3483
     19  C3       -29.7900   26.3830    5.5150 C.3   607  7PE607      0.1777
     20  C2       -28.8190   27.3000    4.7540 C.3   607  7PE607      0.2140
     21  O1       -28.4660   26.6860    3.4990 O.3   607  7PE607     -0.2176
@<TRIPOS>BOND
     1    21    20    1
     2    20    19    1
     3    19    18    1
     4    18    17    1
     5    17    16    1
     6    16    15    1
     7    15    14    1
     8    14    13    1
     9     1     2    1
    10    13    12    1
    11     2     3    1
    12    12    11    1
    13     3     4    1
    14    11    10    1
    15     4     5    1
    16     8     9    1
    17     8     7    1
    18     9    10    1
    19     5     6    1
    20     6     7    1
