@<TRIPOS>MOLECULE
3fgu_BGC_A_1.pdb
 12 12 0 0 0
SMALL
GASTEIGER

@<TRIPOS>ATOM
      1  C2       -26.1450   -6.0590   13.1130 C.3   501  BGC501      0.2434
      2  C3       -25.0760   -5.1460   13.7200 C.3   501  BGC501      0.2199
      3  C4       -24.4700   -4.2220   12.6830 C.3   501  BGC501      0.2144
      4  C5       -25.5240   -3.5930   11.7680 C.3   501  BGC501      0.1836
      5  C6       -24.9160   -2.8970   10.5710 C.3   501  BGC501      0.2142
      6  C1       -27.1260   -5.1240   12.4270 C.3   501  BGC501      0.3024
      7  O1       -28.2070   -5.8430   11.9400 O.3   501  BGC501     -0.1869
      8  O2       -26.7790   -6.8750   14.1000 O.3   501  BGC501     -0.2148
      9  O3       -24.0440   -5.8500   14.3830 O.3   501  BGC501     -0.2174
     10  O4       -23.7900   -3.2020   13.3940 O.3   501  BGC501     -0.2176
     11  O5       -26.4860   -4.5300   11.3210 O.3   501  BGC501     -0.3236
     12  O6       -24.1290   -3.7730    9.7740 O.3   501  BGC501     -0.2176
@<TRIPOS>BOND
     1    12     5    1
     2     5     4    1
     3    11     4    1
     4    11     6    1
     5     4     3    1
     6     7     6    1
     7     6     1    1
     8     3    10    1
     9     3     2    1
    10     1     2    1
    11     1     8    1
    12     2     9    1
