@<TRIPOS>MOLECULE
3fgu_ANP_A_1.pdb
 31 33 0 0 0
SMALL
GASTEIGER

@<TRIPOS>ATOM
      1  PG       -24.6900   -3.2340    7.2080 P.3   600  ANP600      0.4884
      2  O1G      -26.0390   -3.8240    7.5360 O.3   600  ANP600     -0.1240
      3  O2G      -24.4060   -1.9120    7.8830 O.3   600  ANP600     -0.1240
      4  O3G      -23.5490   -4.2200    7.2820 O.2   600  ANP600     -0.2331
      5  PB       -23.4280   -2.3950    4.8430 P.3   600  ANP600      0.4669
      6  O1B      -23.0230   -1.0200    5.3350 O.3   600  ANP600     -0.1253
      7  O2B      -22.4450   -3.5520    4.9510 O.2   600  ANP600     -0.2351
      8  N3B      -24.7990   -2.8380    5.6610 N.3   600  ANP600     -0.0163
      9  PA       -23.7710   -1.0440    2.3700 P.3   600  ANP600      0.2220
     10  O1A      -23.5550    0.1790    3.2080 O.3   600  ANP600     -0.4370
     11  O2A      -22.8340   -1.3400    1.2200 O.2   600  ANP600     -0.5170
     12  O3A      -23.8230   -2.3530    3.2940 O.3   600  ANP600     -0.2360
     13  O5'      -25.2920   -0.9940    1.8400 O.3   600  ANP600     -0.3111
     14  C5'      -25.9700   -2.0990    1.2380 C.3   600  ANP600      0.1813
     15  C4'      -27.4630   -1.9130    1.4880 C.3   600  ANP600      0.1821
     16  O4'      -27.8410   -0.6140    1.0440 O.3   600  ANP600     -0.3135
     17  C3'      -28.3630   -2.8870    0.7470 C.3   600  ANP600      0.2184
     18  O3'      -29.4830   -3.2270    1.5650 O.3   600  ANP600     -0.2174
     19  C2'      -28.8620   -2.1380   -0.4630 C.3   600  ANP600      0.2570
     20  O2'      -30.2100   -2.5060   -0.7620 O.3   600  ANP600     -0.2130
     21  C1'      -28.7520   -0.6710   -0.0570 C.3   600  ANP600      0.3186
     22  N9       -28.2970    0.2350   -1.1530 N.pl3 600  ANP600     -0.1439
     23  C8       -27.4980   -0.0330   -2.2060 C.3   600  ANP600      0.3377
     24  N7       -27.3460    1.0930   -2.9430 N.2   600  ANP600     -0.2095
     25  C5       -28.0670    2.0710   -2.3480 C.2   600  ANP600      0.2526
     26  C6       -28.3010    3.4150   -2.6360 C.2   600  ANP600      0.4393
     27  N6       -27.7470    3.9930   -3.7290 N.pl3 600  ANP600      0.2180
     28  N1       -29.0820    4.1450   -1.8030 N.2   600  ANP600      0.0021
     29  C2       -29.6400    3.5850   -0.7190 C.3   600  ANP600      0.5254
     30  N3       -29.4260    2.2910   -0.4250 N.2   600  ANP600     -0.0055
     31  C4       -28.6510    1.5200   -1.2200 C.2   600  ANP600      0.3518
@<TRIPOS>BOND
     1    27    26    1
     2    24    25    2
     3    24    23    1
     4    26    25    1
     5    26    28    2
     6    25    31    1
     7    23    22    1
     8    28    29    1
     9    31    22    1
    10    31    30    2
    11    22    21    1
    12    20    19    1
    13    29    30    1
    14    19    21    1
    15    19    17    1
    16    21    16    1
    17    17    15    1
    18    17    18    1
    19    16    15    1
    20    11     9    2
    21    14    15    1
    22    14    13    1
    23    13     9    1
    24     9    10    1
    25     9    12    1
    26    12     5    1
    27     5     7    2
    28     5     6    1
    29     5     8    1
    30     8     1    1
    31     1     4    2
    32     1     2    1
    33     1     3    1
