@<TRIPOS>MOLECULE
3fh0_ADP_A_1.pdb
 27 29 0 0 0
SMALL
GASTEIGER

@<TRIPOS>ATOM
      1  PB        26.3300   31.9260   11.7100 P.3   201  ADP201      0.5373
      2  O1B       25.3210   31.0210   12.3800 O.3   201  ADP201     -0.1143
      3  O2B       26.8570   32.9520   12.6840 O.3   201  ADP201     -0.1143
      4  O3B       27.4020   31.2540   10.8850 O.2   201  ADP201     -0.2221
      5  PA        24.3550   33.8320   11.0890 P.3   201  ADP201      0.2231
      6  O1A       23.6490   33.4140   12.3340 O.3   201  ADP201     -0.4370
      7  O2A       23.5920   34.2130    9.8470 O.2   201  ADP201     -0.5169
      8  O3A       25.4790   32.7780   10.6470 O.3   201  ADP201     -0.2261
      9  O5'       25.2280   35.1270   11.5130 O.3   201  ADP201     -0.3111
     10  C5'       25.7320   36.0020   10.4950 C.3   201  ADP201      0.1813
     11  C4'       25.5330   37.4130   10.9890 C.3   201  ADP201      0.1821
     12  O4'       24.2170   37.6450   11.5100 O.3   201  ADP201     -0.3135
     13  C3'       26.4710   37.7770   12.1290 C.3   201  ADP201      0.2184
     14  O3'       27.7460   38.1300   11.6130 O.3   201  ADP201     -0.2174
     15  C2'       25.7600   38.9640   12.7230 C.3   201  ADP201      0.2570
     16  O2'       26.0540   40.1490   11.9610 O.3   201  ADP201     -0.2130
     17  C1'       24.2870   38.5830   12.5880 C.3   201  ADP201      0.3186
     18  N9        23.9530   37.9550   13.8920 N.pl3 201  ADP201     -0.1439
     19  C8        23.9670   36.6330   14.1950 C.3   201  ADP201      0.3377
     20  N7        23.6480   36.4400   15.5050 N.2   201  ADP201     -0.2095
     21  C5        23.4400   37.6480   16.0700 C.2   201  ADP201      0.2526
     22  C6        23.0830   38.1670   17.4170 C.2   201  ADP201      0.4393
     23  N6        22.8580   37.3230   18.4680 N.pl3 201  ADP201      0.2180
     24  N1        22.9760   39.5180   17.5540 N.2   201  ADP201      0.0021
     25  C2        23.1710   40.3630   16.5330 C.3   201  ADP201      0.5254
     26  N3        23.5090   39.9640   15.2920 N.2   201  ADP201     -0.0055
     27  C4        23.6540   38.6440   15.0040 C.2   201  ADP201      0.3518
@<TRIPOS>BOND
     1     7     5    2
     2    10    11    1
     3    10     9    1
     4     8     5    1
     5     8     1    1
     6     4     1    2
     7    11    12    1
     8    11    13    1
     9     5     9    1
    10     5     6    1
    11    12    17    1
    12    14    13    1
    13     1     2    1
    14     1     3    1
    15    16    15    1
    16    13    15    1
    17    17    15    1
    18    17    18    1
    19    18    19    1
    20    18    27    1
    21    19    20    1
    22    27    26    2
    23    27    21    1
    24    26    25    1
    25    20    21    2
    26    21    22    1
    27    25    24    1
    28    22    24    2
    29    22    23    1
