@<TRIPOS>MOLECULE
3fh5_24P_A_1.pdb
 20 22 0 0 0
SMALL
GASTEIGER

@<TRIPOS>ATOM
      1  CAB       24.3950   -2.0670   -2.0270 C.ar  611  24P611     -0.0039
      2  CAA       23.9350   -2.8640   -3.0830 C.ar  611  24P611     -0.0003
      3  CAF       23.6910   -2.3030   -4.3390 C.ar  611  24P611     -0.0000
      4  CAE       23.8970   -0.9370   -4.5260 C.ar  611  24P611     -0.0003
      5  CAD       24.3560   -0.1410   -3.4790 C.ar  611  24P611     -0.0039
      6  CAC       24.6140   -0.6960   -2.2150 C.ar  611  24P611     -0.0178
      7  CAG       25.0970    0.1980   -1.0710 C.3   611  24P611      0.0526
      8  CAH       26.5030   -0.1370   -0.5410 C.ar  611  24P611     -0.0176
      9  CAM       26.6720   -0.6300    0.7550 C.ar  611  24P611     -0.0008
     10  CAL       27.9540   -0.9140    1.2530 C.ar  611  24P611      0.0366
     11  CAI       27.6150    0.0910   -1.3530 C.ar  611  24P611     -0.0008
     12  CAJ       28.8870   -0.1970   -0.8590 C.ar  611  24P611      0.0366
     13  CAK       29.0690   -0.7040    0.4320 C.ar  611  24P611      0.1386
     14  OAN       30.3560   -0.9740    0.8340 O.3   611  24P611     -0.4740
     15  CAO       30.5630   -1.8210    2.0050 C.3   611  24P611      0.2225
     16  CAP       31.8900   -2.5840    1.8320 C.3   611  24P611      0.1164
     17  CAQ       31.9690   -3.4260    0.5540 C.3   611  24P611      0.0227
     18  CAR       33.4780   -3.7040    0.4740 C.3   611  24P611      0.0204
     19  CAS       34.1210   -2.5540    1.2500 C.3   611  24P611      0.0888
     20  NAT       33.0190   -1.6570    1.6630 N.3   611  24P611     -0.2157
@<TRIPOS>BOND
     1     4     3   ar
     2     4     5   ar
     3     3     2   ar
     4     5     6   ar
     5     2     1   ar
     6     6     1   ar
     7     6     7    1
     8    11    12   ar
     9    11     8   ar
    10     7     8    1
    11    12    13   ar
    12     8     9   ar
    13    13    14    1
    14    13    10   ar
    15    18    17    1
    16    18    19    1
    17    17    16    1
    18     9    10   ar
    19    14    15    1
    20    19    20    1
    21    20    16    1
    22    16    15    1
