@<TRIPOS>MOLECULE
3fh7_25P_A_1.pdb
 27 29 0 0 0
SMALL
GASTEIGER

@<TRIPOS>ATOM
      1  CAD       24.5860   87.3330   -2.8990 C.ar  612  25P612      0.0384
      2  CAC       24.0210   86.6650   -3.9770 C.ar  612  25P612      0.0145
      3  CAB       23.7390   85.3130   -3.8610 C.ar  612  25P612      0.0579
      4 CLAG       23.0740   84.5200   -5.2140 Cl    612  25P612     -0.0822
      5  CAA       23.9910   84.5890   -2.7020 C.ar  612  25P612      0.0145
      6  CAF       24.5470   85.2560   -1.6180 C.ar  612  25P612      0.0384
      7  CAE       24.8440   86.6230   -1.7370 C.ar  612  25P612      0.1454
      8  OAH       25.3730   87.3030   -0.7060 O.3   612  25P612     -0.4535
      9  CAI       26.5830   86.9350   -0.2250 C.ar  612  25P612      0.1455
     10  CAN       27.7310   86.9390   -1.0300 C.ar  612  25P612      0.0406
     11  CAM       28.9660   86.5830   -0.4510 C.ar  612  25P612      0.0400
     12  CAJ       26.6650   86.6090    1.1210 C.ar  612  25P612      0.0406
     13  CAK       27.8890   86.2660    1.7010 C.ar  612  25P612      0.0400
     14  CAL       29.0440   86.2410    0.9070 C.ar  612  25P612      0.1388
     15  OAO       30.2150   85.8980    1.5100 O.3   612  25P612     -0.4740
     16  CAP       31.1990   85.3340    0.6580 C.3   612  25P612      0.2211
     17  CAQ       32.0800   84.7140    1.7380 C.3   612  25P612      0.1016
     18  CAR       32.7380   85.7800    2.6020 C.3   612  25P612      0.0212
     19  CAS       34.0700   85.1580    2.9390 C.3   612  25P612      0.0188
     20  CAT       34.4490   84.4730    1.6470 C.3   612  25P612      0.0722
     21  NAU       33.1830   83.8610    1.2130 N.3   612  25P612     -0.2707
     22  CAV       33.1610   83.6650   -0.2320 C.3   612  25P612      0.0727
     23  CAW       33.8160   82.3290   -0.4970 C.3   612  25P612      0.0291
     24  CAX       35.2170   82.5700   -1.0570 C.3   612  25P612      0.1155
     25  CAY       35.1820   83.0630   -2.4900 C.2   612  25P612      0.3649
     26  OBA       34.1680   82.7770   -3.1800 O.co2 612  25P612     -0.2457
     27  OAZ       36.1980   83.6550   -2.8830 O.co2 612  25P612     -0.2457
@<TRIPOS>BOND
     1     4     3    1
     2     2     3   ar
     3     2     1   ar
     4     3     5   ar
     5    26    25   ar
     6     1     7   ar
     7    27    25   ar
     8     5     6   ar
     9    25    24    1
    10     7     6   ar
    11     7     8    1
    12    24    23    1
    13    10    11   ar
    14    10     9   ar
    15     8     9    1
    16    23    22    1
    17    11    14   ar
    18    22    21    1
    19     9    12   ar
    20    16    15    1
    21    16    17    1
    22    14    15    1
    23    14    13   ar
    24    12    13   ar
    25    21    20    1
    26    21    17    1
    27    20    19    1
    28    17    18    1
    29    18    19    1
