@<TRIPOS>MOLECULE
3fh8_27P_A_1.pdb
 21 23 0 0 0
SMALL
GASTEIGER

@<TRIPOS>ATOM
      1  CAR       33.3010   85.3730    2.1660 C.3   611  27P611      0.0722
      2  CAS       34.1810   84.6240    1.1730 C.3   611  27P611      0.0188
      3  CAU       33.1950   83.6760    0.4810 C.3   611  27P611      0.0188
      4  CAT       31.7960   84.1860    0.8900 C.3   611  27P611      0.0722
      5  NAA       32.0170   85.5230    1.4800 N.3   611  27P611     -0.2696
      6  CAB       31.0190   85.9200    2.4950 C.3   611  27P611      0.1200
      7  CAC       29.5760   85.8940    2.0050 C.3   611  27P611      0.2226
      8  OAD       29.5730   86.7380    0.8560 O.3   611  27P611     -0.4740
      9  CAE       28.3980   86.9080    0.1860 C.ar  611  27P611      0.1386
     10  CAJ       28.4030   87.5830   -1.0290 C.ar  611  27P611      0.0366
     11  CAI       27.2230   87.7670   -1.7380 C.ar  611  27P611     -0.0008
     12  CAF       27.1880   86.4260    0.6820 C.ar  611  27P611      0.0366
     13  CAG       26.0070   86.6200   -0.0290 C.ar  611  27P611     -0.0008
     14  CAH       26.0250   87.2850   -1.2420 C.ar  611  27P611     -0.0176
     15  CAK       24.7170   87.5200   -2.0230 C.3   611  27P611      0.0526
     16  CAL       24.2970   86.3860   -2.9680 C.ar  611  27P611     -0.0178
     17  CAM       23.9610   86.6750   -4.2780 C.ar  611  27P611     -0.0039
     18  CAN       23.5770   85.6870   -5.1780 C.ar  611  27P611     -0.0003
     19  CAO       23.4810   84.3680   -4.7530 C.ar  611  27P611     -0.0000
     20  CAP       23.7940   84.0710   -3.4290 C.ar  611  27P611     -0.0003
     21  CAQ       24.1900   85.0600   -2.5360 C.ar  611  27P611     -0.0039
@<TRIPOS>BOND
     1    18    19   ar
     2    18    17   ar
     3    19    20   ar
     4    17    16   ar
     5    20    21   ar
     6    16    21   ar
     7    16    15    1
     8    15    14    1
     9    11    14   ar
    10    11    10   ar
    11    14    13   ar
    12    10     9   ar
    13    13    12   ar
    14     9    12   ar
    15     9     8    1
    16     3     4    1
    17     3     2    1
    18     8     7    1
    19     4     5    1
    20     2     1    1
    21     5     1    1
    22     5     6    1
    23     7     6    1
