@<TRIPOS>MOLECULE
3fh9_HEM_A_1.pdb
 43 50 0 0 0
SMALL
GASTEIGER

@<TRIPOS>ATOM
      1  CHA       20.1470    7.8960   -5.3910 C.2   142  HEM142      0.0000
      2  CHB       17.6220    9.5970   -1.5940 C.2   142  HEM142      0.0000
      3  CHC       14.9550    5.4750   -1.5230 C.2   142  HEM142      0.0000
      4  CHD       17.6600    3.6330   -5.1110 C.2   142  HEM142      0.0000
      5  C1A       19.7340    8.7370   -4.3670 C.2   142  HEM142      0.0000
      6  C2A       20.2920   10.0360   -3.9780 C.2   142  HEM142      0.0000
      7  C3A       19.5870   10.4980   -2.9230 C.2   142  HEM142      0.0000
      8  C4A       18.5590    9.5050   -2.6060 C.2   142  HEM142      0.0000
      9  CMA       19.7950   11.8330   -2.1540 C.3   142  HEM142      0.0000
     10  CAA       21.4930   10.7460   -4.6720 C.3   142  HEM142      0.0000
     11  CBA       21.0380   11.8910   -5.5840 C.3   142  HEM142      0.0000
     12  CGA       22.2420   12.5750   -6.2090 C.2   142  HEM142      0.0000
     13  O1A       22.6630   13.6650   -5.7290 O.co2 142  HEM142      0.0000
     14  O2A       22.7900   12.0340   -7.2000 O.co2 142  HEM142      0.0000
     15  C1B       16.6600    8.6580   -1.2570 C.ar  142  HEM142      0.0000
     16  C2B       15.6480    8.7990   -0.2290 C.ar  142  HEM142      0.0000
     17  C3B       14.9100    7.6660   -0.2040 C.ar  142  HEM142      0.0000
     18  C4B       15.4360    6.7550   -1.2210 C.ar  142  HEM142      0.0000
     19  CMB       15.4820   10.0530    0.6550 C.3   142  HEM142      0.0000
     20  CAB       13.7080    7.3480    0.7240 C.2   142  HEM142      0.0000
     21  CBB       13.6790    7.6950    2.0190 C.2   142  HEM142      0.0000
     22  C1C       15.4730    4.5540   -2.4330 C.2   142  HEM142      0.0000
     23  C2C       15.1350    3.1350   -2.6140 C.2   142  HEM142      0.0000
     24  C3C       15.9000    2.6390   -3.6110 C.2   142  HEM142      0.0000
     25  C4C       16.7460    3.7320   -4.0870 C.2   142  HEM142      0.0000
     26  CMC       14.0840    2.3430   -1.7980 C.3   142  HEM142      0.0000
     27  CAC       15.9410    1.1950   -4.2050 C.2   142  HEM142      0.0000
     28  CBC       15.9220    0.0710   -3.4650 C.2   142  HEM142      0.0000
     29  C1D       18.5890    4.5800   -5.5120 C.ar  142  HEM142      0.0000
     30  C2D       19.6270    4.3440   -6.5060 C.ar  142  HEM142      0.0000
     31  C3D       20.3960    5.6710   -6.5910 C.ar  142  HEM142      0.0000
     32  C4D       19.7610    6.5810   -5.6430 C.ar  142  HEM142      0.0000
     33  CMD       19.8880    3.0410   -7.3050 C.3   142  HEM142      0.0000
     34  CAD       21.6110    5.9620   -7.5020 C.3   142  HEM142      0.0000
     35  CBD       22.8620    5.6780   -6.6720 C.3   142  HEM142      0.0000
     36  CGD       24.0820    6.2900   -7.3200 C.2   142  HEM142      0.0000
     37  O1D       24.4120    7.4650   -7.0030 O.co2 142  HEM142      0.0000
     38  O2D       24.7080    5.5860   -8.1520 O.co2 142  HEM142      0.0000
     39  NA        18.6860    8.4580   -3.5030 N.2   142  HEM142      0.0000
     40  NB        16.4930    7.4160   -1.8450 N.ar  142  HEM142      0.0000
     41  NC        16.4530    4.8670   -3.3610 N.2   142  HEM142      0.0000
     42  ND        18.7080    5.8840   -5.0330 N.ar  142  HEM142      0.0000
     43 FE         17.5540    6.6890   -3.4480 Fe    142  HEM142      0.0000
@<TRIPOS>BOND
     1    38    36   ar
     2    34    35    1
     3    34    31    1
     4    36    37   ar
     5    36    35    1
     6    33    30    1
     7    14    12   ar
     8    31    30   ar
     9    31    32   ar
    10    30    29   ar
    11    12    13   ar
    12    12    11    1
    13    32     1    2
    14    32    42   ar
    15    11    10    1
    16    29     4    2
    17    29    42   ar
    18     1     5    1
    19     4    25    1
    20    42    43    1
    21    10     6    1
    22     5     6    1
    23     5    39    2
    24    27    24    1
    25    27    28    2
    26    25    24    1
    27    25    41    2
    28     6     7    2
    29    24    23    2
    30    39    43    1
    31    39     8    1
    32    43    41    1
    33    43    40    1
    34    41    22    1
    35     7     8    1
    36     7     9    1
    37    23    22    1
    38    23    26    1
    39     8     2    2
    40    22     3    2
    41    40    15   ar
    42    40    18   ar
    43     2    15    1
    44     3    18    1
    45    15    16   ar
    46    18    17   ar
    47    16    17   ar
    48    16    19    1
    49    17    20    1
    50    20    21    2
