@<TRIPOS>MOLECULE
3fhb_GAB_A_1.pdb
 10 10 0 0 0
SMALL
GASTEIGER

@<TRIPOS>ATOM
      1  C1'       15.8290   -7.0170   11.2010 C.2   601  GAB601      0.3878
      2  O1'       14.6310   -6.6170   11.2000 O.co2 601  GAB601     -0.2406
      3  O2'       16.8390   -6.3450   11.5520 O.co2 601  GAB601     -0.2406
      4  C1        16.1020   -8.4350   10.7320 C.ar  601  GAB601      0.0811
      5  C2        17.1930   -9.1380   11.2190 C.ar  601  GAB601      0.0246
      6  C3        17.4080  -10.4350   10.7530 C.ar  601  GAB601      0.0893
      7  C4        16.5740  -11.0240    9.8240 C.ar  601  GAB601      0.0181
      8  C5        15.4900  -10.3050    9.3460 C.ar  601  GAB601      0.0016
      9  C6        15.2560   -9.0150    9.8020 C.ar  601  GAB601      0.0067
     10  N3        18.4350  -11.1360   11.1990 N.pl3 601  GAB601     -0.1281
@<TRIPOS>BOND
     1     8     9   ar
     2     8     7   ar
     3     9     4   ar
     4     7     6   ar
     5     4     1    1
     6     4     5   ar
     7     6    10    1
     8     6     5   ar
     9     2     1   ar
    10     1     3   ar
