@<TRIPOS>MOLECULE
3fhe_28P_A_1.pdb
 24 25 0 0 0
SMALL
GASTEIGER

@<TRIPOS>ATOM
      1  CAQ       24.1120   86.4030   -3.9430 C.ar  612  28P612     -0.0039
      2  CAR       23.8000   85.5770   -5.0040 C.ar  612  28P612     -0.0003
      3  CAS       23.5280   84.2400   -4.7880 C.ar  612  28P612     -0.0000
      4  CAT       23.5630   83.7290   -3.4950 C.ar  612  28P612     -0.0003
      5  CAU       23.8800   84.5550   -2.4300 C.ar  612  28P612     -0.0039
      6  CAP       24.1680   85.8970   -2.6570 C.ar  612  28P612     -0.0178
      7  CAO       24.5000   86.8410   -1.4840 C.3   612  28P612      0.0526
      8  CAN       25.9490   86.7050   -0.9790 C.ar  612  28P612     -0.0176
      9  CAV       26.1770   86.0680    0.2100 C.ar  612  28P612     -0.0008
     10  CAW       27.4560   85.9300    0.7090 C.ar  612  28P612      0.0366
     11  CAM       27.0110   87.2410   -1.6830 C.ar  612  28P612     -0.0008
     12  CAL       28.3060   87.1150   -1.2060 C.ar  612  28P612      0.0366
     13  CAK       28.5250   86.4650   -0.0070 C.ar  612  28P612      0.1385
     14  OAJ       29.7900   86.3700    0.4380 O.3   612  28P612     -0.4754
     15  CAI       29.9940   85.6300    1.7010 C.3   612  28P612      0.2068
     16  CAH       31.4980   85.3090    1.7410 C.3   612  28P612      0.0646
     17  CAG       32.0900   84.8360    0.3810 C.3   612  28P612      0.0760
     18  N1        33.2070   83.8840    0.5490 N.3   612  28P612     -0.2709
     19  CAX       34.3100   84.3640    1.3920 C.3   612  28P612      0.0896
     20  CAB       33.6480   83.3420   -0.7560 C.3   612  28P612      0.0840
     21  CAC       34.8580   84.0770   -1.2860 C.3   612  28P612      0.1313
     22  CAD       35.3020   83.4900   -2.6490 C.2   612  28P612      0.3663
     23  OAF       34.4670   83.1540   -3.5190 O.co2 612  28P612     -0.2456
     24  OAE       36.5090   83.3700   -2.8650 O.co2 612  28P612     -0.2456
@<TRIPOS>BOND
     1     2     3   ar
     2     2     1   ar
     3     3     4   ar
     4     1     6   ar
     5    23    22   ar
     6     4     5   ar
     7    24    22   ar
     8     6     5   ar
     9     6     7    1
    10    22    21    1
    11    11    12   ar
    12    11     8   ar
    13     7     8    1
    14    21    20    1
    15    12    13   ar
    16     8     9   ar
    17    20    18    1
    18    13    14    1
    19    13    10   ar
    20     9    10   ar
    21    17    18    1
    22    17    16    1
    23    14    15    1
    24    18    19    1
    25    15    16    1
