@<TRIPOS>MOLECULE
3fhj_AMP_A_1.pdb
 23 25 0 0 0
SMALL
GASTEIGER

@<TRIPOS>ATOM
      1  P        -52.3090   -8.0960  -69.2010 P.3   1003  AMP1003     0.5327
      2  O1P      -53.4510   -9.0020  -68.7730 O.3   1003  AMP1003    -0.1145
      3  O2P      -52.6230   -6.6620  -68.8090 O.2   1003  AMP1003    -0.2224
      4  O3P      -51.0200   -8.5410  -68.5200 O.3   1003  AMP1003    -0.1145
      5  O5'      -52.1630   -8.1920  -70.8020 O.3   1003  AMP1003    -0.2675
      6  C5'      -53.2340   -8.8390  -71.4890 C.3   1003  AMP1003     0.1860
      7  C4'      -53.0870   -8.6180  -72.9950 C.3   1003  AMP1003     0.1823
      8  O4'      -53.9900   -9.5070  -73.6990 O.3   1003  AMP1003    -0.3135
      9  C3'      -53.5630   -7.2380  -73.4250 C.3   1003  AMP1003     0.2184
     10  O3'      -53.2870   -6.9740  -74.8010 O.3   1003  AMP1003    -0.2174
     11  C2'      -55.0490   -7.4220  -73.1510 C.3   1003  AMP1003     0.2570
     12  O2'      -55.7760   -6.3900  -73.8490 O.3   1003  AMP1003    -0.2130
     13  C1'      -55.2840   -8.8300  -73.7350 C.3   1003  AMP1003     0.3186
     14  N9       -56.2310   -9.6120  -72.9610 N.pl3 1003  AMP1003    -0.1439
     15  C8       -56.0360  -10.1790  -71.7320 C.3   1003  AMP1003     0.3377
     16  N7       -57.1070  -10.8170  -71.3070 N.2   1003  AMP1003    -0.2095
     17  C5       -58.0370  -10.6600  -72.3150 C.2   1003  AMP1003     0.2526
     18  C6       -59.3670  -11.1070  -72.4630 C.2   1003  AMP1003     0.4393
     19  N6       -60.0200  -11.8560  -71.5130 N.pl3 1003  AMP1003     0.2180
     20  N1       -60.0310  -10.7790  -73.6030 N.2   1003  AMP1003     0.0021
     21  C2       -59.3870  -10.0410  -74.5390 C.3   1003  AMP1003     0.5254
     22  N3       -58.1220   -9.5570  -74.4960 N.2   1003  AMP1003    -0.0055
     23  C4       -57.5090   -9.9110  -73.3530 C.2   1003  AMP1003     0.3518
@<TRIPOS>BOND
     1    10     9    1
     2    21    22    1
     3    21    20    1
     4    22    23    2
     5    12    11    1
     6    13     8    1
     7    13    11    1
     8    13    14    1
     9     8     7    1
    10    20    18    2
    11     9    11    1
    12     9     7    1
    13    23    14    1
    14    23    17    1
    15     7     6    1
    16    14    15    1
    17    18    17    1
    18    18    19    1
    19    17    16    2
    20    15    16    1
    21     6     5    1
    22     5     1    1
    23     1     3    2
    24     1     2    1
    25     1     4    1
