@<TRIPOS>MOLECULE
3fhj_TRP_A_1.pdb
 15 16 0 0 0
SMALL
GASTEIGER

@<TRIPOS>ATOM
      1  N        -46.4430   -3.7130  -67.4210 N.3   1001  TRP1001    -0.1205
      2  CA       -46.9240   -4.7740  -68.2970 C.3   1001  TRP1001     0.1984
      3  C        -47.7950   -5.7570  -67.5260 C.2   1001  TRP1001     0.3822
      4  O        -48.5750   -6.4900  -68.1700 O.co2 1001  TRP1001    -0.2440
      5  CB       -45.7470   -5.5100  -68.9380 C.3   1001  TRP1001     0.0549
      6  CG       -44.7950   -4.6050  -69.6580 C.2   1001  TRP1001    -0.0138
      7  CD1      -43.5520   -4.2260  -69.2440 C.2   1001  TRP1001     0.0907
      8  CD2      -45.0070   -3.9720  -70.9270 C.3   1001  TRP1001     0.0819
      9  NE1      -42.9710   -3.4020  -70.1820 N.2   1001  TRP1001    -0.2482
     10  CE2      -43.8510   -3.2200  -71.2170 C.2   1001  TRP1001     0.0665
     11  CE3      -46.0670   -3.9610  -71.8400 C.2   1001  TRP1001    -0.0164
     12  CZ2      -43.7210   -2.4730  -72.3850 C.2   1001  TRP1001     0.0153
     13  CZ3      -45.9340   -3.2230  -73.0030 C.2   1001  TRP1001    -0.0038
     14  CH2      -44.7680   -2.4930  -73.2670 C.2   1001  TRP1001     0.0009
     15  OXT      -47.6870   -5.7900  -66.2820 O.co2 1001  TRP1001    -0.2440
@<TRIPOS>BOND
     1    14    13    1
     2    14    12    2
     3    13    11    2
     4    12    10    1
     5    11     8    1
     6    10     8    1
     7    10     9    2
     8     8     6    1
     9     9     7    1
    10     6     7    2
    11     6     5    1
    12     5     2    1
    13     2     3    1
    14     2     1    1
    15     4     3   ar
    16     3    15   ar
