@<TRIPOS>MOLECULE
3fhm_NAI_A_1.pdb
 44 48 0 0 0
SMALL
GASTEIGER

@<TRIPOS>ATOM
      1  PA       -17.7600    5.3070   24.8300 P.3   211  NAI211      0.2189
      2  O1A      -19.1770    5.5910   25.1330 O.3   211  NAI211     -0.4371
      3  O2A      -17.2840    4.1010   24.0380 O.2   211  NAI211     -0.5170
      4  O5B      -16.9550    5.1840   26.1870 O.3   211  NAI211     -0.3112
      5  C5B      -17.4930    5.6900   27.4360 C.3   211  NAI211      0.1813
      6  C4B      -16.4840    5.4440   28.5240 C.3   211  NAI211      0.1821
      7  O4B      -16.2170    4.0550   28.6680 O.3   211  NAI211     -0.3135
      8  C3B      -15.1980    6.0540   28.0700 C.3   211  NAI211      0.2184
      9  O3B      -14.6840    6.6650   29.2700 O.3   211  NAI211     -0.2174
     10  C2B      -14.3150    4.9190   27.6830 C.3   211  NAI211      0.2570
     11  O2B      -13.1280    5.1500   28.3650 O.3   211  NAI211     -0.2130
     12  C1B      -14.8720    3.7550   28.4190 C.3   211  NAI211      0.3186
     13  N9A      -14.7400    2.4930   27.6620 N.pl3 211  NAI211     -0.1439
     14  C8A      -14.9940    2.3080   26.3540 C.3   211  NAI211      0.3377
     15  N7A      -14.7360    1.0210   26.0190 N.2   211  NAI211     -0.2095
     16  C5A      -14.3440    0.3730   27.1120 C.2   211  NAI211      0.2526
     17  C6A      -13.9530   -1.0040   27.4420 C.2   211  NAI211      0.4393
     18  N6A      -13.9430   -1.9520   26.4740 N.pl3 211  NAI211      0.2180
     19  N1A      -13.6010   -1.3040   28.7170 N.2   211  NAI211      0.0021
     20  C2A      -13.6140   -0.3540   29.6630 C.3   211  NAI211      0.5254
     21  N3A      -13.9930    0.9060   29.4080 N.2   211  NAI211     -0.0055
     22  C4A      -14.3500    1.3310   28.1820 C.2   211  NAI211      0.3518
     23  O3       -16.8860    6.4970   24.1970 O.3   211  NAI211     -0.2703
     24  PN       -17.1930    8.0500   23.8020 P.3   211  NAI211      0.2189
     25  O1N      -17.5210    8.3910   22.3770 O.2   211  NAI211     -0.5170
     26  O2N      -15.9130    8.6190   24.3000 O.3   211  NAI211     -0.4371
     27  O5D      -18.4520    8.4780   24.7130 O.3   211  NAI211     -0.3112
     28  C5D      -19.8340    8.5400   24.3340 C.3   211  NAI211      0.1813
     29  C4D      -20.3790    9.8470   24.8960 C.3   211  NAI211      0.1799
     30  O4D      -20.1160    9.9020   26.3160 O.3   211  NAI211     -0.3327
     31  C3D      -19.6440   11.0610   24.2490 C.3   211  NAI211      0.2158
     32  O3D      -20.5500   12.1230   23.9230 O.3   211  NAI211     -0.2175
     33  C2D      -18.6910   11.6190   25.3010 C.3   211  NAI211      0.2309
     34  O2D      -18.4620   13.0390   25.1730 O.3   211  NAI211     -0.2158
     35  C1D      -19.3930   11.1340   26.5880 C.3   211  NAI211      0.2263
     36  N1N      -18.4210   10.8430   27.5930 N.pl3 211  NAI211     -0.2787
     37  C2N      -18.5940   11.4580   28.7800 C.3   211  NAI211      0.1244
     38  C3N      -17.6730   11.2500   29.8290 C.2   211  NAI211      0.0544
     39  C7N      -17.9460   11.9350   31.1550 C.2   211  NAI211      0.2818
     40  O7N      -17.1900   11.7500   32.1260 O.2   211  NAI211     -0.2670
     41  N7N      -19.0540   12.6840   31.2410 N.am  211  NAI211     -0.0839
     42  C4N      -16.5640   10.3940   29.6350 C.2   211  NAI211      0.0033
     43  C5N      -16.3940    9.7840   28.3700 C.2   211  NAI211      0.0157
     44  C6N      -17.3550   10.0140   27.3320 C.2   211  NAI211      0.0633
@<TRIPOS>BOND
     1    25    24    2
     2    24    23    1
     3    24    26    1
     4    24    27    1
     5    32    31    1
     6     3     1    2
     7    23     1    1
     8    31    29    1
     9    31    33    1
    10    28    27    1
    11    28    29    1
    12     1     2    1
    13     1     4    1
    14    29    30    1
    15    34    33    1
    16    33    35    1
    17    15    14    1
    18    15    16    2
    19     4     5    1
    20    30    35    1
    21    14    13    1
    22    18    17    1
    23    35    36    1
    24    16    17    1
    25    16    22    1
    26    44    36    1
    27    44    43    2
    28     5     6    1
    29    17    19    2
    30    36    37    1
    31    13    22    1
    32    13    12    1
    33    10     8    1
    34    10    11    1
    35    10    12    1
    36     8     6    1
    37     8     9    1
    38    22    21    2
    39    43    42    1
    40    12     7    1
    41     6     7    1
    42    19    20    1
    43    37    38    1
    44    21    20    1
    45    42    38    2
    46    38    39    1
    47    39    41   am
    48    39    40    2
