@<TRIPOS>MOLECULE
3fhm_AMP_A_1.pdb
 23 25 0 0 0
SMALL
GASTEIGER

@<TRIPOS>ATOM
      1  P        -14.9580    3.7980   16.4590 P.3   200  AMP200      0.5327
      2  O1P      -13.8780    3.2650   17.3200 O.3   200  AMP200     -0.1145
      3  O2P      -16.3280    3.2780   16.7060 O.3   200  AMP200     -0.1145
      4  O3P      -14.8060    5.2990   16.2400 O.2   200  AMP200     -0.2224
      5  O5'      -14.4940    2.9180   15.1950 O.3   200  AMP200     -0.2675
      6  C5'      -14.9380    2.9740   13.8200 C.3   200  AMP200      0.1860
      7  C4'      -14.0680    1.9360   13.0920 C.3   200  AMP200      0.1823
      8  O4'      -12.7230    2.0520   13.5250 O.3   200  AMP200     -0.3135
      9  C3'      -14.4460    0.5080   13.4710 C.3   200  AMP200      0.2184
     10  O3'      -14.2470   -0.4450   12.4320 O.3   200  AMP200     -0.2174
     11  C2'      -13.4480    0.1230   14.4850 C.3   200  AMP200      0.2570
     12  O2'      -13.2410   -1.2580   14.3770 O.3   200  AMP200     -0.2130
     13  C1'      -12.2420    0.8320   14.0340 C.3   200  AMP200      0.3186
     14  N9       -11.3520    0.9380   15.2060 N.pl3 200  AMP200     -0.1439
     15  C8       -11.6210    1.2240   16.5090 C.3   200  AMP200      0.3377
     16  N7       -10.5230    1.1710   17.3390 N.2   200  AMP200     -0.2095
     17  C5        -9.5330    0.8710   16.5260 C.2   200  AMP200      0.2526
     18  C6        -8.1050    0.6730   16.7200 C.2   200  AMP200      0.4393
     19  N6        -7.5500    0.7970   17.9440 N.pl3 200  AMP200      0.2180
     20  N1        -7.3930    0.3610   15.6210 N.2   200  AMP200      0.0021
     21  C2        -7.9440    0.2130   14.3770 C.3   200  AMP200      0.5254
     22  N3        -9.2360    0.3650   14.1040 N.2   200  AMP200     -0.0055
     23  C4       -10.0560    0.7030   15.1440 C.2   200  AMP200      0.3518
@<TRIPOS>BOND
     1    10     9    1
     2     7     9    1
     3     7     8    1
     4     7     6    1
     5     9    11    1
     6     8    13    1
     7     6     5    1
     8    13    11    1
     9    13    14    1
    10    22    21    1
    11    22    23    2
    12    21    20    1
    13    12    11    1
    14    23    14    1
    15    23    17    1
    16     5     1    1
    17    14    15    1
    18    20    18    2
    19     4     1    2
    20     1     3    1
    21     1     2    1
    22    15    16    1
    23    17    18    1
    24    17    16    2
    25    18    19    1
