@<TRIPOS>MOLECULE
3fhq_MAN_A_1.pdb
 11 11 0 0 0
SMALL
GASTEIGER

@<TRIPOS>ATOM
      1  C1        22.1440    7.5630   67.7110 C.3   623  MAN623      0.1777
      2  C2        21.8940    9.0490   67.8630 C.3   623  MAN623      0.2141
      3  C3        23.1860    9.7420   67.4510 C.3   623  MAN623      0.2173
      4  C4        24.3640    9.2870   68.3260 C.3   623  MAN623      0.2142
      5  C5        24.4560    7.7490   68.3940 C.3   623  MAN623      0.1810
      6  C6        25.4680    7.2480   69.4260 C.3   623  MAN623      0.2141
      7  O2        21.2960    9.4130   69.0460 O.3   623  MAN623     -0.2176
      8  O3        23.1390   11.1050   67.2190 O.3   623  MAN623     -0.2175
      9  O4        25.5760    9.9480   68.0260 O.3   623  MAN623     -0.2176
     10  O5        23.1560    7.1930   68.6270 O.3   623  MAN623     -0.3481
     11  O6        25.0820    7.3220   70.7650 O.3   623  MAN623     -0.2176
@<TRIPOS>BOND
     1     8     3    1
     2     3     2    1
     3     3     4    1
     4     1     2    1
     5     1    10    1
     6     2     7    1
     7     9     4    1
     8     4     5    1
     9     5    10    1
    10     5     6    1
    11     6    11    1
