@<TRIPOS>MOLECULE
3fhq_BMA_A_1.pdb
 11 11 0 0 0
SMALL
GASTEIGER

@<TRIPOS>ATOM
      1  C1        22.3340    5.5810   62.3190 C.3   622  BMA622      0.1777
      2  C2        23.6470    6.3280   61.8350 C.3   622  BMA622      0.2141
      3  C3        24.8330    6.0280   62.7570 C.3   622  BMA622      0.2173
      4  C4        24.4450    6.3380   64.1860 C.3   622  BMA622      0.2142
      5  C5        23.1630    5.5870   64.5970 C.3   622  BMA622      0.1810
      6  C6        22.7600    5.8230   66.0740 C.3   622  BMA622      0.2141
      7  O2        23.5340    7.6640   61.3990 O.3   622  BMA622     -0.2176
      8  O3        25.9700    6.8030   62.4040 O.3   622  BMA622     -0.2175
      9  O4        25.5060    6.2660   65.0720 O.3   622  BMA622     -0.2176
     10  O5        22.0950    5.9640   63.6880 O.3   622  BMA622     -0.3481
     11  O6        22.4450    7.1870   66.3830 O.3   622  BMA622     -0.2176
@<TRIPOS>BOND
     1     7     2    1
     2     2     1    1
     3     2     3    1
     4     1    10    1
     5     8     3    1
     6     3     4    1
     7    10     5    1
     8     4     5    1
     9     4     9    1
    10     5     6    1
    11     6    11    1
