@<TRIPOS>MOLECULE
3fhq_NGT_A_1.pdb
 14 15 0 0 0
SMALL
GASTEIGER

@<TRIPOS>ATOM
      1  C1        17.5080    3.8200   60.6540 C.3   625  NGT625      0.1925
      2  C2        17.4440    4.5420   62.0040 C.3   625  NGT625      0.1740
      3  C3        18.6280    5.5070   62.2060 C.3   625  NGT625      0.2101
      4  C4        19.9360    4.8290   61.7920 C.3   625  NGT625      0.2137
      5  C5        19.8280    4.3730   60.3270 C.3   625  NGT625      0.1820
      6  C6        21.1310    3.8050   59.8060 C.3   625  NGT625      0.2142
      7  C7        15.8220    5.5970   60.7490 C.2   625  NGT625      0.0815
      8  C8        14.5560    6.3450   60.5390 C.3   625  NGT625      0.0587
      9  N2        16.2270    5.3570   61.9320 N.2   625  NGT625     -0.2643
     10  S1        16.7820    4.9700   59.5190 S.3   625  NGT625     -0.0689
     11  O3        18.7020    5.8610   63.5890 O.3   625  NGT625     -0.2181
     12  O4        21.0660    5.6560   62.0320 O.3   625  NGT625     -0.2176
     13  O5        18.7960    3.3600   60.2940 O.3   625  NGT625     -0.3400
     14  O6        21.5600    2.6830   60.5860 O.3   625  NGT625     -0.2176
@<TRIPOS>BOND
     1    10     1    1
     2    10     7    1
     3     6     5    1
     4     6    14    1
     5    13     5    1
     6    13     1    1
     7     5     4    1
     8     8     7    1
     9     1     2    1
    10     7     9    2
    11     4    12    1
    12     4     3    1
    13     9     2    1
    14     2     3    1
    15     3    11    1
