@<TRIPOS>MOLECULE
3fhr_P4O_A_1.pdb
 26 30 0 0 0
SMALL
GASTEIGER

@<TRIPOS>ATOM
      1  C19       21.6220    8.0020   12.6900 C.3     1  P4O1        0.0569
      2  C20       21.2730    8.5830   11.4580 C.2     1  P4O1       -0.0040
      3  C25       21.6980    9.8650   11.1070 C.2     1  P4O1       -0.0239
      4  C24       21.3330   10.3900    9.8620 C.3     1  P4O1        0.0518
      5  C23       20.5460    9.6570    8.9710 C.2     1  P4O1       -0.0199
      6  C22       20.0950    8.3920    9.3110 C.2     1  P4O1        0.0145
      7  C21       20.4780    7.8630   10.5490 C.2     1  P4O1        0.0771
      8  N16       20.0410    6.6290   10.8650 N.2     1  P4O1       -0.2444
      9  C17       20.3610    6.0550   12.0270 C.2     1  P4O1        0.0963
     10  C18       21.1140    6.7210   12.9770 C.2     1  P4O1        0.0190
     11  C14       21.4120    5.9590   14.2130 C.ar    1  P4O1        0.0792
     12  C13       20.5270    5.0140   14.7050 C.ar    1  P4O1        0.0214
     13  N15       22.5770    6.1440   14.8430 N.ar    1  P4O1       -0.2441
     14  C10       22.8990    5.4430   15.9480 C.ar    1  P4O1        0.0989
     15  C11       22.0420    4.5030   16.4870 C.ar    1  P4O1        0.0232
     16  C12       20.8340    4.2690   15.8350 C.ar    1  P4O1        0.0326
     17  C2        19.8910    3.2820   16.4160 C.2     1  P4O1        0.1319
     18  C3        19.9580    2.5870   17.6120 C.2     1  P4O1        0.0459
     19  C4        18.8100    1.8260   17.6310 C.2     1  P4O1        0.1107
     20  C6        18.2400    0.8760   18.6250 C.1     1  P4O1        0.1523
     21  O26       18.8820    0.5350   19.5950 O.2     1  P4O1       -0.2222
     22  N7        16.9860    0.4580   18.4510 N.2     1  P4O1       -0.2020
     23  C8        16.3950    0.3620   17.1120 C.3     1  P4O1        0.1453
     24  C9        16.6930    1.4990   16.1240 C.3     1  P4O1        0.0869
     25  C5        18.0330    2.1310   16.4410 C.2     1  P4O1        0.1219
     26  N1        18.7320    3.0360   15.7240 N.2     1  P4O1       -0.4054
@<TRIPOS>BOND
     1     5     6    2
     2     5     4    1
     3     6     7    1
     4     4     3    1
     5     7     8    2
     6     7     2    1
     7     8     9    1
     8     3     2    2
     9     2     1    1
    10     9    10    2
    11     1    10    1
    12    10    11    1
    13    11    12   ar
    14    11    13   ar
    15    12    16   ar
    16    13    14   ar
    17    26    17    2
    18    26    25    2
    19    16    17    1
    20    16    15   ar
    21    14    15   ar
    22    24    25    1
    23    24    23    1
    24    17    18    1
    25    25    19    1
    26    23    22    1
    27    18    19    2
    28    19    20    1
    29    22    20    2
    30    20    21    2
