@<TRIPOS>MOLECULE
3fhs_GSH_A_1.pdb
 20 19 0 0 0
SMALL
GASTEIGER

@<TRIPOS>ATOM
      1  N1       -58.8080   -7.7580   -7.7610 N.3   3587  GSH3587    -0.1208
      2  CA1      -57.6290   -6.8870   -7.6700 C.3   3587  GSH3587     0.1948
      3  C1       -57.9510   -6.3780   -6.3590 C.2   3587  GSH3587     0.3819
      4  O11      -58.8400   -7.1330   -5.7590 O.co2 3587  GSH3587    -0.2441
      5  O12      -57.2810   -5.3060   -6.0590 O.co2 3587  GSH3587    -0.2441
      6  CB1      -56.2250   -7.4570   -7.4010 C.3   3587  GSH3587     0.0402
      7  CG1      -55.9270   -8.3420   -8.5940 C.3   3587  GSH3587     0.0889
      8  CD1      -54.5690   -8.9690   -8.6760 C.2   3587  GSH3587     0.2418
      9  OE1      -53.5960   -8.5130   -8.1250 O.2   3587  GSH3587    -0.2733
     10  N2       -54.5570  -10.0440   -9.4230 N.am  3587  GSH3587    -0.1968
     11  CA2      -53.3690  -10.8440   -9.6500 C.3   3587  GSH3587     0.1843
     12  C2       -53.2120  -12.1330   -8.8300 C.2   3587  GSH3587     0.2627
     13  O2       -53.3970  -12.2420   -7.6410 O.2   3587  GSH3587    -0.2714
     14  CB2      -53.5580  -11.0170  -11.1350 C.3   3587  GSH3587     0.0997
     15  SG2      -52.5530   -9.7470  -11.8840 S.3   3587  GSH3587    -0.0797
     16  N3       -52.8030  -13.2160   -9.4150 N.am  3587  GSH3587    -0.1917
     17  CA3      -52.5350  -14.4710   -8.7210 C.3   3587  GSH3587     0.2285
     18  C3       -51.2010  -14.0260   -8.1920 C.2   3587  GSH3587     0.3865
     19  O31      -50.1190  -14.3090   -8.8030 O.co2 3587  GSH3587    -0.2437
     20  O32      -51.2820  -13.2750   -7.1930 O.co2 3587  GSH3587    -0.2437
@<TRIPOS>BOND
     1    15    14    1
     2    14    11    1
     3    11    10    1
     4    11    12    1
     5    10     8   am
     6    16    12   am
     7    16    17    1
     8    12    13    2
     9    19    18   ar
    10    17    18    1
    11     8     7    1
    12     8     9    2
    13     7     6    1
    14    18    20   ar
    15     1     2    1
    16     2     6    1
    17     2     3    1
    18     3     5   ar
    19     3     4   ar
