@<TRIPOS>MOLECULE
3fht_ANP_A_1.pdb
 31 33 0 0 0
SMALL
GASTEIGER

@<TRIPOS>ATOM
      1  PG         3.6820   10.0700    8.6750 P.3   480  ANP480      0.4884
      2  O1G        3.4890   11.3860    9.4800 O.3   480  ANP480     -0.1240
      3  O2G        3.4200   10.2800    7.2170 O.2   480  ANP480     -0.2331
      4  O3G        4.8260    9.1410    9.0770 O.3   480  ANP480     -0.1240
      5  PB         1.3380    9.3790   10.5580 P.3   480  ANP480      0.4669
      6  O1B        1.6970   10.6410   11.3480 O.3   480  ANP480     -0.1253
      7  O2B        1.5000    8.1170   11.3140 O.2   480  ANP480     -0.2351
      8  N3B        2.2230    9.2330    9.1460 N.3   480  ANP480     -0.0163
      9  PA        -1.3320   10.4610   10.5310 P.3   480  ANP480      0.2220
     10  O1A       -1.3340   10.6220   12.0180 O.3   480  ANP480     -0.4370
     11  O2A       -1.1400   11.7040    9.7430 O.2   480  ANP480     -0.5170
     12  O3A       -0.2090    9.4410   10.0410 O.3   480  ANP480     -0.2360
     13  O5'       -2.6900    9.6520   10.1280 O.3   480  ANP480     -0.3111
     14  C5'       -2.9930    9.3300    8.7730 C.3   480  ANP480      0.1813
     15  C4'       -4.5260    9.4050    8.5930 C.3   480  ANP480      0.1821
     16  O4'       -5.1710    8.4910    9.4670 O.3   480  ANP480     -0.3135
     17  C3'       -5.0620   10.7390    9.0750 C.3   480  ANP480      0.2184
     18  O3'       -5.9980   11.2100    8.1190 O.3   480  ANP480     -0.2174
     19  C2'       -5.8680   10.3970   10.2870 C.3   480  ANP480      0.2570
     20  O2'       -7.0120   11.1890   10.5130 O.3   480  ANP480     -0.2130
     21  C1'       -6.3530    9.0090   10.0550 C.3   480  ANP480      0.3186
     22  N9        -6.3870    8.2240   11.3230 N.pl3 480  ANP480     -0.1439
     23  C8        -5.5050    8.2380   12.3740 C.3   480  ANP480      0.3377
     24  N7        -5.8710    7.3410   13.3350 N.2   480  ANP480     -0.2095
     25  C5        -6.9980    6.7110   12.8780 C.2   480  ANP480      0.2526
     26  C6        -7.9030    5.6600   13.3390 C.2   480  ANP480      0.4393
     27  N6        -7.7280    4.9910   14.5060 N.pl3 480  ANP480      0.2180
     28  N1        -8.9200    5.3470   12.5410 N.2   480  ANP480      0.0021
     29  C2        -9.1730    5.8760   11.3540 C.3   480  ANP480      0.5254
     30  N3        -8.3940    6.8350   10.8600 N.2   480  ANP480     -0.0055
     31  C4        -7.3170    7.2710   11.5650 C.2   480  ANP480      0.3518
@<TRIPOS>BOND
     1     3     1    2
     2    18    17    1
     3    15    14    1
     4    15    17    1
     5    15    16    1
     6     1     4    1
     7     1     8    1
     8     1     2    1
     9    14    13    1
    10    17    19    1
    11     8     5    1
    12    16    21    1
    13    11     9    2
    14    12     9    1
    15    12     5    1
    16    21    19    1
    17    21    22    1
    18    13     9    1
    19    19    20    1
    20     9    10    1
    21     5     7    2
    22     5     6    1
    23    30    29    1
    24    30    31    2
    25    22    31    1
    26    22    23    1
    27    29    28    1
    28    31    25    1
    29    23    24    1
    30    28    26    2
    31    25    24    2
    32    25    26    1
    33    26    27    1
