@<TRIPOS>MOLECULE
3fhx_ATP_A_1.pdb
 31 33 0 0 0
SMALL
GASTEIGER

@<TRIPOS>ATOM
      1  PG        27.2530    0.6820   46.0580 P.3   407  ATP407      0.5373
      2  O1G       27.9350    0.8050   47.5130 O.3   407  ATP407     -0.1143
      3  O2G       28.4120    0.1720   45.0610 O.2   407  ATP407     -0.2221
      4  O3G       26.6460    1.9590   45.6200 O.3   407  ATP407     -0.1143
      5  PB        26.5610   -2.0740   46.1280 P.3   407  ATP407      0.2277
      6  O1B       27.8560   -2.3790   45.4840 O.2   407  ATP407     -0.5168
      7  O2B       25.8280   -2.9840   47.0370 O.3   407  ATP407     -0.4368
      8  O3B       26.1720   -0.5070   46.1620 O.3   407  ATP407     -0.2258
      9  PA        25.8210   -3.5740   43.8620 P.3   407  ATP407      0.2189
     10  O1A       25.4310   -3.3190   42.4580 O.2   407  ATP407     -0.5170
     11  O2A       26.7130   -4.6610   44.3100 O.3   407  ATP407     -0.4371
     12  O3A       25.6140   -2.3140   44.8490 O.3   407  ATP407     -0.2700
     13  O5'       24.4510   -4.2900   44.3230 O.3   407  ATP407     -0.3112
     14  C5'       23.2260   -3.5820   44.5160 C.3   407  ATP407      0.1813
     15  C4'       22.0600   -4.4700   44.0670 C.3   407  ATP407      0.1821
     16  O4'       22.0590   -4.6220   42.6440 O.3   407  ATP407     -0.3135
     17  C3'       22.2370   -5.8730   44.6530 C.3   407  ATP407      0.2184
     18  O3'       21.5450   -5.9380   45.9060 O.3   407  ATP407     -0.2174
     19  C2'       21.4630   -6.7080   43.6360 C.3   407  ATP407      0.2570
     20  O2'       20.0630   -6.6730   43.9140 O.3   407  ATP407     -0.2130
     21  C1'       21.7570   -5.9970   42.3150 C.3   407  ATP407      0.3186
     22  N9        22.9520   -6.5530   41.6480 N.pl3 407  ATP407     -0.1439
     23  C8        24.0570   -5.8760   41.3390 C.3   407  ATP407      0.3377
     24  N7        24.9050   -6.6770   40.6930 N.2   407  ATP407     -0.2095
     25  C5        24.3390   -7.8780   40.5910 C.2   407  ATP407      0.2526
     26  C6        24.7150   -9.0860   40.0300 C.2   407  ATP407      0.4393
     27  N6        25.9110   -9.2130   39.4490 N.pl3 407  ATP407      0.2180
     28  N1        23.8830  -10.1210   40.0820 N.2   407  ATP407      0.0021
     29  C2        22.6930  -10.0110   40.6710 C.3   407  ATP407      0.5254
     30  N3        22.3010   -8.8760   41.2200 N.2   407  ATP407     -0.0055
     31  C4        23.0850   -7.7980   41.2030 C.2   407  ATP407      0.3518
@<TRIPOS>BOND
     1    27    26    1
     2    26    28    2
     3    26    25    1
     4    28    29    1
     5    25    24    2
     6    25    31    1
     7    29    30    1
     8    24    23    1
     9    31    30    2
    10    31    22    1
    11    23    22    1
    12    22    21    1
    13    21    16    1
    14    21    19    1
    15    10     9    2
    16    16    15    1
    17    19    20    1
    18    19    17    1
    19     9    11    1
    20     9    13    1
    21     9    12    1
    22    15    14    1
    23    15    17    1
    24    13    14    1
    25    17    18    1
    26    12     5    1
    27     3     1    2
    28     6     5    2
    29     4     1    1
    30     1     8    1
    31     1     2    1
    32     5     8    1
    33     5     7    1
