@<TRIPOS>MOLECULE
3fhx_PXL_A_1.pdb
 12 12 0 0 0
SMALL
GASTEIGER

@<TRIPOS>ATOM
      1  OP4       28.1110    3.9630   39.7420 O.3   313  PXL313     -0.2151
      2  C5A       28.9840    4.8050   40.4600 C.3   313  PXL313      0.2103
      3  C5        29.4290    5.9770   39.5890 C.ar  313  PXL313      0.0360
      4  C6        28.8690    7.2800   39.8150 C.ar  313  PXL313      0.0970
      5  N1        29.2840    8.3750   39.0030 N.ar  313  PXL313     -0.2452
      6  C2        30.2480    8.2130   37.9620 C.ar  313  PXL313      0.0982
      7  C3        30.8310    6.9110   37.7080 C.ar  313  PXL313      0.2120
      8  C4        30.4170    5.7670   38.5340 C.ar  313  PXL313      0.0823
      9  C4A       30.9940    4.3260   38.3290 C.2   313  PXL313      0.2372
     10  O4A       31.8450    4.1180   37.4270 O.2   313  PXL313     -0.2830
     11  O3        31.7740    6.7650   36.6870 O.3   313  PXL313     -0.2852
     12  C2A       30.6510    9.4310   37.1260 C.3   313  PXL313      0.0555
@<TRIPOS>BOND
     1    11     7    1
     2    12     6    1
     3    10     9    2
     4     7     6   ar
     5     7     8   ar
     6     6     5   ar
     7     9     8    1
     8     8     3   ar
     9     5     4   ar
    10     3     4   ar
    11     3     2    1
    12     1     2    1
