@<TRIPOS>MOLECULE
3fhx_PLP_B_1.pdb
 16 16 0 0 0
SMALL
GASTEIGER

@<TRIPOS>ATOM
      1  N1        12.5430   31.7050   27.9150 N.ar  314  PLP314     -0.2452
      2  C2        12.0370   32.5970   28.8140 C.ar  314  PLP314      0.0982
      3  C2A       12.7700   33.9410   28.9860 C.3   314  PLP314      0.0555
      4  C3        10.8890   32.2660   29.5380 C.ar  314  PLP314      0.2120
      5  O3        10.3650   33.1530   30.4500 O.3   314  PLP314     -0.2852
      6  C4        10.2680   31.0050   29.3170 C.ar  314  PLP314      0.0822
      7  C4A        8.9870   30.6630   30.1370 C.2   314  PLP314      0.2372
      8  O4A        8.3980   31.4620   30.9530 O.2   314  PLP314     -0.2830
      9  C5        10.8500   30.1050   28.3560 C.ar  314  PLP314      0.0333
     10  C6        11.9760   30.4880   27.6850 C.ar  314  PLP314      0.0969
     11  C5A       10.3530   28.7170   27.9840 C.3   314  PLP314      0.1819
     12  O4P        9.1190   28.5420   27.3530 O.3   314  PLP314     -0.2653
     13  P          8.7730   27.2490   26.5260 P.3   314  PLP314      0.5329
     14  O1P        9.7130   27.2060   25.3850 O.2   314  PLP314     -0.2224
     15  O2P        7.2750   27.5620   26.1550 O.3   314  PLP314     -0.1145
     16  O3P        8.7760   26.0870   27.4430 O.3   314  PLP314     -0.1145
@<TRIPOS>BOND
     1    14    13    2
     2    15    13    1
     3    13    12    1
     4    13    16    1
     5    12    11    1
     6    10     1   ar
     7    10     9   ar
     8     1     2   ar
     9    11     9    1
    10     9     6   ar
    11     2     3    1
    12     2     4   ar
    13     6     4   ar
    14     6     7    1
    15     4     5    1
    16     7     8    2
