@<TRIPOS>MOLECULE
3fhy_ATP_A_1.pdb
 31 33 0 0 0
SMALL
GASTEIGER

@<TRIPOS>ATOM
      1  PG        26.9600    1.1740   46.0260 P.3   409  ATP409      0.5373
      2  O1G       25.9470    2.4270   46.0590 O.3   409  ATP409     -0.1143
      3  O2G       28.2050    1.5860   46.9620 O.3   409  ATP409     -0.1143
      4  O3G       27.3950    0.8310   44.6530 O.2   409  ATP409     -0.2221
      5  PB        26.3550   -1.5770   46.3540 P.3   409  ATP409      0.2277
      6  O1B       25.7060   -2.4100   47.3890 O.3   409  ATP409     -0.4368
      7  O2B       27.7900   -1.8060   46.0710 O.2   409  ATP409     -0.5168
      8  O3B       26.1860   -0.0300   46.7710 O.3   409  ATP409     -0.2258
      9  PA        25.5350   -2.9980   44.0520 P.3   409  ATP409      0.2189
     10  O1A       26.7720   -3.7630   44.3230 O.3   409  ATP409     -0.4371
     11  O2A       25.2730   -2.5700   42.6600 O.2   409  ATP409     -0.5170
     12  O3A       25.5140   -1.6830   44.9830 O.3   409  ATP409     -0.2700
     13  O5'       24.2740   -3.8450   44.5840 O.3   409  ATP409     -0.3112
     14  C5'       23.0110   -3.2260   44.8400 C.3   409  ATP409      0.1813
     15  C4'       21.8890   -4.1390   44.3410 C.3   409  ATP409      0.1821
     16  O4'       21.9300   -4.2460   42.9080 O.3   409  ATP409     -0.3135
     17  C3'       22.0810   -5.5610   44.8670 C.3   409  ATP409      0.2184
     18  O3'       21.4390   -5.6650   46.1400 O.3   409  ATP409     -0.2174
     19  C2'       21.2480   -6.3260   43.8410 C.3   409  ATP409      0.2570
     20  O2'       19.8550   -6.1510   44.1130 O.3   409  ATP409     -0.2130
     21  C1'       21.6160   -5.6020   42.5440 C.3   409  ATP409      0.3186
     22  N9        22.8340   -6.1640   41.9220 N.pl3 409  ATP409     -0.1439
     23  C8        23.9510   -5.4890   41.6540 C.3   409  ATP409      0.3377
     24  N7        24.8030   -6.2760   41.0060 N.2   409  ATP409     -0.2095
     25  C5        24.2270   -7.4700   40.8650 C.2   409  ATP409      0.2526
     26  C6        24.6190   -8.6630   40.2760 C.2   409  ATP409      0.4393
     27  N6        25.8160   -8.7720   39.7040 N.pl3 409  ATP409      0.2180
     28  N1        23.7710   -9.7010   40.2980 N.2   409  ATP409      0.0021
     29  C2        22.5810   -9.6000   40.8680 C.3   409  ATP409      0.5254
     30  N3        22.1780   -8.4810   41.4370 N.2   409  ATP409     -0.0055
     31  C4        22.9750   -7.4010   41.4520 C.2   409  ATP409      0.3518
@<TRIPOS>BOND
     1    27    26    1
     2    26    28    2
     3    26    25    1
     4    28    29    1
     5    25    24    2
     6    25    31    1
     7    29    30    1
     8    24    23    1
     9    30    31    2
    10    31    22    1
    11    23    22    1
    12    22    21    1
    13    21    16    1
    14    21    19    1
    15    11     9    2
    16    16    15    1
    17    19    20    1
    18    19    17    1
    19     9    10    1
    20     9    13    1
    21     9    12    1
    22    15    14    1
    23    15    17    1
    24    13    14    1
    25     4     1    2
    26    17    18    1
    27    12     5    1
    28     1     2    1
    29     1     8    1
    30     1     3    1
    31     7     5    2
    32     5     8    1
    33     5     6    1
