@<TRIPOS>MOLECULE
3fhz_ARG_A_1.pdb
 12 11 0 0 0
SMALL
GASTEIGER

@<TRIPOS>ATOM
      1  N          6.8960    7.8930  -19.4650 N.3   200  ARG200     -0.1208
      2  CA         7.3570    6.8290  -20.3490 C.3   200  ARG200      0.1944
      3  C          7.4660    5.4920  -19.6190 C.2   200  ARG200      0.3819
      4  O          7.9430    5.4200  -18.4860 O.co2 200  ARG200     -0.2441
      5  CB         8.7010    7.2020  -20.9800 C.3   200  ARG200      0.0343
      6  CG         9.3900    6.0500  -21.6880 C.3   200  ARG200      0.0490
      7  CD        10.2360    6.5430  -22.8440 C.3   200  ARG200      0.2205
      8  NE        11.5470    7.0210  -22.4250 N.pl3 200  ARG200     -0.0865
      9  CZ        12.6560    6.2890  -22.4820 C.cat 200  ARG200      0.5346
     10  NH1       13.8160    6.8010  -22.0890 N.pl3 200  ARG200      0.1354
     11  NH2       12.6030    5.0440  -22.9320 N.pl3 200  ARG200      0.1354
     12  OXT        7.0820    4.4490  -20.1480 O.co2 200  ARG200     -0.2441
@<TRIPOS>BOND
     1    11     9    1
     2     7     8    1
     3     7     6    1
     4     9     8    2
     5     9    10    1
     6     6     5    1
     7     5     2    1
     8     2     3    1
     9     2     1    1
    10    12     3   ar
    11     3     4   ar
