@<TRIPOS>MOLECULE
3fi0_AMP_A_1.pdb
 23 25 0 0 0
SMALL
GASTEIGER

@<TRIPOS>ATOM
      1  P        -38.0040  -26.8640  -40.8560 P.3   1003  AMP1003     0.5327
      2  O1P      -36.7260  -26.3390  -41.4810 O.2   1003  AMP1003    -0.2224
      3  O2P      -37.7450  -28.0910  -40.0050 O.3   1003  AMP1003    -0.1145
      4  O3P      -38.6440  -25.7750  -40.0140 O.3   1003  AMP1003    -0.1145
      5  O5'      -39.0950  -27.2340  -41.9530 O.3   1003  AMP1003    -0.2675
      6  C5'      -40.2860  -26.5720  -41.5640 C.3   1003  AMP1003     0.1860
      7  C4'      -41.3900  -27.5630  -41.1940 C.3   1003  AMP1003     0.1823
      8  O4'      -42.5080  -27.6500  -42.1320 O.3   1003  AMP1003    -0.3135
      9  C3'      -40.8920  -28.9840  -41.0040 C.3   1003  AMP1003     0.2184
     10  O3'      -41.5940  -29.6490  -39.9600 O.3   1003  AMP1003    -0.2174
     11  C2'      -41.1530  -29.6260  -42.3610 C.3   1003  AMP1003     0.2570
     12  O2'      -41.4630  -31.0000  -42.0680 O.3   1003  AMP1003    -0.2130
     13  C1'      -42.3220  -28.8280  -42.9850 C.3   1003  AMP1003     0.3186
     14  N9       -41.8600  -28.2910  -44.2390 N.pl3 1003  AMP1003    -0.1439
     15  C8       -41.1170  -27.1640  -44.3530 C.3   1003  AMP1003     0.3377
     16  N7       -40.7980  -26.8800  -45.5740 N.2   1003  AMP1003    -0.2095
     17  C5       -41.3620  -27.8820  -46.3330 C.2   1003  AMP1003     0.2526
     18  C6       -41.3330  -28.0770  -47.6920 C.2   1003  AMP1003     0.4393
     19  N6       -40.6800  -27.2250  -48.5580 N.pl3 1003  AMP1003     0.2180
     20  N1       -41.9700  -29.1560  -48.1520 N.2   1003  AMP1003     0.0021
     21  C2       -42.6050  -29.9750  -47.2810 C.3   1003  AMP1003     0.5254
     22  N3       -42.7050  -29.8930  -45.9420 N.2   1003  AMP1003    -0.0055
     23  C4       -42.0400  -28.7930  -45.5380 C.2   1003  AMP1003     0.3518
@<TRIPOS>BOND
     1    19    18    1
     2    20    18    2
     3    20    21    1
     4    18    17    1
     5    21    22    1
     6    17    16    2
     7    17    23    1
     8    22    23    2
     9    16    15    1
    10    23    14    1
    11    15    14    1
    12    14    13    1
    13    13    11    1
    14    13     8    1
    15    11    12    1
    16    11     9    1
    17     8     7    1
    18     5     6    1
    19     5     1    1
    20     6     7    1
    21     2     1    2
    22     7     9    1
    23     9    10    1
    24     1     4    1
    25     1     3    1
