@<TRIPOS>MOLECULE
3fi0_TRP_A_1.pdb
 15 16 0 0 0
SMALL
GASTEIGER

@<TRIPOS>ATOM
      1  N        -34.1900  -26.6080  -33.5110 N.3   1001  TRP1001    -0.1205
      2  CA       -35.3690  -26.4720  -34.3570 C.3   1001  TRP1001     0.1984
      3  C        -34.9830  -25.9930  -35.7490 C.2   1001  TRP1001     0.3822
      4  O        -35.8760  -25.5210  -36.4820 O.co2 1001  TRP1001    -0.2440
      5  CB       -36.3650  -25.4980  -33.7320 C.3   1001  TRP1001     0.0549
      6  CG       -36.7280  -25.8360  -32.3140 C.2   1001  TRP1001    -0.0138
      7  CD1      -36.2590  -25.2350  -31.1830 C.2   1001  TRP1001     0.0907
      8  CD2      -37.6610  -26.8360  -31.8820 C.3   1001  TRP1001     0.0819
      9  NE1      -36.8350  -25.8030  -30.0720 N.2   1001  TRP1001    -0.2482
     10  CE2      -37.7010  -26.7820  -30.4730 C.2   1001  TRP1001     0.0665
     11  CE3      -38.4660  -27.7650  -32.5460 C.2   1001  TRP1001    -0.0164
     12  CZ2      -38.5080  -27.6340  -29.7210 C.2   1001  TRP1001     0.0153
     13  CZ3      -39.2710  -28.6000  -31.7970 C.2   1001  TRP1001    -0.0038
     14  CH2      -39.2840  -28.5320  -30.3980 C.2   1001  TRP1001     0.0009
     15  OXT      -33.7880  -26.0900  -36.0960 O.co2 1001  TRP1001    -0.2440
@<TRIPOS>BOND
     1     4     3   ar
     2    15     3   ar
     3     3     2    1
     4     2     5    1
     5     2     1    1
     6     5     6    1
     7    11     8    1
     8    11    13    2
     9     6     8    1
    10     6     7    2
    11     8    10    1
    12    13    14    1
    13     7     9    1
    14    10     9    2
    15    10    12    1
    16    14    12    2
