@<TRIPOS>MOLECULE
3fi2_JK1_A_1.pdb
 36 39 0 0 0
SMALL
GASTEIGER

@<TRIPOS>ATOM
      1  O1        14.5350   34.6280   10.6880 O.3   600  JK1600     -0.1783
      2  N2        15.0360   36.6770    9.4420 N.pl3 600  JK1600     -0.1929
      3  C3         1.6180   39.4260   14.2990 C.3   600  JK1600      0.2528
      4  O4         1.2650   36.6160   12.7520 O.3   600  JK1600     -0.4682
      5  C5        16.4160   38.5370    6.4700 C.ar  600  JK1600      0.0013
      6  C6        14.4570   39.7050    7.4600 C.ar  600  JK1600      0.0013
      7  C7         9.6320   31.5020   13.6850 C.ar  600  JK1600      0.0015
      8  C8        16.2860   37.5390    7.4470 C.ar  600  JK1600      0.0162
      9  C10        8.4420   32.0250   14.3260 C.ar  600  JK1600      0.0047
     10  C11       10.2280   32.2300   12.4750 C.ar  600  JK1600      0.0159
     11  C15        3.4670   35.5080   13.1020 C.ar  600  JK1600      0.0568
     12  C16       11.5180   34.0280   10.4970 C.3   600  JK1600      0.1291
     13  C17       14.1340   35.8730   10.2370 C.3   600  JK1600      0.3232
     14  C18        6.6210   33.8680   14.4550 C.2   600  JK1600      0.2690
     15  C19       15.2380   37.6570    8.4100 C.ar  600  JK1600      0.0693
     16  C20        4.6690   35.3750   13.9100 C.ar  600  JK1600      0.0799
     17  C22        7.8470   33.2050   13.8260 C.ar  600  JK1600      0.0567
     18  C23        9.6130   33.3790   12.0340 C.ar  600  JK1600      0.0637
     19  C24        3.8280   37.1620   15.4780 C.ar  600  JK1600      0.1767
     20  C25        2.4280   36.4850   13.5320 C.ar  600  JK1600      0.1767
     21  C26        2.6410   37.2960   14.7200 C.ar  600  JK1600      0.2061
     22  C1         5.1420   37.5900   17.4520 C.3   600  JK1600      0.2526
     23  N1         9.3410   34.8370    9.9480 N.3   600  JK1600     -0.1286
     24  C2         1.0000   36.3070   11.3890 C.3   600  JK1600      0.2526
     25  O2         6.3730   33.8010   15.6010 O.2   600  JK1600     -0.2680
     26  N3        12.8840   35.7870    9.5120 N.3   600  JK1600     -0.1680
     27  O3         4.0690   37.9350   16.6090 O.3   600  JK1600     -0.4682
     28  C4        15.5390   39.6020    6.4580 C.ar  600  JK1600      0.0001
     29  N4         5.7580   34.5010   13.4860 N.am  600  JK1600     -0.1752
     30  N5        10.1510   34.1070   10.9220 N.pl3 600  JK1600     -0.2353
     31  O5         1.6890   38.2570   15.0850 O.3   600  JK1600     -0.4654
     32  C9        14.3300   38.7460    8.4090 C.ar  600  JK1600      0.0162
     33  C12       10.2760   35.7580    9.2720 C.3   600  JK1600      0.1308
     34  C13        8.3940   33.9290   12.6620 C.ar  600  JK1600      0.0204
     35  C14        4.9030   36.1580   15.0550 C.ar  600  JK1600      0.0568
     36  C21       11.6530   35.0570    9.3200 C.3   600  JK1600      0.1175
@<TRIPOS>BOND
     1    28     5   ar
     2    28     6   ar
     3     5     8   ar
     4     8    15   ar
     5     6    32   ar
     6    32    15   ar
     7    15     2    1
     8    33    36    1
     9    33    23    1
    10    36    26    1
    11    36    12    1
    12     2    13    1
    13    26    13    1
    14    23    30    1
    15    13     1    1
    16    12    30    1
    17    30    18    1
    18    24     4    1
    19    18    10   ar
    20    18    34   ar
    21    10     7   ar
    22    34    17   ar
    23     4    20    1
    24    11    20   ar
    25    11    16   ar
    26    29    16    1
    27    29    14   am
    28    20    21   ar
    29     7     9   ar
    30    17     9   ar
    31    17    14    1
    32    16    35   ar
    33     3    31    1
    34    14    25    2
    35    21    31    1
    36    21    19   ar
    37    35    19   ar
    38    19    27    1
    39    27    22    1
