@<TRIPOS>MOLECULE
3fi3_JK2_A_1.pdb
 38 42 0 0 0
SMALL
GASTEIGER

@<TRIPOS>ATOM
      1  C12      -29.1090  -34.4500  -11.5340 C.ar  600  JK2600      0.0205
      2  C13      -31.2930  -35.5830   -8.9320 C.ar  600  JK2600      0.1220
      3  C14      -36.8610  -36.1110  -14.9630 C.ar  600  JK2600      0.0568
      4  C16      -33.3090  -34.0270  -12.5320 C.ar  600  JK2600      0.0237
      5  C18      -35.0510  -33.8380  -14.2330 C.2   600  JK2600      0.2690
      6  C26      -27.7630  -35.7560  -10.0170 C.ar  600  JK2600      0.0707
      7  C27      -37.1160  -35.2540  -13.7750 C.ar  600  JK2600      0.0799
      8  C31      -26.2300  -37.4530   -8.6090 C.ar  600  JK2600      0.0978
      9  C35      -30.0920  -35.4870   -9.5420 C.ar  600  JK2600      0.0399
     10  C36      -30.2270  -34.7160  -10.6870 C.ar  600  JK2600      0.0844
     11  F38      -24.2980  -36.2220   -7.7080 F     600  JK2600     -0.2028
     12  C28      -25.1330  -37.2990   -7.6430 C.ar  600  JK2600      0.1552
     13  C07      -24.9510  -38.2560   -6.7010 C.ar  600  JK2600      0.0310
     14  C04      -25.8270  -39.3590   -6.6540 C.ar  600  JK2600      0.0024
     15  C10      -27.1030  -38.5160   -8.5500 C.ar  600  JK2600      0.0188
     16  C05      -26.9140  -39.4950   -7.5680 C.ar  600  JK2600      0.0015
     17  N21      -26.5760  -36.4090   -9.5350 N.pl3 600  JK2600     -0.2102
     18  C11      -27.8890  -34.9570  -11.2350 C.ar  600  JK2600      0.0180
     19  C17      -28.8270  -36.0060   -9.2150 C.ar  600  JK2600      0.0196
     20  N37      -31.5100  -34.3530  -10.7610 N.ar  600  JK2600     -0.2296
     21  N19      -32.1900  -34.8750   -9.6820 N.ar  600  JK2600     -0.1635
     22  C30      -32.0680  -33.5720  -11.8420 C.ar  600  JK2600      0.0829
     23  C09      -31.4150  -32.4640  -12.2790 C.ar  600  JK2600      0.0192
     24  C06      -31.9370  -31.7160  -13.3660 C.ar  600  JK2600      0.0017
     25  C29      -33.8070  -33.2890  -13.5690 C.ar  600  JK2600      0.0569
     26  C08      -33.1510  -32.1330  -14.0230 C.ar  600  JK2600      0.0047
     27  O22      -35.1270  -33.9320  -15.4050 O.2   600  JK2600     -0.2680
     28  N20      -36.0530  -34.0000  -13.3410 N.am  600  JK2600     -0.1752
     29  C15      -38.2400  -35.4400  -13.0210 C.ar  600  JK2600      0.0568
     30  C33      -39.1920  -36.4130  -13.4160 C.ar  600  JK2600      0.1767
     31  O24      -40.3470  -36.5940  -12.6540 O.3   600  JK2600     -0.4682
     32  C02      -40.2900  -36.2520  -11.2990 C.3   600  JK2600      0.2526
     33  C34      -38.9540  -37.2320  -14.5800 C.ar  600  JK2600      0.2061
     34  O25      -39.8680  -38.2160  -14.9430 O.3   600  JK2600     -0.4654
     35  C03      -39.7450  -39.4790  -14.3560 C.3   600  JK2600      0.2528
     36  C32      -37.7770  -37.0600  -15.3330 C.ar  600  JK2600      0.1767
     37  O23      -37.5470  -37.8430  -16.4630 O.3   600  JK2600     -0.4682
     38  C01      -38.4350  -37.7620  -17.5380 C.3   600  JK2600      0.2526
@<TRIPOS>BOND
     1    38    37    1
     2    37    36    1
     3    27     5    2
     4    36     3   ar
     5    36    33   ar
     6     3     7   ar
     7    34    33    1
     8    34    35    1
     9    33    30   ar
    10     5    25    1
    11     5    28   am
    12    26    25   ar
    13    26    24   ar
    14     7    28    1
    15     7    29   ar
    16    25     4   ar
    17    30    29   ar
    18    30    31    1
    19    24    23   ar
    20    31    32    1
    21     4    22   ar
    22    23    22   ar
    23    22    20    1
    24     1    18   ar
    25     1    10   ar
    26    18     6   ar
    27    20    10   ar
    28    20    21   ar
    29    10     9   ar
    30     6    17    1
    31     6    19   ar
    32    21     2   ar
    33     9    19   ar
    34     9     2   ar
    35    17     8    1
    36     8    15   ar
    37     8    12   ar
    38    15    16   ar
    39    11    12    1
    40    12    13   ar
    41    16    14   ar
    42    13    14   ar
