@<TRIPOS>MOLECULE
3fi4_FI4_A_1.pdb
 30 33 0 0 0
SMALL
GASTEIGER

@<TRIPOS>ATOM
      1  FAD       40.4690   53.8750   95.0860 F     361  FI4361     -0.2008
      2  CAU       39.7890   54.1630   93.9610 C.ar  361  FI4361      0.1778
      3  CAL       38.4890   53.6780   93.7950 C.ar  361  FI4361      0.0624
      4  CAT       37.7880   53.9780   92.6250 C.ar  361  FI4361      0.1426
      5  FAC       36.5420   53.5130   92.4400 F     361  FI4361     -0.2041
      6  CAH       38.3760   54.7570   91.6340 C.ar  361  FI4361      0.0330
      7  CAK       39.6690   55.2430   91.7990 C.ar  361  FI4361      0.0433
      8  CAX       40.3740   54.9440   92.9620 C.ar  361  FI4361      0.1886
      9  OAS       41.6450   55.4360   93.1010 O.3   361  FI4361     -0.3722
     10  CAW       42.7420   54.6170   92.9830 C.1   361  FI4361      0.3247
     11  NAP       42.6160   53.2970   92.7150 N.2   361  FI4361     -0.2578
     12  NAO       43.9720   55.1540   93.1480 N.2   361  FI4361     -0.2966
     13  CAZ       45.1160   54.4260   93.0530 C.2   361  FI4361      0.2118
     14  NAQ       46.2990   55.0830   93.2290 N.pl3 361  FI4361     -0.2087
     15  CAM       46.3330   56.5320   93.4950 C.3   361  FI4361      0.1473
     16  CBD       45.9460   57.2420   92.1710 C.3   361  FI4361      0.1736
     17  OAB       45.7490   58.6590   92.3340 O.3   361  FI4361     -0.2212
     18  CAA       46.9530   57.0400   91.0410 C.3   361  FI4361      0.0374
     19  CBC       45.0180   53.0490   92.7780 C.3   361  FI4361      0.2100
     20  CBB       43.7360   52.5420   92.6180 C.1   361  FI4361      0.1115
     21  NAR       43.7630   51.2280   92.3570 N.2   361  FI4361     -0.0847
     22  NAN       45.1100   50.8610   92.3480 N.2   361  FI4361     -0.1414
     23  CBA       45.8810   51.9520   92.5920 C.2   361  FI4361      0.1050
     24  CAY       47.2760   51.8740   92.6580 C.ar  361  FI4361      0.0274
     25  CAV       48.1050   52.4900   91.7400 C.ar  361  FI4361      0.0589
     26 CLAE       47.3830   53.4550   90.4300 Cl    361  FI4361     -0.0822
     27  CAJ       47.8470   51.1130   93.6810 C.ar  361  FI4361      0.0021
     28  CAG       49.2320   50.9930   93.7870 C.ar  361  FI4361      0.0001
     29  CAF       50.0600   51.6260   92.8600 C.ar  361  FI4361      0.0009
     30  CAI       49.4920   52.3780   91.8320 C.ar  361  FI4361      0.0114
@<TRIPOS>BOND
     1    26    25    1
     2    18    16    1
     3     6     7   ar
     4     6     4   ar
     5    25    30   ar
     6    25    24   ar
     7     7     8   ar
     8    30    29   ar
     9    16    17    1
    10    16    15    1
    11    22    21    1
    12    22    23    2
    13    21    20    2
    14     5     4    1
    15    23    24    1
    16    23    19    1
    17    20    11    2
    18    20    19    1
    19     4     3   ar
    20    24    27   ar
    21    11    10    2
    22    19    13    1
    23    29    28   ar
    24     8     9    1
    25     8     2   ar
    26    10     9    1
    27    10    12    2
    28    13    12    2
    29    13    14    1
    30    14    15    1
    31    27    28   ar
    32     3     2   ar
    33     2     1    1
