@<TRIPOS>MOLECULE
3fi8_ADP_A_1.pdb
 27 29 0 0 0
SMALL
GASTEIGER

@<TRIPOS>ATOM
      1  PB         1.8880    3.2850   16.4680 P.3     1  ADP1        0.5373
      2  O1B        2.3910    1.9960   15.8320 O.3     1  ADP1       -0.1143
      3  O2B        2.1420    4.5190   15.6390 O.2     1  ADP1       -0.2221
      4  O3B        0.5080    3.2240   17.0840 O.3     1  ADP1       -0.1143
      5  PA         3.0200    2.7490   19.0960 P.3     1  ADP1        0.2231
      6  O1A        4.5120    2.6500   19.2800 O.3     1  ADP1       -0.4370
      7  O2A        2.2180    1.4720   19.0390 O.2     1  ADP1       -0.5169
      8  O3A        2.8590    3.5890   17.7210 O.3     1  ADP1       -0.2261
      9  O5'        2.4060    3.8260   20.1480 O.3     1  ADP1       -0.3111
     10  C5'        2.2270    5.2060   19.7640 C.3     1  ADP1        0.1813
     11  C4'        2.1960    6.1700   20.9560 C.3     1  ADP1        0.1821
     12  O4'        1.2040    5.7810   21.9210 O.3     1  ADP1       -0.3135
     13  C3'        3.5300    6.2390   21.7030 C.3     1  ADP1        0.2184
     14  O3'        4.3850    7.3030   21.2530 O.3     1  ADP1       -0.2174
     15  C2'        3.1460    6.3710   23.1690 C.3     1  ADP1        0.2570
     16  O2'        3.0590    7.7340   23.5720 O.3     1  ADP1       -0.2130
     17  C1'        1.7460    5.7670   23.2410 C.3     1  ADP1        0.3186
     18  N9         1.7950    4.3890   23.7790 N.pl3   1  ADP1       -0.1439
     19  C8         1.9710    3.2560   23.0670 C.3     1  ADP1        0.3377
     20  N7         1.9730    2.1550   23.8560 N.2     1  ADP1       -0.2095
     21  C5         1.7980    2.5860   25.1210 C.2     1  ADP1        0.2526
     22  C6         1.6830    1.9410   26.4490 C.2     1  ADP1        0.4393
     23  N6         1.7760    0.5820   26.5610 N.pl3   1  ADP1        0.2180
     24  N1         1.5030    2.7630   27.5300 N.2     1  ADP1        0.0021
     25  C2         1.4170    4.1130   27.4160 C.3     1  ADP1        0.5254
     26  N3         1.5100    4.7570   26.2370 N.2     1  ADP1       -0.0055
     27  C4         1.6840    4.0600   25.0760 C.2     1  ADP1        0.3518
@<TRIPOS>BOND
     1     3     1    2
     2     2     1    1
     3     1     4    1
     4     1     8    1
     5     8     5    1
     6     7     5    2
     7     5     6    1
     8     5     9    1
     9    10     9    1
    10    10    11    1
    11    11    13    1
    12    11    12    1
    13    14    13    1
    14    13    15    1
    15    12    17    1
    16    19    18    1
    17    19    20    1
    18    15    17    1
    19    15    16    1
    20    17    18    1
    21    18    27    1
    22    20    21    2
    23    27    21    1
    24    27    26    2
    25    21    22    1
    26    26    25    1
    27    22    23    1
    28    22    24    2
    29    25    24    1
