@<TRIPOS>MOLECULE
3fic_GDP_Z_1.pdb
 28 30 0 0 0
SMALL
GASTEIGER

@<TRIPOS>ATOM
      1  PB       -15.3510   46.0630  -61.2080 P.3   406  GDP406      0.5373
      2  O1B      -15.5580   44.8070  -60.4470 O.3   406  GDP406     -0.1143
      3  O2B      -15.4860   47.2570  -60.3310 O.3   406  GDP406     -0.1143
      4  O3B      -16.3030   46.1910  -62.3380 O.2   406  GDP406     -0.2221
      5  O3A      -13.8650   46.0750  -61.7980 O.3   406  GDP406     -0.2261
      6  PA       -12.5890   46.9540  -61.3070 P.3   406  GDP406      0.2231
      7  O1A      -12.3470   46.6660  -59.8780 O.3   406  GDP406     -0.4370
      8  O2A      -12.7710   48.3730  -61.7250 O.2   406  GDP406     -0.5169
      9  O5'      -11.4280   46.3270  -62.1940 O.3   406  GDP406     -0.3111
     10  C5'      -11.1340   44.9170  -62.2110 C.3   406  GDP406      0.1813
     11  C4'       -9.7180   44.6790  -62.6750 C.3   406  GDP406      0.1799
     12  O4'       -9.5360   44.9390  -64.0890 O.3   406  GDP406     -0.3326
     13  C3'       -8.6120   45.4610  -61.9760 C.3   406  GDP406      0.2158
     14  O3'       -7.4220   44.7080  -61.8170 O.3   406  GDP406     -0.2175
     15  C2'       -8.3940   46.6640  -62.8890 C.3   406  GDP406      0.2310
     16  O2'       -7.0620   47.1490  -62.8670 O.3   406  GDP406     -0.2158
     17  C1'       -8.6890   46.0540  -64.2620 C.3   406  GDP406      0.2293
     18  N9        -9.1080   46.9610  -65.3250 N.pl3 406  GDP406     -0.2354
     19  C8       -10.0850   47.9280  -65.2570 C.3   406  GDP406      0.2246
     20  N7       -10.2160   48.6130  -66.3580 N.2   406  GDP406     -0.2322
     21  C5        -9.2670   48.0670  -67.2160 C.2   406  GDP406      0.2182
     22  C6        -8.9310   48.4150  -68.5620 C.1   406  GDP406      0.2372
     23  O6        -9.4070   49.3210  -69.2610 O.2   406  GDP406     -0.2069
     24  N1        -7.9170   47.5970  -69.0770 N.2   406  GDP406     -0.2485
     25  C2        -7.2960   46.5770  -68.3800 C.1   406  GDP406      0.2531
     26  N2        -6.3450   45.8980  -69.0420 N.pl3 406  GDP406     -0.0226
     27  N3        -7.5970   46.2500  -67.1170 N.2   406  GDP406     -0.3074
     28  C4        -8.5870   47.0370  -66.6010 C.2   406  GDP406      0.2300
@<TRIPOS>BOND
     1    23    22    2
     2    24    22    2
     3    24    25    2
     4    26    25    1
     5    22    21    1
     6    25    27    2
     7    21    28    1
     8    21    20    2
     9    27    28    2
    10    28    18    1
    11    20    19    1
    12    18    19    1
    13    18    17    1
    14    17    12    1
    15    17    15    1
    16    12    11    1
    17    15    16    1
    18    15    13    1
    19    11    10    1
    20    11    13    1
    21     4     1    2
    22    10     9    1
    23     9     6    1
    24    13    14    1
    25     5     6    1
    26     5     1    1
    27     8     6    2
    28     6     7    1
    29     1     2    1
    30     1     3    1
