@<TRIPOS>MOLECULE
3fic_PHA_Y_1.pdb
 11 11 0 0 0
SMALL
GASTEIGER

@<TRIPOS>ATOM
      1  N        -23.1970   64.7870  -49.9850 N.3    77  PHA77      -0.1241
      2  CA       -23.2650   63.5270  -49.2410 C.3    77  PHA77       0.1605
      3  C        -21.9980   63.4020  -48.4240 C.2    77  PHA77       0.2264
      4  O        -20.9090   63.4160  -48.9440 O.2    77  PHA77      -0.2867
      5  CB       -23.3780   62.3660  -50.2460 C.3    77  PHA77       0.0534
      6  CG       -22.9790   61.0420  -49.6780 C.ar   77  PHA77      -0.0203
      7  CD1      -23.8630   60.3270  -48.8790 C.ar   77  PHA77      -0.0042
      8  CD2      -21.7110   60.5440  -49.8820 C.ar   77  PHA77      -0.0042
      9  CE1      -23.4900   59.1380  -48.2900 C.ar   77  PHA77      -0.0003
     10  CE2      -21.3340   59.3580  -49.2930 C.ar   77  PHA77      -0.0003
     11  CZ       -22.2320   58.6560  -48.4930 C.ar   77  PHA77      -0.0000
@<TRIPOS>BOND
     1     5     6    1
     2     5     2    1
     3     1     2    1
     4     8     6   ar
     5     8    10   ar
     6     6     7   ar
     7    10    11   ar
     8     2     3    1
     9     4     3    2
    10     7     9   ar
    11    11     9   ar
