@<TRIPOS>MOLECULE
3fih_GDP_Z_1.pdb
 28 30 0 0 0
SMALL
GASTEIGER

@<TRIPOS>ATOM
      1  PB       -10.1700   44.6160  -61.4630 P.3   1397  GDP1397     0.5373
      2  O1B      -11.5980   44.7220  -61.8860 O.2   1397  GDP1397    -0.2221
      3  O2B       -9.7480   45.7000  -60.4310 O.3   1397  GDP1397    -0.1143
      4  O3B       -9.7060   43.2040  -61.0470 O.3   1397  GDP1397    -0.1143
      5  O3A       -9.2220   44.8900  -62.9000 O.3   1397  GDP1397    -0.2261
      6  PA        -8.3000   45.7350  -64.0130 P.3   1397  GDP1397     0.2231
      7  O1A       -9.2010   46.1590  -65.0480 O.2   1397  GDP1397    -0.5169
      8  O2A       -7.5780   46.7860  -63.3000 O.3   1397  GDP1397    -0.4370
      9  O5'       -7.2380   44.6720  -64.5320 O.3   1397  GDP1397    -0.3111
     10  C5'       -6.4930   43.8630  -63.6610 C.3   1397  GDP1397     0.1813
     11  C4'       -5.0110   44.2220  -63.8280 C.3   1397  GDP1397     0.1799
     12  O4'       -4.5980   43.9200  -65.1730 O.3   1397  GDP1397    -0.3326
     13  C3'       -4.5660   45.6820  -63.6290 C.3   1397  GDP1397     0.2158
     14  O3'       -4.6650   45.9990  -62.2950 O.3   1397  GDP1397    -0.2175
     15  C2'       -3.2240   45.6070  -64.2550 C.3   1397  GDP1397     0.2310
     16  O2'       -2.2640   45.0810  -63.3840 O.3   1397  GDP1397    -0.2158
     17  C1'       -3.4410   44.7930  -65.4960 C.3   1397  GDP1397     0.2293
     18  N9        -3.7020   45.5300  -66.7580 N.pl3 1397  GDP1397    -0.2354
     19  C8        -4.7340   46.4460  -66.8970 C.3   1397  GDP1397     0.2246
     20  N7        -4.8460   46.9320  -68.1080 N.2   1397  GDP1397    -0.2322
     21  C5        -3.8550   46.2730  -68.8090 C.2   1397  GDP1397     0.2182
     22  C6        -3.6380   46.3460  -70.2170 C.1   1397  GDP1397     0.2372
     23  O6        -4.2200   47.1920  -70.9410 O.2   1397  GDP1397    -0.2069
     24  N1        -2.4810   45.6700  -70.5930 N.2   1397  GDP1397    -0.2485
     25  C2        -1.8650   44.6850  -69.8160 C.1   1397  GDP1397     0.2531
     26  N2        -0.7760   44.1350  -70.3770 N.pl3 1397  GDP1397    -0.0226
     27  N3        -2.1680   44.5700  -68.4920 N.2   1397  GDP1397    -0.3074
     28  C4        -3.1640   45.4140  -68.0180 C.2   1397  GDP1397     0.2300
@<TRIPOS>BOND
     1    23    22    2
     2    24    22    2
     3    24    25    2
     4    26    25    1
     5    22    21    1
     6    25    27    2
     7    21    20    2
     8    21    28    1
     9    27    28    2
    10    20    19    1
    11    28    18    1
    12    19    18    1
    13    18    17    1
    14    17    12    1
    15    17    15    1
    16    12    11    1
    17     7     6    2
    18     9     6    1
    19     9    10    1
    20    15    13    1
    21    15    16    1
    22     6     8    1
    23     6     5    1
    24    11    10    1
    25    11    13    1
    26    13    14    1
    27     5     1    1
    28     2     1    2
    29     1     4    1
    30     1     3    1
