@<TRIPOS>MOLECULE
3fir_B6D_A_1.pdb
 15 15 0 0 0
SMALL
GASTEIGER

@<TRIPOS>ATOM
      1  C1         0.4760  -18.5130   28.1980 C.3   401  B6D401      0.1637
      2  N2        -1.0990  -18.5400   29.9280 N.am  401  B6D401     -0.2045
      3  C3         0.7930  -19.9430   30.2360 C.3   401  B6D401      0.0484
      4  C4         2.1080  -20.4060   29.6050 C.3   401  B6D401      0.1241
      5  C5         2.6230  -19.3960   28.5770 C.3   401  B6D401      0.1352
      6  C6         3.8660  -19.8670   27.8240 C.3   401  B6D401      0.0339
      7  C7        -2.3970  -18.8030   30.0700 C.2   401  B6D401      0.2419
      8  C8        -2.9550  -19.8580   29.1590 C.3   401  B6D401      0.0964
      9  C9         4.5940  -21.4090   32.2700 C.3   401  B6D401      0.0964
     10  C2        -0.2080  -19.4330   29.2010 C.3   401  B6D401      0.1266
     11  O7        -3.1240  -18.0880   30.7420 O.2   401  B6D401     -0.2733
     12  N4         3.0460  -20.4200   30.7260 N.am  401  B6D401     -0.2046
     13  C10        3.6670  -21.5400   31.0980 C.2   401  B6D401      0.2419
     14  O10        3.5030  -22.6040   30.5210 O.2   401  B6D401     -0.2733
     15  O5         1.5950  -19.1740   27.6180 O.3   401  B6D401     -0.3527
@<TRIPOS>BOND
     1    15     1    1
     2    15     5    1
     3     6     5    1
     4     1    10    1
     5     5     4    1
     6     8     7    1
     7    10     2    1
     8    10     3    1
     9     4     3    1
    10     4    12    1
    11     2     7   am
    12     7    11    2
    13    14    13    2
    14    12    13   am
    15    13     9    1
