@<TRIPOS>MOLECULE
3fir_FLC_A_1.pdb
 13 12 0 0 0
SMALL
GASTEIGER

@<TRIPOS>ATOM
      1  CAC       -0.2700    6.1160   16.9650 C.2   301  FLC301      0.3680
      2  CA         0.2650    6.9050   18.1390 C.3   301  FLC301      0.1560
      3  CB         1.3210    6.1630   18.9650 C.3   301  FLC301      0.2402
      4  CBC        0.6240    5.2190   19.9190 C.2   301  FLC301      0.3927
      5  CG         2.3400    5.4170   18.0900 C.3   301  FLC301      0.1560
      6  CGC        3.4250    4.7170   18.8930 C.2   301  FLC301      0.3680
      7  OA1       -0.3930    6.7000   15.8680 O.co2 301  FLC301     -0.2455
      8  OA2       -0.5810    4.9180   17.1230 O.co2 301  FLC301     -0.2455
      9  OB1       -0.0360    4.2520   19.4720 O.co2 301  FLC301     -0.2429
     10  OB2        0.7380    5.4500   21.1420 O.co2 301  FLC301     -0.2429
     11  OG1        3.1100    3.8740   19.7640 O.co2 301  FLC301     -0.2455
     12  OG2        4.6180    5.0010   18.6480 O.co2 301  FLC301     -0.2455
     13  OHB        2.0080    7.1410   19.7570 O.3   301  FLC301     -0.2129
@<TRIPOS>BOND
     1     7     1   ar
     2     1     8   ar
     3     1     2    1
     4     5     6    1
     5     5     3    1
     6     2     3    1
     7    12     6   ar
     8     6    11   ar
     9     3    13    1
    10     3     4    1
    11     9     4   ar
    12     4    10   ar
