@<TRIPOS>MOLECULE
3fit_FRU_A_1.pdb
 12 12 0 0 0
SMALL
GASTEIGER

@<TRIPOS>ATOM
      1  C1        10.4230   15.2760   48.2970 C.3   500  FRU500      0.2434
      2  C2        11.3670   14.7410   47.1530 C.3   500  FRU500      0.2807
      3  C3        12.8920   14.9940   47.4240 C.3   500  FRU500      0.2409
      4  C4        13.4780   15.0530   45.9890 C.3   500  FRU500      0.2168
      5  C5        12.3380   15.8370   45.3090 C.3   500  FRU500      0.1836
      6  C6        12.1280   15.3470   43.8910 C.3   500  FRU500      0.2142
      7  O1        10.5920   16.7190   48.4790 O.3   500  FRU500     -0.2148
      8  O2        10.9290   13.4490   46.8410 O.3   500  FRU500     -0.1896
      9  O3        13.8150   14.5580   48.4400 O.3   500  FRU500     -0.2149
     10  O4        14.7750   15.6760   45.9130 O.3   500  FRU500     -0.2175
     11  O5        11.1280   15.6880   46.1090 O.3   500  FRU500     -0.3253
     12  O6        10.9610   15.9000   43.5120 O.3   500  FRU500     -0.2176
@<TRIPOS>BOND
     1    12     6    1
     2     6     5    1
     3     5     4    1
     4     5    11    1
     5    10     4    1
     6     4     3    1
     7    11     2    1
     8     8     2    1
     9     2     3    1
    10     2     1    1
    11     3     9    1
    12     1     7    1
