@<TRIPOS>MOLECULE
3fit_A_A_1.pdb
 19 21 0 0 0
SMALL
GASTEIGER

@<TRIPOS>ATOM
      1  O5'        7.3440   19.8120   22.8970 O.3   400  A400       -0.2176
      2  C5'        8.3180   20.6690   23.4910 C.3   400  A400        0.2143
      3  C4'        8.6070   20.2480   24.9290 C.3   400  A400        0.1851
      4  O4'        8.9750   21.4150   25.6720 O.3   400  A400       -0.3134
      5  C3'        7.3590   19.6360   25.5720 C.3   400  A400        0.2186
      6  O3'        8.0450   18.9160   26.6090 O.3   400  A400       -0.2174
      7  C2'        6.7250   21.0060   25.7980 C.3   400  A400        0.2570
      8  O2'        5.6320   20.9070   26.7270 O.3   400  A400       -0.2130
      9  C1'        7.8310   21.8580   26.4120 C.3   400  A400        0.3186
     10  N9         7.7020   23.3060   26.1390 N.pl3 400  A400       -0.1439
     11  C8         7.3520   23.9600   24.9760 C.3   400  A400        0.3377
     12  N7         7.3130   25.2630   25.0460 N.2   400  A400       -0.2095
     13  C5         7.6880   25.4940   26.3670 C.2   400  A400        0.2526
     14  C6         7.7800   26.7000   27.0620 C.2   400  A400        0.4393
     15  N6         7.5630   27.8630   26.4620 N.pl3 400  A400        0.2180
     16  N1         8.1080   26.5570   28.3510 N.2   400  A400        0.0021
     17  C2         8.3250   25.3730   28.9250 C.3   400  A400        0.5254
     18  N3         8.2590   24.1670   28.3620 N.2   400  A400       -0.0055
     19  C4         7.9310   24.3210   27.0480 C.2   400  A400        0.3518
@<TRIPOS>BOND
     1     1     2    1
     2     2     3    1
     3     3     5    1
     4     3     4    1
     5    11    12    1
     6    11    10    1
     7    12    13    2
     8     5     7    1
     9     5     6    1
    10     4     9    1
    11     7     9    1
    12     7     8    1
    13    10     9    1
    14    10    19    1
    15    13    19    1
    16    13    14    1
    17    15    14    1
    18    19    18    2
    19    14    16    2
    20    16    17    1
    21    18    17    1
