@<TRIPOS>MOLECULE
3fiu_AMP_A_1.pdb
 23 25 0 0 0
SMALL
GASTEIGER

@<TRIPOS>ATOM
      1  P          2.8130   12.7890   62.7960 P.3   3001  AMP3001     0.5327
      2  O1P        2.8450   13.0370   64.2930 O.3   3001  AMP3001    -0.1145
      3  O2P        2.3440   11.3650   62.4550 O.3   3001  AMP3001    -0.1145
      4  O3P        2.2080   13.8240   61.9140 O.2   3001  AMP3001    -0.2224
      5  O5'        4.3690   12.6820   62.3310 O.3   3001  AMP3001    -0.2675
      6  C5'        5.3040   11.9760   63.1730 C.3   3001  AMP3001     0.1860
      7  C4'        6.7080   12.2910   62.6870 C.3   3001  AMP3001     0.1823
      8  O4'        7.0260   11.5580   61.4970 O.3   3001  AMP3001    -0.3135
      9  C3'        6.8960   13.7440   62.2710 C.3   3001  AMP3001     0.2184
     10  O3'        7.1060   14.5300   63.4360 O.3   3001  AMP3001    -0.2174
     11  C2'        8.1390   13.6540   61.3910 C.3   3001  AMP3001     0.2570
     12  O2'        9.3470   13.6670   62.1830 O.3   3001  AMP3001    -0.2130
     13  C1'        7.9630   12.2960   60.7060 C.3   3001  AMP3001     0.3186
     14  N9         7.3360   12.5100   59.3810 N.pl3 3001  AMP3001    -0.1439
     15  C8         6.0230   12.3680   59.0560 C.3   3001  AMP3001     0.3377
     16  N7         5.8060   12.6630   57.7470 N.2   3001  AMP3001    -0.2095
     17  C5         7.0040   13.0330   57.2340 C.2   3001  AMP3001     0.2526
     18  C6         7.4870   13.4480   55.9040 C.2   3001  AMP3001     0.4393
     19  N6         6.6240   13.5890   54.8710 N.pl3 3001  AMP3001     0.2180
     20  N1         8.8060   13.6990   55.8090 N.2   3001  AMP3001     0.0021
     21  C2         9.6820   13.5950   56.8290 C.3   3001  AMP3001     0.5254
     22  N3         9.3220   13.1990   58.0820 N.2   3001  AMP3001    -0.0055
     23  C4         8.0080   12.9130   58.3040 C.2   3001  AMP3001     0.3518
@<TRIPOS>BOND
     1    19    18    1
     2    20    18    2
     3    20    21    1
     4    18    17    1
     5    21    22    1
     6    17    16    2
     7    17    23    1
     8    16    15    1
     9    22    23    2
    10    23    14    1
    11    15    14    1
    12    14    13    1
    13    13    11    1
    14    13     8    1
    15    11    12    1
    16    11     9    1
    17     8     7    1
    18     4     1    2
    19     9     7    1
    20     9    10    1
    21     5     1    1
    22     5     6    1
    23     3     1    1
    24     7     6    1
    25     1     2    1
