@<TRIPOS>MOLECULE
3fj4_MUC_A_1.pdb
 10 10 0 0 0
SMALL
GASTEIGER

@<TRIPOS>ATOM
      1  C1       -18.3310   43.0280   42.3560 C.2   383  MUC383      0.3685
      2  O1       -18.2380   43.8090   41.3840 O.co2 383  MUC383     -0.2455
      3  O2       -18.0220   43.3060   43.5340 O.co2 383  MUC383     -0.2455
      4  C4       -17.3880   40.3530   43.8060 C.3   383  MUC383      0.0559
      5  C5       -17.5980   40.1450   45.1050 C.3   383  MUC383      0.1133
      6  C6       -18.7790   40.6660   45.4370 C.2   383  MUC383      0.3170
      7  O6       -19.1310   40.8600   46.5970 O.2   383  MUC383     -0.2501
      8  O3       -19.5740   40.9670   44.3560 O.3   383  MUC383     -0.4517
      9  C3       -18.7870   40.5630   43.2200 C.3   383  MUC383      0.1807
     10  C2       -18.8930   41.6000   42.0520 C.3   383  MUC383      0.1575
@<TRIPOS>BOND
     1     2     1   ar
     2    10     1    1
     3    10     9    1
     4     1     3   ar
     5     9     4    1
     6     9     8    1
     7     4     5    1
     8     8     6    1
     9     5     6    1
    10     6     7    2
