@<TRIPOS>MOLECULE
3fj5_PG4_B_1.pdb
 13 12 0 0 0
SMALL
GASTEIGER

@<TRIPOS>ATOM
      1  O1       -16.6260   19.3810  -26.3500 O.3     8  PG48       -0.2176
      2  C1       -17.9400   19.4910  -25.7900 C.3     8  PG48        0.2140
      3  C2       -18.9120   19.0360  -26.8690 C.3     8  PG48        0.1777
      4  O2       -19.8840   18.1210  -26.3720 O.3     8  PG48       -0.3483
      5  C3       -20.4320   17.2800  -27.3980 C.3     8  PG48        0.1742
      6  C4       -20.8260   15.8930  -26.8800 C.3     8  PG48        0.1742
      7  O3       -19.8630   14.8610  -27.2010 O.3     8  PG48       -0.3484
      8  C5       -20.2780   13.5300  -26.8740 C.3     8  PG48        0.1742
      9  C6       -19.5660   12.4180  -27.6570 C.3     8  PG48        0.1742
     10  O4       -18.9300   12.7670  -28.8960 O.3     8  PG48       -0.3483
     11  C7       -17.7260   13.5140  -28.7170 C.3     8  PG48        0.1777
     12  C8       -16.8600   13.6900  -29.9550 C.3     8  PG48        0.2140
     13  O5       -15.8400   14.6320  -29.5990 O.3     8  PG48       -0.2176
@<TRIPOS>BOND
     1    12    13    1
     2    12    11    1
     3    10    11    1
     4    10     9    1
     5     9     8    1
     6     5     6    1
     7     5     4    1
     8     7     6    1
     9     7     8    1
    10     3     4    1
    11     3     2    1
    12     1     2    1
