@<TRIPOS>MOLECULE
3fj6_FMN_A_1.pdb
 31 33 0 0 0
SMALL
GASTEIGER

@<TRIPOS>ATOM
      1  N1         3.6790   42.5860    8.6540 N.2   398  FMN398     -0.2887
      2  C2         3.2690   43.2700    9.7670 C.1   398  FMN398      0.3669
      3  O2         3.8580   43.1050   10.8290 O.2   398  FMN398     -0.1744
      4  N3         2.1860   44.1350    9.6950 N.2   398  FMN398     -0.2300
      5  C4         1.4950   44.3480    8.5290 C.1   398  FMN398      0.2513
      6  O4         0.4010   44.9580    8.5860 O.2   398  FMN398     -0.2057
      7  C4A        1.9040   43.6350    7.3750 C.2   398  FMN398      0.2703
      8  N5         1.2560   43.7980    6.1610 N.2   398  FMN398     -0.3882
      9  C5A        1.6510   43.0560    5.0520 C.2   398  FMN398      0.1277
     10  C6         0.9870   43.1990    3.8400 C.3   398  FMN398      0.0820
     11  C7         1.3920   42.4720    2.7120 C.2   398  FMN398     -0.0408
     12  C7M        0.5100   42.4940    1.4800 C.3   398  FMN398      0.0265
     13  C8         2.4580   41.5700    2.8190 C.2   398  FMN398     -0.0280
     14  C8M        2.7830   40.6060    1.7050 C.3   398  FMN398      0.0304
     15  C9         3.1300   41.4340    4.0270 C.2   398  FMN398      0.0123
     16  C9A        2.7310   42.1690    5.1480 C.2   398  FMN398      0.0793
     17  N10        3.4120   42.0200    6.3540 N.pl3 398  FMN398     -0.2545
     18  C10        2.9990   42.7330    7.4640 C.2   398  FMN398      0.2449
     19  C1'        4.6680   41.1810    6.4080 C.3   398  FMN398      0.1336
     20  C2'        4.3100   39.7120    6.6930 C.3   398  FMN398      0.2048
     21  O2'        3.7100   39.5700    7.9710 O.3   398  FMN398     -0.2185
     22  C3'        5.5890   38.8440    6.6540 C.3   398  FMN398      0.2165
     23  O3'        6.4800   39.2510    7.6940 O.3   398  FMN398     -0.2175
     24  C4'        6.3290   38.9480    5.3100 C.3   398  FMN398      0.2147
     25  O4'        5.4950   39.1370    4.1730 O.3   398  FMN398     -0.2176
     26  C5'        7.2260   37.7180    5.0750 C.3   398  FMN398      0.1892
     27  O5'        6.4520   36.5270    5.0240 O.3   398  FMN398     -0.2674
     28  P          5.9910   35.9110    3.5940 P.3   398  FMN398      0.5327
     29  O1P        4.9080   36.7830    2.9670 O.3   398  FMN398     -0.1145
     30  O2P        5.4460   34.5260    3.8850 O.3   398  FMN398     -0.1145
     31  O3P        7.1920   35.8420    2.6900 O.2   398  FMN398     -0.2224
@<TRIPOS>BOND
     1    12    11    1
     2    14    13    1
     3    31    28    2
     4    11    13    2
     5    11    10    1
     6    13    15    1
     7    29    28    1
     8    28    30    1
     9    28    27    1
    10    10     9    1
    11    15    16    2
    12    25    24    1
    13    27    26    1
    14     9    16    1
    15     9     8    2
    16    26    24    1
    17    16    17    1
    18    24    22    1
    19     8     7    2
    20    17    19    1
    21    17    18    1
    22    19    20    1
    23    22    20    1
    24    22    23    1
    25    20    21    1
    26     7    18    1
    27     7     5    1
    28    18     1    2
    29     5     6    2
    30     5     4    2
    31     1     2    2
    32     4     2    2
    33     2     3    2
