@<TRIPOS>MOLECULE
3fj6_CIH_A_1.pdb
 23 24 0 0 0
SMALL
GASTEIGER

@<TRIPOS>ATOM
      1 CLAE       -8.0460   30.7970   -3.5900 Cl    399  CIH399     -0.0822
      2  CAS       -8.9290   31.1560   -2.1440 C.ar  399  CIH399      0.0577
      3  CAJ       -9.9970   30.3390   -1.7740 C.ar  399  CIH399      0.0114
      4  CAH      -10.7240   30.6120   -0.6140 C.ar  399  CIH399      0.0009
      5  CAI      -10.3800   31.7010    0.1810 C.ar  399  CIH399      0.0001
      6  CAL       -9.3130   32.5250   -0.1830 C.ar  399  CIH399      0.0009
      7  CAV       -8.5530   32.2420   -1.3390 C.ar  399  CIH399      0.0114
      8  CAW       -7.5320   33.1620   -1.6410 C.ar  399  CIH399      0.0115
      9  CAT       -6.4320   33.4090   -0.7990 C.ar  399  CIH399      0.0590
     10  CAN       -5.4810   34.3810   -1.1260 C.ar  399  CIH399      0.0280
     11 CLAF       -6.1900   32.4930    0.6360 Cl    399  CIH399     -0.0822
     12  CAM       -7.6750   33.9520   -2.7840 C.ar  399  CIH399      0.0022
     13  CAK       -6.7330   34.9270   -3.1120 C.ar  399  CIH399      0.0167
     14  CAU       -5.6270   35.1420   -2.2900 C.ar  399  CIH399      0.0745
     15  NAO       -4.8160   36.1290   -2.6450 N.am  399  CIH399     -0.1748
     16  CAQ       -4.3090   37.0010   -1.7600 C.2   399  CIH399      0.2815
     17  OAC       -4.4410   36.9320   -0.5330 O.2   399  CIH399     -0.2672
     18  CAR       -3.4700   38.1210   -2.3530 C.2   399  CIH399      0.1581
     19  CAG       -2.8600   39.0630   -1.4710 C.1   399  CIH399      0.1080
     20  NAA       -2.3630   39.8250   -0.7500 N.1   399  CIH399     -0.1906
     21  CAP       -3.3040   38.2270   -3.8550 C.2   399  CIH399      0.1876
     22  CAB       -2.4490   39.3340   -4.4700 C.3   399  CIH399      0.0782
     23  OAD       -3.9030   37.2820   -4.6390 O.2   399  CIH399     -0.2905
@<TRIPOS>BOND
     1    23    21    1
     2    22    21    1
     3    21    18    2
     4     1     2    1
     5    13    12   ar
     6    13    14   ar
     7    12     8   ar
     8    15    14    1
     9    15    16   am
    10    18    16    1
    11    18    19    1
    12    14    10   ar
    13     2     3   ar
    14     2     7   ar
    15     3     4   ar
    16    16    17    2
    17     8     7    1
    18     8     9   ar
    19    19    20    3
    20     7     6   ar
    21    10     9   ar
    22     9    11    1
    23     4     5   ar
    24     6     5   ar
