@<TRIPOS>MOLECULE
3fj7_PEQ_A_1.pdb
 10 9 0 0 0
SMALL
GASTEIGER

@<TRIPOS>ATOM
      1  C1       -31.8680    7.1470  -26.9730 C.2   301  PEQ301      0.3919
      2  O1       -32.7460    7.9040  -26.4990 O.co2 301  PEQ301     -0.2429
      3  O2'      -32.1170    6.2950  -27.8520 O.co2 301  PEQ301     -0.2429
      4  C2       -30.4430    7.2450  -26.4940 C.3   301  PEQ301      0.2285
      5  C3       -30.2450    8.3320  -25.4450 C.3   301  PEQ301      0.0450
      6  O2       -30.0080    5.9960  -25.9610 O.3   301  PEQ301     -0.2611
      7  P        -28.4270    5.7000  -25.9010 P.3   301  PEQ301      0.5330
      8  O1P      -27.9990    6.2120  -24.5470 O.3   301  PEQ301     -0.1145
      9  O2P      -27.8650    6.4850  -27.0640 O.2   301  PEQ301     -0.2224
     10  O3P      -28.3340    4.2030  -26.0710 O.3   301  PEQ301     -0.1145
@<TRIPOS>BOND
     1     3     1   ar
     2     9     7    2
     3     1     2   ar
     4     1     4    1
     5     4     6    1
     6     4     5    1
     7    10     7    1
     8     6     7    1
     9     7     8    1
