@<TRIPOS>MOLECULE
3fjg_3PG_A_1.pdb
 11 10 0 0 0
SMALL
GASTEIGER

@<TRIPOS>ATOM
      1  C1        -9.6890    8.6110   12.9780 C.2   301  3PG301      0.3972
      2  O1       -10.7370    8.0590   13.3780 O.co2 301  3PG301     -0.2427
      3  O2        -9.5990    9.1720   11.8630 O.co2 301  3PG301     -0.2427
      4  C2        -8.4870    8.5990   13.8780 C.3   301  3PG301      0.2838
      5  O3        -7.6090    9.6730   13.5240 O.3   301  3PG301     -0.2081
      6  C3        -7.7400    7.2820   13.7220 C.3   301  3PG301      0.1983
      7  O1P       -6.7330    7.2120   14.7300 O.3   301  3PG301     -0.2669
      8  P         -5.3330    6.4580   14.4690 P.3   301  3PG301      0.5327
      9  O2P       -4.5940    6.6590   15.7680 O.3   301  3PG301     -0.1145
     10  O3P       -5.7250    5.0280   14.1930 O.3   301  3PG301     -0.1145
     11  O4P       -4.7350    7.1750   13.2830 O.2   301  3PG301     -0.2224
@<TRIPOS>BOND
     1     3     1   ar
     2     1     2   ar
     3     1     4    1
     4    11     8    2
     5     5     4    1
     6     6     4    1
     7     6     7    1
     8    10     8    1
     9     8     7    1
    10     8     9    1
