@<TRIPOS>MOLECULE
3fjl_CJH_A_1.pdb
 24 25 0 0 0
SMALL
GASTEIGER

@<TRIPOS>ATOM
      1  CAA       11.9860  -29.5500   -4.2320 C.3   399  CJH399      0.0512
      2  CAO       11.2920  -30.2260   -3.0190 C.3   399  CJH399      0.2055
      3  OAQ        9.8220  -30.0510   -2.9160 O.3   399  CJH399     -0.4755
      4  CAV        9.3180  -30.8490   -1.9400 C.ar  399  CJH399      0.1386
      5  CAN        8.3110  -31.7740   -2.2690 C.ar  399  CJH399      0.0369
      6  CAH        9.8220  -30.7410   -0.6380 C.ar  399  CJH399      0.0369
      7  CAG        9.3240  -31.5570    0.3690 C.ar  399  CJH399      0.0031
      8  CAK        8.3140  -32.4640    0.0370 C.ar  399  CJH399      0.0002
      9  CAX        7.7580  -32.5530   -1.2530 C.ar  399  CJH399      0.0030
     10  CAW        6.8240  -33.5850   -1.4340 C.ar  399  CJH399      0.0002
     11  CAM        6.8170  -34.3430   -2.6210 C.ar  399  CJH399      0.0013
     12  CAJ        5.9650  -35.4440   -2.7780 C.ar  399  CJH399      0.0166
     13  CAL        6.0100  -33.9900   -0.3700 C.ar  399  CJH399      0.0013
     14  CAI        5.1720  -35.0940   -0.5180 C.ar  399  CJH399      0.0166
     15  CAU        5.1360  -35.8300   -1.7120 C.ar  399  CJH399      0.0737
     16  NAP        4.3250  -36.9050   -1.7540 N.am  399  CJH399     -0.1748
     17  CAS        3.7510  -37.4200   -2.8320 C.2   399  CJH399      0.2815
     18  OAD        3.8440  -36.9220   -3.9510 O.2   399  CJH399     -0.2672
     19  CAT        2.8830  -38.6730   -2.6010 C.2   399  CJH399      0.1581
     20  CAF        2.2070  -39.2410   -3.7180 C.1   399  CJH399      0.1080
     21  NAC        1.6640  -39.6990   -4.6030 N.1   399  CJH399     -0.1906
     22  CAR        2.7240  -39.3170   -1.2200 C.2   399  CJH399      0.1876
     23  CAB        1.8640  -40.5670   -1.0320 C.3   399  CJH399      0.0782
     24  OAE        3.3600  -38.7810   -0.1490 O.2   399  CJH399     -0.2905
@<TRIPOS>BOND
     1    21    20    3
     2     1     2    1
     3    18    17    2
     4    20    19    1
     5     2     3    1
     6     3     4    1
     7    17    19    1
     8    17    16   am
     9    12    11   ar
    10    12    15   ar
    11    11    10   ar
    12    19    22    2
    13     5     4   ar
    14     5     9   ar
    15     4     6   ar
    16    16    15    1
    17    15    14   ar
    18    10     9    1
    19    10    13   ar
    20     9     8   ar
    21    22    23    1
    22    22    24    1
    23     6     7   ar
    24    14    13   ar
    25     8     7   ar
