@<TRIPOS>MOLECULE
3fjl_FMN_A_1.pdb
 31 33 0 0 0
SMALL
GASTEIGER

@<TRIPOS>ATOM
      1  N1        -3.6510  -42.4980    8.6890 N.2   398  FMN398     -0.2890
      2  C2        -3.2500  -43.2010    9.7980 C.1   398  FMN398      0.3669
      3  O2        -3.8290  -43.0640   10.8630 O.2   398  FMN398     -0.1744
      4  N3        -2.1610  -44.0470    9.7360 N.2   398  FMN398     -0.2300
      5  C4        -1.4510  -44.2220    8.5820 C.1   398  FMN398      0.2513
      6  O4        -0.4170  -44.8890    8.6350 O.2   398  FMN398     -0.2057
      7  C4A       -1.8520  -43.5300    7.4300 C.2   398  FMN398      0.2700
      8  N5        -1.1830  -43.7000    6.2300 N.2   398  FMN398     -0.3878
      9  C5A       -1.5820  -42.9790    5.1120 C.2   398  FMN398      0.1320
     10  C6        -0.8850  -43.1310    3.9160 C.2   398  FMN398      0.0250
     11  C7        -1.2580  -42.4060    2.7860 C.2   398  FMN398     -0.0238
     12  C7M       -0.3590  -42.4510    1.5740 C.3   398  FMN398      0.0308
     13  C8        -2.3670  -41.5300    2.8390 C.2   398  FMN398     -0.0280
     14  C8M       -2.6340  -40.5260    1.7320 C.3   398  FMN398      0.0304
     15  C9        -3.0710  -41.3910    4.0310 C.2   398  FMN398     -0.0041
     16  C9A       -2.6740  -42.0880    5.1810 C.3   398  FMN398      0.1497
     17  N10       -3.3820  -41.9570    6.3800 N.pl3 398  FMN398     -0.2691
     18  C10       -2.9740  -42.6700    7.5030 C.2   398  FMN398      0.2416
     19  C1'       -4.6170  -41.1420    6.4820 C.3   398  FMN398      0.1294
     20  C2'       -4.2770  -39.6720    6.7120 C.3   398  FMN398      0.2044
     21  O2'       -3.6650  -39.5510    7.9780 O.3   398  FMN398     -0.2185
     22  C3'       -5.5600  -38.8300    6.6610 C.3   398  FMN398      0.2164
     23  O3'       -6.4410  -39.2730    7.6850 O.3   398  FMN398     -0.2175
     24  C4'       -6.2780  -38.9490    5.3030 C.3   398  FMN398      0.2147
     25  O4'       -5.3620  -39.1510    4.2230 O.3   398  FMN398     -0.2176
     26  C5'       -7.1940  -37.7430    5.0650 C.3   398  FMN398      0.1892
     27  O5'       -6.4620  -36.5330    4.9960 O.3   398  FMN398     -0.2674
     28  P         -5.9800  -35.8570    3.5880 P.3   398  FMN398      0.5327
     29  O1P       -4.8970  -36.7450    2.9930 O.3   398  FMN398     -0.1145
     30  O2P       -5.4100  -34.4940    3.8650 O.3   398  FMN398     -0.1145
     31  O3P       -7.1420  -35.8510    2.6390 O.2   398  FMN398     -0.2224
@<TRIPOS>BOND
     1    12    11    1
     2    14    13    1
     3    31    28    2
     4    11    13    1
     5    11    10    2
     6    13    15    2
     7    29    28    1
     8    28    30    1
     9    28    27    1
    10    10     9    1
    11    15    16    1
    12    25    24    1
    13    27    26    1
    14    26    24    1
    15     9    16    1
    16     9     8    2
    17    16    17    1
    18    24    22    1
    19     8     7    2
    20    17    19    1
    21    17    18    1
    22    19    20    1
    23    22    20    1
    24    22    23    1
    25    20    21    1
    26     7    18    1
    27     7     5    1
    28    18     1    2
    29     5     6    2
    30     5     4    2
    31     1     2    2
    32     4     2    2
    33     2     3    2
