@<TRIPOS>MOLECULE
3fjo_FMN_A_1.pdb
 31 33 0 0 0
SMALL
GASTEIGER

@<TRIPOS>ATOM
      1  N1       -43.9330   35.4710   -0.5410 N.2   751  FMN751     -0.2890
      2  C2       -44.3090   36.0740    0.6410 C.1   751  FMN751      0.3669
      3  O2       -43.4700   36.3390    1.5140 O.2   751  FMN751     -0.1744
      4  N3       -45.6420   36.3760    0.8370 N.2   751  FMN751     -0.2300
      5  C4       -46.5940   36.0880   -0.1170 C.1   751  FMN751      0.2513
      6  O4       -47.7660   36.3940    0.1090 O.2   751  FMN751     -0.2057
      7  C4A      -46.2120   35.4870   -1.3140 C.2   751  FMN751      0.2700
      8  N5       -47.1430   35.1860   -2.2860 N.2   751  FMN751     -0.3878
      9  C5A      -46.7530   34.5930   -3.4720 C.2   751  FMN751      0.1320
     10  C6       -47.7110   34.3070   -4.4450 C.2   751  FMN751      0.0250
     11  C7       -47.3450   33.7170   -5.6610 C.2   751  FMN751     -0.0238
     12  C7M      -48.3000   33.5990   -6.7600 C.3   751  FMN751      0.0308
     13  C8       -46.0100   33.3940   -5.8830 C.2   751  FMN751     -0.0280
     14  C8M      -45.4200   32.6900   -7.0910 C.3   751  FMN751      0.0304
     15  C9       -45.0460   33.6830   -4.9180 C.2   751  FMN751     -0.0041
     16  C9A      -45.4090   34.2800   -3.6970 C.3   751  FMN751      0.1497
     17  N10      -44.4720   34.5710   -2.7040 N.pl3 751  FMN751     -0.2691
     18  C10      -44.8700   35.1780   -1.5240 C.2   751  FMN751      0.2416
     19  C1'      -43.0470   34.0750   -2.8050 C.3   751  FMN751      0.1294
     20  C2'      -42.8780   32.5780   -2.5480 C.3   751  FMN751      0.2044
     21  O2'      -43.2380   32.2520   -1.2260 O.3   751  FMN751     -0.2185
     22  C3'      -41.4230   32.2210   -2.7780 C.3   751  FMN751      0.2164
     23  O3'      -41.2130   32.2620   -4.1710 O.3   751  FMN751     -0.2175
     24  C4'      -40.9960   30.8690   -2.1870 C.3   751  FMN751      0.2147
     25  O4'      -39.6200   30.6590   -2.4390 O.3   751  FMN751     -0.2176
     26  C5'      -41.8100   29.7070   -2.7640 C.3   751  FMN751      0.1892
     27  O5'      -41.3220   28.4740   -2.2860 O.3   751  FMN751     -0.2674
     28  P        -41.8360   27.1030   -2.9360 P.3   751  FMN751      0.5327
     29  O1P      -41.4680   25.9750   -2.0050 O.3   751  FMN751     -0.1145
     30  O2P      -41.1280   26.9100   -4.2580 O.2   751  FMN751     -0.2224
     31  O3P      -43.3190   27.1380   -3.2030 O.3   751  FMN751     -0.1145
@<TRIPOS>BOND
     1    14    13    1
     2    12    11    1
     3    13    11    1
     4    13    15    2
     5    11    10    2
     6    15    16    1
     7    10     9    1
     8    30    28    2
     9    23    22    1
    10    16     9    1
    11    16    17    1
    12     9     8    2
    13    31    28    1
    14    28    27    1
    15    28    29    1
    16    19    17    1
    17    19    20    1
    18    22    20    1
    19    22    24    1
    20    26    27    1
    21    26    24    1
    22    17    18    1
    23    20    21    1
    24    25    24    1
    25     8     7    2
    26    18     7    1
    27    18     1    2
    28     7     5    1
    29     1     2    2
    30     5     6    2
    31     5     4    2
    32     2     4    2
    33     2     3    2
