@<TRIPOS>MOLECULE
3fjq_ATP_E_1.pdb
 31 33 0 0 0
SMALL
GASTEIGER

@<TRIPOS>ATOM
      1  PG        27.6910   11.2420   32.6640 P.3   403  ATP403      0.5373
      2  O1G       29.0280   10.5740   32.8780 O.3   403  ATP403     -0.1143
      3  O2G       27.0350   10.7590   31.3910 O.2   403  ATP403     -0.2221
      4  O3G       27.8350   12.7260   32.7380 O.3   403  ATP403     -0.1143
      5  PB        26.3110   11.5620   35.3060 P.3   403  ATP403      0.2277
      6  O1B       25.8360   12.9360   34.9730 O.2   403  ATP403     -0.5168
      7  O2B       27.3700   11.3660   36.3490 O.3   403  ATP403     -0.4368
      8  O3B       26.7020   10.7590   33.9050 O.3   403  ATP403     -0.2258
      9  PA        23.5430   10.6150   35.1040 P.3   403  ATP403      0.2189
     10  O1A       22.5960   11.7260   35.4720 O.3   403  ATP403     -0.4371
     11  O2A       23.6640   10.2330   33.6640 O.2   403  ATP403     -0.5170
     12  O3A       24.9870   10.7830   35.8230 O.3   403  ATP403     -0.2700
     13  O5'       23.0230    9.2990   35.8720 O.3   403  ATP403     -0.3112
     14  C5'       23.8250    8.1250   35.8300 C.3   403  ATP403      0.1813
     15  C4'       22.9680    6.9250   35.4700 C.3   403  ATP403      0.1821
     16  O4'       21.9130    6.7590   36.4180 O.3   403  ATP403     -0.3135
     17  C3'       22.2800    6.9900   34.1120 C.3   403  ATP403      0.2184
     18  O3'       23.1740    6.6570   33.0440 O.3   403  ATP403     -0.2174
     19  C2'       21.1720    5.9810   34.3220 C.3   403  ATP403      0.2570
     20  O2'       21.6640    4.6370   34.2300 O.3   403  ATP403     -0.2130
     21  C1'       20.7680    6.2160   35.7650 C.3   403  ATP403      0.3186
     22  N9        19.6570    7.1820   35.8820 N.pl3 403  ATP403     -0.1439
     23  C8        19.7320    8.5270   35.7870 C.3   403  ATP403      0.3377
     24  N7        18.5160    9.0950   35.9510 N.2   403  ATP403     -0.2095
     25  C5        17.6400    8.0870   36.1650 C.2   403  ATP403      0.2526
     26  C6        16.2020    7.9600   36.4150 C.2   403  ATP403      0.4393
     27  N6        15.4300    9.0630   36.4800 N.pl3 403  ATP403      0.2180
     28  N1        15.6730    6.7200   36.5680 N.2   403  ATP403      0.0021
     29  C2        16.4350    5.6170   36.5150 C.3   403  ATP403      0.5254
     30  N3        17.7560    5.6510   36.2940 N.2   403  ATP403     -0.0055
     31  C4        18.4030    6.8330   36.1160 C.2   403  ATP403      0.3518
@<TRIPOS>BOND
     1     3     1    2
     2     1     4    1
     3     1     2    1
     4     1     8    1
     5    18    17    1
     6    11     9    2
     7     8     5    1
     8    17    19    1
     9    17    15    1
    10    20    19    1
    11    19    21    1
    12     6     5    2
    13     9    10    1
    14     9    12    1
    15     9    13    1
    16     5    12    1
    17     5     7    1
    18    15    14    1
    19    15    16    1
    20    21    22    1
    21    21    16    1
    22    23    22    1
    23    23    24    1
    24    14    13    1
    25    22    31    1
    26    24    25    2
    27    31    25    1
    28    31    30    2
    29    25    26    1
    30    30    29    1
    31    26    27    1
    32    26    28    2
    33    29    28    1
