@<TRIPOS>MOLECULE
3fjt_MAN_A_1.pdb
 11 11 0 0 0
SMALL
GASTEIGER

@<TRIPOS>ATOM
      1  C1        20.5400  -11.9410  -16.6180 C.3     7  MAN7        0.1777
      2  C2        19.9390  -13.2660  -16.1550 C.3     7  MAN7        0.2141
      3  C3        20.7110  -13.8090  -14.9590 C.3     7  MAN7        0.2173
      4  C4        22.2050  -13.8380  -15.2230 C.3     7  MAN7        0.2142
      5  C5        22.7070  -12.5220  -15.8170 C.3     7  MAN7        0.1810
      6  C6        24.1570  -12.6850  -16.2590 C.3     7  MAN7        0.2141
      7  O2        19.9150  -14.1960  -17.2180 O.3     7  MAN7       -0.2176
      8  O3        20.3020  -15.1210  -14.6750 O.3     7  MAN7       -0.2175
      9  O4        22.8700  -14.1080  -14.0080 O.3     7  MAN7       -0.2176
     10  O5        21.9090  -12.1360  -16.9250 O.3     7  MAN7       -0.3481
     11  O6        24.5760  -11.5320  -16.9450 O.3     7  MAN7       -0.2176
@<TRIPOS>BOND
     1     7     2    1
     2    11     6    1
     3    10     1    1
     4    10     5    1
     5     1     2    1
     6     6     5    1
     7     2     3    1
     8     5     4    1
     9     4     3    1
    10     4     9    1
    11     3     8    1
