@<TRIPOS>MOLECULE
3fjt_BMA_A_1.pdb
 11 11 0 0 0
SMALL
GASTEIGER

@<TRIPOS>ATOM
      1  C1        20.7060   -8.2420  -12.5490 C.3     3  BMA3        0.1777
      2  C2        20.4680   -6.7450  -12.7630 C.3     3  BMA3        0.2141
      3  C3        19.6830   -6.4240  -14.0270 C.3     3  BMA3        0.2173
      4  C4        20.1750   -7.2350  -15.2120 C.3     3  BMA3        0.2142
      5  C5        20.0660   -8.7090  -14.8570 C.3     3  BMA3        0.1810
      6  C6        20.4310   -9.6270  -16.0250 C.3     3  BMA3        0.2141
      7  O2        21.7210   -6.0610  -12.8030 O.3     3  BMA3       -0.2176
      8  O3        19.8460   -5.0380  -14.3320 O.3     3  BMA3       -0.2175
      9  O4        19.4090   -6.9180  -16.3840 O.3     3  BMA3       -0.2176
     10  O5        20.9370   -8.9790  -13.7520 O.3     3  BMA3       -0.3481
     11  O6        20.3130  -10.9810  -15.5700 O.3     3  BMA3       -0.2176
@<TRIPOS>BOND
     1     9     4    1
     2     6    11    1
     3     6     5    1
     4     4     5    1
     5     4     3    1
     6     5    10    1
     7     8     3    1
     8     3     2    1
     9    10     1    1
    10     7     2    1
    11     2     1    1
