@<TRIPOS>MOLECULE
3fjw_BMA_A_1.pdb
 11 11 0 0 0
SMALL
GASTEIGER

@<TRIPOS>ATOM
      1  C1        -4.9090   75.4220   22.2540 C.3   391  BMA391      0.1777
      2  C2        -3.5110   74.9920   22.6260 C.3   391  BMA391      0.2141
      3  C3        -2.7160   76.2480   22.8370 C.3   391  BMA391      0.2173
      4  C4        -2.7080   77.0510   21.5390 C.3   391  BMA391      0.2142
      5  C5        -4.1090   77.1540   20.8970 C.3   391  BMA391      0.1810
      6  C6        -4.0240   77.5740   19.4420 C.3   391  BMA391      0.2141
      7  O2        -2.9350   74.3220   21.5160 O.3   391  BMA391     -0.2176
      8  O3        -1.4040   75.9070   23.1840 O.3   391  BMA391     -0.2175
      9  O4        -2.2230   78.3410   21.8050 O.3   391  BMA391     -0.2176
     10  O5        -4.8210   75.9240   20.9520 O.3   391  BMA391     -0.3481
     11  O6        -5.2270   77.2060   18.8050 O.3   391  BMA391     -0.2176
@<TRIPOS>BOND
     1    11     6    1
     2     6     5    1
     3     5    10    1
     4     5     4    1
     5    10     1    1
     6     7     2    1
     7     4     9    1
     8     4     3    1
     9     1     2    1
    10     2     3    1
    11     3     8    1
