@<TRIPOS>MOLECULE
3fjw_MAN_A_1.pdb
 11 11 0 0 0
SMALL
GASTEIGER

@<TRIPOS>ATOM
      1  C1        19.1360   88.4040   33.0120 C.3   371  MAN371      0.1777
      2  C2        20.5880   88.5770   32.6190 C.3   371  MAN371      0.2141
      3  C3        20.8610   87.9290   31.2610 C.3   371  MAN371      0.2173
      4  C4        20.2150   86.5350   31.1250 C.3   371  MAN371      0.2142
      5  C5        18.8310   86.4550   31.7830 C.3   371  MAN371      0.1810
      6  C6        18.3470   85.0120   31.8780 C.3   371  MAN371      0.2141
      7  O2        21.3950   87.9670   33.6050 O.3   371  MAN371     -0.2176
      8  O3        22.2510   87.8100   31.0780 O.3   371  MAN371     -0.2175
      9  O4        20.0890   86.2120   29.7540 O.3   371  MAN371     -0.2176
     10  O5        18.8640   87.0280   33.0760 O.3   371  MAN371     -0.3481
     11  O6        16.9380   84.9830   31.7820 O.3   371  MAN371     -0.2176
@<TRIPOS>BOND
     1     9     4    1
     2     8     3    1
     3     4     3    1
     4     4     5    1
     5     3     2    1
     6    11     6    1
     7     5     6    1
     8     5    10    1
     9     2     1    1
    10     2     7    1
    11     1    10    1
