@<TRIPOS>MOLECULE
3fjw_HEM_A_1.pdb
 43 50 0 0 0
SMALL
GASTEIGER

@<TRIPOS>ATOM
      1  CHA        8.1850   62.0690   33.3790 C.2   350  HEM350      0.0000
      2  CHB        9.5460   63.8430   37.6690 C.2   350  HEM350      0.0000
      3  CHC       13.8500   64.9910   35.8350 C.2   350  HEM350      0.0000
      4  CHD       12.7520   62.6490   31.6920 C.2   350  HEM350      0.0000
      5  C1A        8.1810   62.4370   34.6920 C.2   350  HEM350      0.0000
      6  C2A        7.0900   62.2220   35.6260 C.2   350  HEM350      0.0000
      7  C3A        7.4630   62.7030   36.8130 C.2   350  HEM350      0.0000
      8  C4A        8.8090   63.2410   36.6690 C.2   350  HEM350      0.0000
      9  CMA        6.6060   62.7000   38.1070 C.3   350  HEM350      0.0000
     10  CAA        5.7330   61.5590   35.3040 C.3   350  HEM350      0.0000
     11  CBA        5.8250   60.0430   35.4590 C.3   350  HEM350      0.0000
     12  CGA        4.4450   59.4640   35.2720 C.2   350  HEM350      0.0000
     13  O1A        3.5920   59.6070   36.2020 O.co2 350  HEM350      0.0000
     14  O2A        4.1850   58.8810   34.1910 O.co2 350  HEM350      0.0000
     15  C1B       10.8210   64.3340   37.5520 C.ar  350  HEM350      0.0000
     16  C2B       11.5800   64.9900   38.6020 C.ar  350  HEM350      0.0000
     17  C3B       12.7780   65.3140   38.0970 C.ar  350  HEM350      0.0000
     18  C4B       12.8120   64.8610   36.7050 C.ar  350  HEM350      0.0000
     19  CMB       11.0940   65.2630   40.0370 C.3   350  HEM350      0.0000
     20  CAB       13.9290   66.0240   38.8700 C.2   350  HEM350      0.0000
     21  CBB       14.3600   67.2370   38.5000 C.2   350  HEM350      0.0000
     22  C1C       13.9440   64.4040   34.5880 C.2   350  HEM350      0.0000
     23  C2C       15.1380   64.3610   33.7930 C.2   350  HEM350      0.0000
     24  C3C       14.8650   63.7250   32.6470 C.2   350  HEM350      0.0000
     25  C4C       13.4490   63.3340   32.6740 C.2   350  HEM350      0.0000
     26  CMC       16.4950   64.9490   34.2110 C.3   350  HEM350      0.0000
     27  CAC       15.8890   63.4620   31.5080 C.2   350  HEM350      0.0000
     28  CBC       15.9110   62.3000   30.8600 C.2   350  HEM350      0.0000
     29  C1D       11.3940   62.4080   31.7070 C.ar  350  HEM350      0.0000
     30  C2D       10.5490   62.1330   30.5540 C.ar  350  HEM350      0.0000
     31  C3D        9.1490   61.9480   31.0990 C.ar  350  HEM350      0.0000
     32  C4D        9.2420   62.1390   32.5200 C.ar  350  HEM350      0.0000
     33  CMD       10.9580   62.0340   29.0830 C.3   350  HEM350      0.0000
     34  CAD        7.8650   61.6420   30.2940 C.3   350  HEM350      0.0000
     35  CBD        7.7250   60.1450   30.0690 C.3   350  HEM350      0.0000
     36  CGD        6.4690   59.8870   29.2740 C.2   350  HEM350      0.0000
     37  O1D        5.9730   58.7420   29.3140 O.co2 350  HEM350      0.0000
     38  O2D        5.9660   60.8310   28.5930 O.co2 350  HEM350      0.0000
     39  NA         9.2100   63.0620   35.3580 N.2   350  HEM350      0.0000
     40  NB        11.6010   64.2810   36.4130 N.ar  350  HEM350      0.0000
     41  NC        12.9190   63.7750   33.8710 N.2   350  HEM350      0.0000
     42  ND        10.5800   62.4120   32.8600 N.ar  350  HEM350      0.0000
     43 FE         10.9540   63.6230   34.5130 Fe    350  HEM350      0.0000
@<TRIPOS>BOND
     1    38    36   ar
     2    33    30    1
     3    36    37   ar
     4    36    35    1
     5    35    34    1
     6    34    31    1
     7    30    31   ar
     8    30    29   ar
     9    28    27    2
    10    31    32   ar
    11    27    24    1
    12     4    29    2
    13     4    25    1
    14    29    42   ar
    15    32    42   ar
    16    32     1    2
    17    24    25    1
    18    24    23    2
    19    25    41    2
    20    42    43    1
    21     1     5    1
    22    23    26    1
    23    23    22    1
    24    41    43    1
    25    41    22    1
    26    14    12   ar
    27    43    39    1
    28    43    40    1
    29    22     3    2
    30     5    39    2
    31     5     6    1
    32    12    11    1
    33    12    13   ar
    34    10    11    1
    35    10     6    1
    36    39     8    1
    37     6     7    2
    38     3    18    1
    39    40    18   ar
    40    40    15   ar
    41     8     7    1
    42     8     2    2
    43    18    17   ar
    44     7     9    1
    45    15     2    1
    46    15    16   ar
    47    17    16   ar
    48    17    20    1
    49    21    20    2
    50    16    19    1
