@<TRIPOS>MOLECULE
3fjx_S3P_A_1.pdb
 16 16 0 0 0
SMALL
GASTEIGER

@<TRIPOS>ATOM
      1  C1        55.9000   12.1170   27.9590 C.2   428  S3P428      0.0583
      2  C2        54.7820   11.2670   28.1680 C.2   428  S3P428      0.0084
      3  C3        54.9110    9.9460   28.9140 C.3   428  S3P428      0.1809
      4  C4        56.1750    9.9220   29.7970 C.3   428  S3P428      0.2140
      5  C5        57.4200   10.3500   28.9960 C.3   428  S3P428      0.1895
      6  C6        57.2020   11.7830   28.4580 C.3   428  S3P428      0.0684
      7  C7        55.6710   13.4200   27.2100 C.2   428  S3P428      0.3837
      8  O1        54.8200    8.7660   27.9480 O.3   428  S3P428     -0.2655
      9  O2        56.3190    8.6050   30.3590 O.3   428  S3P428     -0.2174
     10  O3        58.5540   10.3170   29.8440 O.3   428  S3P428     -0.2200
     11  O4        54.6890   13.4880   26.4430 O.co2 428  S3P428     -0.2409
     12  O5        56.4050   14.3610   27.4570 O.co2 428  S3P428     -0.2409
     13  P1        53.4390    7.8520   27.7390 P.3   428  S3P428      0.5329
     14  O6        52.3780    8.6820   27.1320 O.3   428  S3P428     -0.1145
     15  O7        53.0170    7.3830   29.0990 O.3   428  S3P428     -0.1145
     16  O8        53.7660    6.7250   26.8620 O.2   428  S3P428     -0.2224
@<TRIPOS>BOND
     1    11     7   ar
     2    16    13    2
     3    14    13    1
     4     7    12   ar
     5     7     1    1
     6    13     8    1
     7    13    15    1
     8     8     3    1
     9     1     2    2
    10     1     6    1
    11     2     3    1
    12     6     5    1
    13     3     4    1
    14     5     4    1
    15     5    10    1
    16     4     9    1
