@<TRIPOS>MOLECULE
3fjz_GPF_A_1.pdb
 10 9 0 0 0
SMALL
GASTEIGER

@<TRIPOS>ATOM
      1  C1        59.7700    7.8610   28.2300 C.3   429  GPF429      0.1476
      2  C2        59.8430    7.9900   30.7410 C.3   429  GPF429      0.2033
      3  C3        60.4190    8.8600   31.8480 C.2   429  GPF429      0.3823
      4  O1        60.2120   10.2180   27.1920 O.3   429  GPF429     -0.3562
      5  O2        59.0840    8.4030   25.8560 O.2   429  GPF429     -0.4587
      6  O3        61.5470    8.3340   26.3530 O.3   429  GPF429     -0.3562
      7  O4        61.0100    9.9520   31.5290 O.co2 429  GPF429     -0.2440
      8  P1        60.1690    8.7760   26.8160 P.3   429  GPF429      0.1347
      9  O5        60.2760    8.4520   33.0020 O.co2 429  GPF429     -0.2440
     10  N1        60.1130    8.5870   29.4410 N.3   429  GPF429     -0.1988
@<TRIPOS>BOND
     1     5     8    2
     2     6     8    1
     3     8     4    1
     4     8     1    1
     5     1    10    1
     6    10     2    1
     7     2     3    1
     8     7     3   ar
     9     3     9   ar
