@<TRIPOS>MOLECULE
3fjz_S3P_A_1.pdb
 16 16 0 0 0
SMALL
GASTEIGER

@<TRIPOS>ATOM
      1  C1        55.7230   12.2800   28.0140 C.2   430  S3P430      0.0583
      2  C2        54.6420   11.3790   28.1640 C.2   430  S3P430      0.0084
      3  C3        54.7940   10.0910   28.9430 C.3   430  S3P430      0.1809
      4  C4        56.0260   10.1240   29.8780 C.3   430  S3P430      0.2140
      5  C5        57.2840   10.6400   29.1560 C.3   430  S3P430      0.1895
      6  C6        57.0000   12.0510   28.6260 C.3   430  S3P430      0.0684
      7  C7        55.4950   13.5370   27.2120 C.2   430  S3P430      0.3837
      8  O1        54.7540    8.9080   28.0160 O.3   430  S3P430     -0.2655
      9  O2        56.2110    8.8140   30.4250 O.3   430  S3P430     -0.2174
     10  O3        58.3880   10.6840   30.0650 O.3   430  S3P430     -0.2200
     11  O4        54.4970   13.5830   26.4580 O.co2 430  S3P430     -0.2409
     12  O5        56.2530   14.4740   27.4190 O.co2 430  S3P430     -0.2409
     13  P1        53.3960    7.8920   27.7770 P.3   430  S3P430      0.5329
     14  O6        52.3030    8.6820   27.1740 O.3   430  S3P430     -0.1145
     15  O7        53.0030    7.3830   29.1370 O.3   430  S3P430     -0.1145
     16  O8        53.8150    6.8220   26.8630 O.2   430  S3P430     -0.2224
@<TRIPOS>BOND
     1    11     7   ar
     2    16    13    2
     3    14    13    1
     4     7    12   ar
     5     7     1    1
     6    13     8    1
     7    13    15    1
     8     1     2    2
     9     1     6    1
    10     8     3    1
    11     2     3    1
    12     6     5    1
    13     3     4    1
    14     5     4    1
    15     5    10    1
    16     4     9    1
