@<TRIPOS>MOLECULE
3fk0_S3P_A_1.pdb
 16 16 0 0 0
SMALL
GASTEIGER

@<TRIPOS>ATOM
      1  C1        55.7430   11.9810   28.0020 C.2   428  S3P428      0.0583
      2  C2        54.6280   11.1330   28.2040 C.2   428  S3P428      0.0084
      3  C3        54.7540    9.8130   28.9560 C.3   428  S3P428      0.1809
      4  C4        56.0600    9.7750   29.8150 C.3   428  S3P428      0.2140
      5  C5        57.2810   10.2280   29.0170 C.3   428  S3P428      0.1895
      6  C6        57.0420   11.6620   28.5200 C.3   428  S3P428      0.0684
      7  C7        55.5400   13.2450   27.2240 C.2   428  S3P428      0.3837
      8  O1        54.5880    8.6260   27.9580 O.3   428  S3P428     -0.2655
      9  O2        56.2310    8.4620   30.3820 O.3   428  S3P428     -0.2174
     10  O3        58.4350   10.1900   29.8320 O.3   428  S3P428     -0.2200
     11  O4        54.5510   13.3030   26.4650 O.co2 428  S3P428     -0.2409
     12  O5        56.3370   14.1740   27.4040 O.co2 428  S3P428     -0.2409
     13  P1        53.1820    7.6700   27.6700 P.3   428  S3P428      0.5329
     14  O6        52.1310    8.4950   27.0860 O.3   428  S3P428     -0.1145
     15  O7        52.7600    7.1520   29.0030 O.3   428  S3P428     -0.1145
     16  O8        53.5360    6.5920   26.7630 O.2   428  S3P428     -0.2224
@<TRIPOS>BOND
     1    11     7   ar
     2    16    13    2
     3    14    13    1
     4     7    12   ar
     5     7     1    1
     6    13     8    1
     7    13    15    1
     8     8     3    1
     9     1     2    2
    10     1     6    1
    11     2     3    1
    12     6     5    1
    13     3     4    1
    14     5     4    1
    15     5    10    1
    16     4     9    1
