@<TRIPOS>MOLECULE
3fk1_S3P_A_1.pdb
 16 16 0 0 0
SMALL
GASTEIGER

@<TRIPOS>ATOM
      1  C1        56.1470   12.1220   28.0480 C.2   428  S3P428      0.0583
      2  C2        55.0510   11.2410   28.2140 C.2   428  S3P428      0.0084
      3  C3        55.1820    9.9440   29.0060 C.3   428  S3P428      0.1809
      4  C4        56.4410    9.9460   29.9120 C.3   428  S3P428      0.2140
      5  C5        57.6820   10.4380   29.1610 C.3   428  S3P428      0.1895
      6  C6        57.4220   11.8570   28.6440 C.3   428  S3P428      0.0684
      7  C7        55.9490   13.3870   27.2320 C.2   428  S3P428      0.3837
      8  O1        55.1020    8.7790   28.1190 O.3   428  S3P428     -0.2655
      9  O2        56.6270    8.6260   30.4650 O.3   428  S3P428     -0.2174
     10  O3        58.8050   10.4370   30.0450 O.3   428  S3P428     -0.2200
     11  O4        55.0300   13.4150   26.3770 O.co2 428  S3P428     -0.2409
     12  O5        56.6980   14.3340   27.4740 O.co2 428  S3P428     -0.2409
     13  P1        53.7640    7.8020   27.8180 P.3   428  S3P428      0.5329
     14  O6        52.6880    8.6370   27.2350 O.3   428  S3P428     -0.1145
     15  O7        53.3330    7.2300   29.1360 O.3   428  S3P428     -0.1145
     16  O8        54.1800    6.7460   26.8410 O.2   428  S3P428     -0.2224
@<TRIPOS>BOND
     1    11     7   ar
     2    16    13    2
     3     7    12   ar
     4     7     1    1
     5    14    13    1
     6    13     8    1
     7    13    15    1
     8     1     2    2
     9     1     6    1
    10     8     3    1
    11     2     3    1
    12     6     5    1
    13     3     4    1
    14     5     4    1
    15     5    10    1
    16     4     9    1
