@<TRIPOS>MOLECULE
3fk1_GPF_A_1.pdb
 10 9 0 0 0
SMALL
GASTEIGER

@<TRIPOS>ATOM
      1  C1        60.1760    7.9310   28.2330 C.3   429  GPF429      0.1476
      2  C2        60.4590    7.9900   30.6950 C.3   429  GPF429      0.2033
      3  C3        60.9730    8.8470   31.7490 C.2   429  GPF429      0.3823
      4  O1        60.6310   10.2720   27.1240 O.3   429  GPF429     -0.3562
      5  O2        59.5320    8.3940   25.8470 O.2   429  GPF429     -0.4587
      6  O3        62.0050    8.2870   26.4600 O.3   429  GPF429     -0.3562
      7  O4        61.5270    9.9790   31.4260 O.co2 429  GPF429     -0.2440
      8  P1        60.6030    8.7900   26.8280 P.3   429  GPF429      0.1347
      9  O5        60.8270    8.4300   32.8680 O.co2 429  GPF429     -0.2440
     10  N1        60.7100    8.5820   29.3970 N.3   429  GPF429     -0.1988
@<TRIPOS>BOND
     1     5     8    2
     2     6     8    1
     3     8     4    1
     4     8     1    1
     5     1    10    1
     6    10     2    1
     7     2     3    1
     8     7     3   ar
     9     3     9   ar
