@<TRIPOS>MOLECULE
3fk7_4DM_A_1.pdb
 28 31 0 0 0
SMALL
GASTEIGER

@<TRIPOS>ATOM
      1  C4        17.4710   -3.4040   31.6390 C.3   210  4DM210      0.0731
      2  C3        16.3170   -4.3530   31.8940 C.2   210  4DM210      0.1805
      3  O3        16.6440   -5.4640   32.5550 O.2   210  4DM210     -0.2911
      4  C2        15.0260   -4.1020   31.5140 C.2   210  4DM210      0.1287
      5  C1        14.7810   -2.9870   30.7670 C.2   210  4DM210      0.2144
      6  C5        16.5880   -1.1000   32.1000 C.3   210  4DM210      0.0263
      7  C6        16.1970    1.3840   32.2500 C.2   210  4DM210     -0.0287
      8  O12       15.1200   -1.0210   28.1990 O.2   210  4DM210     -0.2923
      9  C12       15.5230   -1.0400   29.3600 C.2   210  4DM210      0.1957
     10  C1B       15.6120    0.2410   30.1800 C.3   210  4DM210      0.1402
     11  C11       15.1910    1.4580   29.6350 C.2   210  4DM210      0.1865
     12  O11       14.7350    1.5330   28.4640 O.2   210  4DM210     -0.2905
     13  C1A       15.2720    2.6310   30.3920 C.ar  210  4DM210      0.0740
     14  C10       14.8410    3.8370   29.8280 C.ar  210  4DM210      0.1984
     15  O10       14.3500    3.8620   28.5550 O.3   210  4DM210     -0.2865
     16  C9        14.9090    5.0150   30.5750 C.ar  210  4DM210      0.0421
     17  C8        15.4110    4.9830   31.8890 C.ar  210  4DM210      0.0033
     18  C7        15.8420    3.7760   32.4550 C.ar  210  4DM210     -0.0000
     19  C61       15.7750    2.5950   31.7060 C.ar  210  4DM210      0.0014
     20  C62       16.7380    1.3610   33.6570 C.3   210  4DM210      0.0304
     21  C51       16.1200    0.2120   31.4920 C.2   210  4DM210     -0.0341
     22  C1C       15.9080   -2.3710   29.9790 C.3   210  4DM210      0.2328
     23  O1        13.6970   -2.4170   30.7430 O.2   210  4DM210     -0.2881
     24  O1C       16.3270   -3.3000   28.9520 O.3   210  4DM210     -0.2101
     25  C41       17.0070   -2.1010   31.0120 C.3   210  4DM210      0.0538
     26  C21       14.0390   -4.9630   31.9260 C.2   210  4DM210      0.2899
     27  O21       14.3270   -5.9630   32.5970 O.2   210  4DM210     -0.2665
     28  N21       12.8190   -4.7690   31.6190 N.am  210  4DM210     -0.0835
@<TRIPOS>BOND
     1     8     9    2
     2    12    11    2
     3    15    14    1
     4    24    22    1
     5     9    22    1
     6     9    10    1
     7    11    10    1
     8    11    13    1
     9    14    13   ar
    10    14    16   ar
    11    22     5    1
    12    22    25    1
    13    10    21    1
    14    13    19   ar
    15    16    17   ar
    16    23     5    2
    17     5     4    1
    18    25     1    1
    19    25     6    1
    20    21     6    1
    21    21     7    2
    22     4     2    2
    23     4    26    1
    24    28    26   am
    25     1     2    1
    26    19     7    1
    27    19    18   ar
    28    17    18   ar
    29     2     3    1
    30    26    27    2
    31     7    20    1
