@<TRIPOS>MOLECULE
3fkb_TNV_D_1.pdb
 27 28 0 0 0
SMALL
GASTEIGER

@<TRIPOS>ATOM
      1  PA         1.6060  -18.4670    3.7020 P.3   160  TNV160      0.4035
      2  O1A        1.8350  -18.8380    2.2790 O.2   160  TNV160     -0.2526
      3  O2A        1.2590  -17.0500    3.9710 O.3   160  TNV160     -0.1374
      4  O3A        2.9340  -18.8020    4.5270 O.3   160  TNV160     -0.2466
      5  PB         3.8820  -20.0450    4.1570 P.3   160  TNV160      0.2296
      6  O1B        5.1210  -19.6540    4.8760 O.3   160  TNV160     -0.4368
      7  O2B        3.9530  -19.9780    2.6750 O.2   160  TNV160     -0.5167
      8  O3B        3.1590  -21.2170    4.7180 O.3   160  TNV160     -0.2258
      9  PG         2.6190  -22.4370    3.8140 P.3   160  TNV160      0.5373
     10  O1G        3.7570  -23.1400    3.1970 O.3   160  TNV160     -0.1143
     11  O2G        1.8860  -23.3950    4.6900 O.3   160  TNV160     -0.1143
     12  O3G        1.6720  -21.9200    2.6810 O.2   160  TNV160     -0.2221
     13  C9'        0.2300  -19.4540    4.2640 C.3   160  TNV160      0.2606
     14  O9'        0.0600  -19.3130    5.6220 O.3   160  TNV160     -0.3403
     15  C8'       -1.2960  -21.4040    6.1670 C.3   160  TNV160      0.0365
     16  C7'       -0.0920  -20.4690    6.4830 C.3   160  TNV160      0.1627
     17  C6'       -0.0970  -19.8680    7.9850 C.3   160  TNV160      0.2336
     18  N9        -1.4060  -19.7240    8.6030 N.pl3 160  TNV160     -0.1652
     19  C4        -2.0060  -20.5320    9.5550 C.2   160  TNV160      0.3501
     20  N3        -1.5440  -21.7630   10.0010 N.2   160  TNV160     -0.0055
     21  C2        -2.3660  -22.3040   10.9560 C.3   160  TNV160      0.5254
     22  N1        -3.5370  -21.7580   11.4630 N.2   160  TNV160      0.0021
     23  C6        -3.9770  -20.5180   10.9910 C.2   160  TNV160      0.4393
     24  N6        -5.1180  -20.0450   11.5010 N.pl3 160  TNV160      0.2180
     25  C5        -3.1740  -19.8370    9.9690 C.2   160  TNV160      0.2525
     26  N7        -3.2810  -18.6190    9.2890 N.2   160  TNV160     -0.2096
     27  C8        -2.1850  -18.5770    8.5370 C.3   160  TNV160      0.3359
@<TRIPOS>BOND
     1     2     1    2
     2     7     5    2
     3    12     9    2
     4    10     9    1
     5     1     3    1
     6     1    13    1
     7     1     4    1
     8     9    11    1
     9     9     8    1
    10     5     4    1
    11     5     8    1
    12     5     6    1
    13    13    14    1
    14    14    16    1
    15    15    16    1
    16    16    17    1
    17    17    18    1
    18    27    18    1
    19    27    26    1
    20    18    19    1
    21    26    25    2
    22    19    25    1
    23    19    20    2
    24    25    23    1
    25    20    21    1
    26    21    22    1
    27    23    22    2
    28    23    24    1
