@<TRIPOS>MOLECULE
3fkb_TNM_A_1.pdb
 23 24 0 0 0
SMALL
GASTEIGER

@<TRIPOS>ATOM
      1  PA        14.3060   17.2600   -9.0980 P.3   160  TNM160      0.4065
      2  O1A       12.8910   16.8390   -8.9060 O.3   160  TNM160     -0.1373
      3  O2A       15.3220   16.1780   -9.1810 O.2   160  TNM160     -0.2525
      4  O3A       14.7100   18.2080   -7.8780 O.3   160  TNM160     -0.2013
      5  PB        13.6260   18.7330   -6.8220 P.3   160  TNM160      0.5389
      6  O1B       13.3870   17.5220   -5.9940 O.3   160  TNM160     -0.1143
      7  O2B       12.4970   19.1470   -7.7000 O.2   160  TNM160     -0.2220
      8  O3B       14.3540   19.8390   -6.1470 O.3   160  TNM160     -0.1143
      9  C9'       14.3590   18.1460  -10.6500 C.3   160  TNM160      0.2607
     10  O9'       15.6000   18.7100  -10.8380 O.3   160  TNM160     -0.3403
     11  C8'       15.3630   20.9460  -11.8940 C.3   160  TNM160      0.0365
     12  C7'       15.8430   20.1250  -10.6610 C.3   160  TNM160      0.1627
     13  C6'       17.4440   20.1300  -10.4750 C.3   160  TNM160      0.2336
     14  N9        18.2010   19.8410  -11.6810 N.pl3 160  TNM160     -0.1652
     15  C4        18.9410   20.7040  -12.4680 C.2   160  TNM160      0.3501
     16  N3        18.9680   22.0870  -12.3770 N.2   160  TNM160     -0.0055
     17  C2        19.8420   22.6370  -13.2790 C.3   160  TNM160      0.5254
     18  N1        20.5780   21.9710  -14.2490 N.2   160  TNM160      0.0021
     19  C6        20.5100   20.5810  -14.3310 C.2   160  TNM160      0.4393
     20  N6        21.2230   19.9900  -15.2930 N.pl3 160  TNM160      0.2180
     21  C5        19.6340   19.8760  -13.3940 C.2   160  TNM160      0.2525
     22  N7        19.3160   18.5350  -13.1790 N.2   160  TNM160     -0.2096
     23  C8        18.5150   18.5650  -12.1240 C.3   160  TNM160      0.3359
@<TRIPOS>BOND
     1    20    19    1
     2    19    18    2
     3    19    21    1
     4    18    17    1
     5    21    22    2
     6    21    15    1
     7    17    16    1
     8    22    23    1
     9    15    16    2
    10    15    14    1
    11    23    14    1
    12    11    12    1
    13    14    13    1
    14    10    12    1
    15    10     9    1
    16    12    13    1
    17     9     1    1
    18     3     1    2
    19     1     2    1
    20     1     4    1
    21     4     5    1
    22     7     5    2
    23     5     8    1
    24     5     6    1
