@<TRIPOS>MOLECULE
3fkg_HEM_A_1.pdb
 43 50 0 0 0
SMALL
GASTEIGER

@<TRIPOS>ATOM
      1  CHA       45.5090   40.4190   -1.6640 C.2   350  HEM350      0.0000
      2  CHB       49.2420   37.7630    0.0420 C.2   350  HEM350      0.0000
      3  CHC       51.5270   41.8770    1.3000 C.2   350  HEM350      0.0000
      4  CHD       47.9430   44.5450   -0.6480 C.2   350  HEM350      0.0000
      5  C1A       46.3510   39.3510   -1.3940 C.2   350  HEM350      0.0000
      6  C2A       46.0450   37.9540   -1.6860 C.2   350  HEM350      0.0000
      7  C3A       47.0460   37.2170   -1.1600 C.2   350  HEM350      0.0000
      8  C4A       48.0460   38.1150   -0.5970 C.2   350  HEM350      0.0000
      9  CMA       47.2300   35.7070   -1.2970 C.3   350  HEM350      0.0000
     10  CAA       44.7820   37.4610   -2.4230 C.3   350  HEM350      0.0000
     11  CBA       45.0700   37.2430   -3.9260 C.3   350  HEM350      0.0000
     12  CGA       43.8660   36.5700   -4.5870 C.2   350  HEM350      0.0000
     13  O1A       43.6870   35.3600   -4.3740 O.co2 350  HEM350      0.0000
     14  O2A       43.0090   37.2220   -5.2210 O.co2 350  HEM350      0.0000
     15  C1B       50.1370   38.6490    0.6130 C.ar  350  HEM350      0.0000
     16  C2B       51.3890   38.2860    1.2580 C.ar  350  HEM350      0.0000
     17  C3B       52.0080   39.4060    1.6650 C.ar  350  HEM350      0.0000
     18  C4B       51.2140   40.5300    1.1890 C.ar  350  HEM350      0.0000
     19  CMB       51.8320   36.8390    1.4910 C.3   350  HEM350      0.0000
     20  CAB       53.3620   39.4660    2.3980 C.2   350  HEM350      0.0000
     21  CBB       53.7560   40.5220    3.1240 C.2   350  HEM350      0.0000
     22  C1C       50.8030   42.9340    0.7650 C.2   350  HEM350      0.0000
     23  C2C       51.2200   44.3170    0.8390 C.2   350  HEM350      0.0000
     24  C3C       50.3030   45.0890    0.2410 C.2   350  HEM350      0.0000
     25  C4C       49.1910   44.2070   -0.1510 C.2   350  HEM350      0.0000
     26  CMC       52.5690   44.7930    1.3520 C.3   350  HEM350      0.0000
     27  CAC       50.3890   46.6300    0.1670 C.2   350  HEM350      0.0000
     28  CBC       49.8260   47.2060   -0.8780 C.2   350  HEM350      0.0000
     29  C1D       46.9140   43.6730   -0.9540 C.ar  350  HEM350      0.0000
     30  C2D       45.5620   44.0870   -1.3540 C.ar  350  HEM350      0.0000
     31  C3D       44.8200   42.8200   -1.6770 C.ar  350  HEM350      0.0000
     32  C4D       45.7980   41.7650   -1.5410 C.ar  350  HEM350      0.0000
     33  CMD       44.9500   45.4760   -1.2680 C.3   350  HEM350      0.0000
     34  CAD       43.3450   42.7400   -2.1610 C.3   350  HEM350      0.0000
     35  CBD       43.2960   42.3790   -3.6640 C.3   350  HEM350      0.0000
     36  CGD       41.8370   42.2220   -4.1320 C.2   350  HEM350      0.0000
     37  O1D       41.5090   41.6620   -5.2610 O.co2 350  HEM350      0.0000
     38  O2D       40.9410   42.6200   -3.3340 O.co2 350  HEM350      0.0000
     39  NA        47.5850   39.4150   -0.7770 N.2   350  HEM350      0.0000
     40  NB        50.1380   40.0340    0.4920 N.ar  350  HEM350      0.0000
     41  NC        49.5390   42.9110    0.1580 N.2   350  HEM350      0.0000
     42  ND        46.9630   42.2800   -0.9970 N.ar  350  HEM350      0.0000
     43 FE         48.3970   41.1400    0.0450 Fe    350  HEM350      0.0000
@<TRIPOS>BOND
     1    37    36   ar
     2    14    12   ar
     3    12    13   ar
     4    12    11    1
     5    36    35    1
     6    36    38   ar
     7    11    10    1
     8    35    34    1
     9    10     6    1
    10    34    31    1
    11     6     5    1
    12     6     7    2
    13    31    32   ar
    14    31    30   ar
    15     1    32    2
    16     1     5    1
    17    32    42   ar
    18     5    39    2
    19    30    33    1
    20    30    29   ar
    21     9     7    1
    22     7     8    1
    23    42    29   ar
    24    42    43    1
    25    29     4    2
    26    28    27    2
    27    39     8    1
    28    39    43    1
    29     4    25    1
    30     8     2    2
    31    25    41    2
    32    25    24    1
    33     2    15    1
    34    43    41    1
    35    43    40    1
    36    41    22    1
    37    27    24    1
    38    24    23    2
    39    40    15   ar
    40    40    18   ar
    41    15    16   ar
    42    22    23    1
    43    22     3    2
    44    23    26    1
    45    18     3    1
    46    18    17   ar
    47    16    19    1
    48    16    17   ar
    49    17    20    1
    50    20    21    2
