@<TRIPOS>MOLECULE
3fkl_FKL_A_1.pdb
 32 36 0 0 0
SMALL
GASTEIGER

@<TRIPOS>ATOM
      1  N1        22.5570    7.0340   30.1970 N.2   361  FKL361     -0.1685
      2  N3        23.3160    9.1210   30.9830 N.2   361  FKL361     -0.3182
      3  C4        21.3490    7.5590   29.9240 C.2   361  FKL361      0.1158
      4  C5        21.0970    8.9050   30.1920 C.ar  361  FKL361      0.0676
      5  C6        22.1190    9.6810   30.7270 C.ar  361  FKL361      0.2117
      6  C8        20.6520   11.6240   30.7360 C.ar  361  FKL361      0.2627
      7  C10       19.8490    9.4780   29.9280 C.ar  361  FKL361      0.0104
      8  C15       18.1700   12.2940   28.8050 C.ar  361  FKL361      0.0044
      9  C17       15.8270   12.6380   29.2800 C.ar  361  FKL361      0.0042
     10  C20       17.2430   10.2880   31.9060 C.3   361  FKL361      0.0310
     11  C21       16.8910   13.7850   27.2810 C.2   361  FKL361      0.2647
     12  C24       15.8680   15.6600   26.0240 C.3   361  FKL361      0.0957
     13  C26       14.4150   15.7330   25.5660 C.3   361  FKL361      0.0234
     14  C28       26.8380    7.1560   32.1730 C.3   361  FKL361      0.0546
     15  O22       17.7350   13.5830   26.4190 O.2   361  FKL361     -0.2684
     16  N23       15.9500   14.7390   27.1660 N.am  361  FKL361     -0.2034
     17  C25       15.4100   14.8690   24.8030 C.3   361  FKL361      0.0234
     18  C16       16.9460   12.8870   28.4860 C.ar  361  FKL361      0.0550
     19  C18       15.9430   11.7940   30.3860 C.ar  361  FKL361     -0.0041
     20  C19       17.1670   11.1990   30.7020 C.ar  361  FKL361     -0.0217
     21  C14       18.2910   11.4470   29.9100 C.ar  361  FKL361      0.0008
     22  C9        19.6260   10.8360   30.2030 C.ar  361  FKL361      0.0561
     23  O13       20.4680   12.8380   30.9830 O.2   361  FKL361     -0.2669
     24  N7        21.9130   11.0510   31.0030 N.ar  361  FKL361     -0.2681
     25  C12       23.0020   11.8560   31.5750 C.3   361  FKL361      0.1361
     26  C2        23.5430    7.8100   30.7160 C.1   361  FKL361      0.1666
     27  N11       24.7620    7.2770   30.9890 N.pl3 361  FKL361     -0.1637
     28  C27       25.8310    8.1120   31.5230 C.3   361  FKL361      0.1097
     29  C32       26.4710    8.7890   30.3120 C.3   361  FKL361      0.0546
     30  C31       27.7880    9.4580   30.7100 C.3   361  FKL361      0.1440
     31  O30       28.6530    8.5060   31.3310 O.3   361  FKL361     -0.3537
     32  C29       28.1080    7.9300   32.5240 C.3   361  FKL361      0.1440
@<TRIPOS>BOND
     1    17    13    1
     2    17    12    1
     3    13    12    1
     4    12    16    1
     5    15    11    2
     6    16    11   am
     7    11    18    1
     8    18     8   ar
     9    18     9   ar
    10     8    21   ar
    11     9    19   ar
    12    21    22    1
    13    21    20   ar
    14     3     4    2
    15     3     1    1
    16     7     4   ar
    17     7    22   ar
    18     4     5   ar
    19     1    26    2
    20    22     6   ar
    21    29    30    1
    22    29    28    1
    23    19    20   ar
    24    20    10    1
    25    30    31    1
    26    26     2    2
    27    26    27    1
    28     5     2    2
    29     5    24   ar
    30     6    23    2
    31     6    24   ar
    32    27    28    1
    33    24    25    1
    34    31    32    1
    35    28    14    1
    36    14    32    1
