@<TRIPOS>MOLECULE
3fkn_FKN_A_1.pdb
 29 32 0 0 0
SMALL
GASTEIGER

@<TRIPOS>ATOM
      1  C5        22.3660    9.3590   31.1650 C.2   361  FKN361      0.1158
      2  C6        21.0190    8.9180   30.7580 C.1   361  FKN361      0.1239
      3  C13       15.8220   11.4510   29.7020 C.ar  361  FKN361      0.0330
      4  C15       15.9930   10.4450   31.8930 C.ar  361  FKN361      0.0624
      5  C20       26.9870    8.6250   31.0810 C.ar  361  FKN361      0.0128
      6  C21       27.3340    7.8090   32.1560 C.ar  361  FKN361      0.0192
      7  C22       26.3390    7.1460   32.8760 C.ar  361  FKN361      0.1058
      8  C28       27.4170    4.7870   33.5970 C.3   361  FKN361      0.1816
      9  O29       27.6850    6.9380   34.9130 O.2   361  FKN361     -0.1686
     10  S26       26.7360    6.2120   34.1140 S.O2  361  FKN361      0.0105
     11  O27       25.5830    5.8970   34.9070 O.2   361  FKN361     -0.1686
     12  C19       25.6420    8.7870   30.7370 C.ar  361  FKN361      0.0593
     13 CL24       25.2000    9.8310   29.3620 Cl    361  FKN361     -0.0822
     14  C23       25.0000    7.3120   32.5210 C.ar  361  FKN361      0.0208
     15  C18       24.6500    8.1360   31.4500 C.ar  361  FKN361      0.0320
     16  C9        23.2020    8.2500   31.1170 C.2   361  FKN361      0.1163
     17  C1        22.5610   10.6910   31.4980 C.2   361  FKN361      0.1260
     18  N8        22.4360    7.2030   30.7160 N.2   361  FKN361     -0.1375
     19  N7        21.1060    7.6130   30.4940 N.2   361  FKN361     -0.0807
     20  N4        20.0200    9.8280   30.7230 N.2   361  FKN361     -0.2639
     21  C3        20.2580   11.1180   31.0570 C.1   361  FKN361      0.2662
     22  N2        21.5040   11.5210   31.4280 N.2   361  FKN361     -0.1500
     23  O10       19.2160   12.0250   31.0210 O.3   361  FKN361     -0.3805
     24  C11       17.9010   11.5950   30.9520 C.ar  361  FKN361      0.1877
     25  C16       17.3160   10.8730   31.9950 C.ar  361  FKN361      0.1777
     26  F25       18.0060   10.5780   33.1180 F     361  FKN361     -0.2008
     27  C14       15.2450   10.7340   30.7510 C.ar  361  FKN361      0.1426
     28  F17       13.9750   10.3020   30.6630 F     361  FKN361     -0.2041
     29  C12       17.1510   11.8800   29.8070 C.ar  361  FKN361      0.0433
@<TRIPOS>BOND
     1    13    12    1
     2     3    29   ar
     3     3    27   ar
     4    29    24   ar
     5    19    18    1
     6    19     2    2
     7    28    27    1
     8    18    16    2
     9    20     2    2
    10    20    21    2
    11    12     5   ar
    12    12    15   ar
    13    27     4   ar
    14     2     1    1
    15    24    23    1
    16    24    25   ar
    17    23    21    1
    18    21    22    2
    19     5     6   ar
    20    16     1    1
    21    16    15    1
    22     1    17    2
    23    22    17    1
    24    15    14   ar
    25     4    25   ar
    26    25    26    1
    27     6     7   ar
    28    14     7   ar
    29     7    10    1
    30     8    10    1
    31    10    11    2
    32    10     9    2
