@<TRIPOS>MOLECULE
3fko_FKO_A_1.pdb
 24 27 0 0 0
SMALL
GASTEIGER

@<TRIPOS>ATOM
      1  FAA       40.3630   54.5470   94.9070 F     361  FKO361     -0.2009
      2  CAQ       39.7530   54.9050   93.7660 C.ar  361  FKO361      0.1744
      3  CAG       38.4210   54.5280   93.5660 C.ar  361  FKO361      0.0328
      4  CAC       37.7640   54.8830   92.3880 C.ar  361  FKO361      0.0025
      5  CAE       38.4470   55.6120   91.4130 C.ar  361  FKO361      0.0033
      6  CAI       39.7790   55.9870   91.6170 C.ar  361  FKO361      0.0398
      7  CAT       40.4450   55.6310   92.7910 C.ar  361  FKO361      0.1721
      8  OAP       41.7650   56.0130   92.9720 O.3   361  FKO361     -0.4551
      9  CAS       42.8300   55.1350   92.9430 C.2   361  FKO361      0.1288
     10  CAM       42.6590   53.8370   92.4650 C.2   361  FKO361      0.0542
     11  CAK       44.0990   55.5380   93.3880 C.3   361  FKO361      0.0906
     12  CAL       45.1900   54.6540   93.3600 C.2   361  FKO361     -0.0150
     13  CAX       44.9940   53.3560   92.8820 C.2   361  FKO361      0.0351
     14  CAW       43.7330   52.9550   92.4410 C.2   361  FKO361      0.1067
     15  NAO       43.8260   51.6750   92.0450 N.2   361  FKO361     -0.1479
     16  NAN       45.1490   51.2590   92.2290 N.2   361  FKO361     -0.1479
     17  CAV       45.8740   52.2780   92.7400 C.2   361  FKO361      0.1048
     18  CAU       47.2380   52.1780   93.0560 C.ar  361  FKO361      0.0300
     19  CAR       48.2150   52.9060   92.3860 C.ar  361  FKO361      0.0592
     20 CLB        47.7670   54.0460   91.0810 Cl    361  FKO361     -0.0822
     21  CAJ       47.6280   51.3020   94.0730 C.ar  361  FKO361      0.0024
     22  CAF       48.9720   51.1580   94.4240 C.ar  361  FKO361      0.0001
     23  CAD       49.9410   51.8990   93.7510 C.ar  361  FKO361      0.0009
     24  CAH       49.5580   52.7740   92.7350 C.ar  361  FKO361      0.0114
@<TRIPOS>BOND
     1    20    19    1
     2     5     6   ar
     3     5     4   ar
     4     6     7   ar
     5    15    16    1
     6    15    14    2
     7    16    17    2
     8    19    24   ar
     9    19    18   ar
    10     4     3   ar
    11    14    10    1
    12    14    13    1
    13    10     9    2
    14    24    23   ar
    15    17    13    1
    16    17    18    1
    17     7     8    1
    18     7     2   ar
    19    13    12    2
    20     9     8    1
    21     9    11    1
    22    18    21   ar
    23    12    11    1
    24     3     2   ar
    25    23    22   ar
    26     2     1    1
    27    21    22   ar
