@<TRIPOS>MOLECULE
3fkq_ATP_A_1.pdb
 31 33 0 0 0
SMALL
GASTEIGER

@<TRIPOS>ATOM
      1  PG         0.6060   56.2820   26.2770 P.3   500  ATP500      0.5373
      2  O1G       -0.8720   56.1870   26.1290 O.3   500  ATP500     -0.1143
      3  O2G        1.3630   57.1070   25.2780 O.2   500  ATP500     -0.2221
      4  O3G        1.0590   56.4230   27.7160 O.3   500  ATP500     -0.1143
      5  PB         1.4130   54.2870   24.4250 P.3   500  ATP500      0.2277
      6  O1B        2.5980   54.9570   23.8530 O.3   500  ATP500     -0.4368
      7  O2B        0.1660   53.9950   23.5720 O.2   500  ATP500     -0.5168
      8  O3B        1.0570   54.7550   25.8990 O.3   500  ATP500     -0.2258
      9  PA         3.3970   52.3610   25.0680 P.3   500  ATP500      0.2189
     10  O1A        3.9070   52.9610   26.3330 O.3   500  ATP500     -0.4371
     11  O2A        4.2780   52.3770   23.8340 O.2   500  ATP500     -0.5170
     12  O3A        1.9150   52.7520   24.7120 O.3   500  ATP500     -0.2700
     13  O5'        3.1480   50.8060   25.4400 O.3   500  ATP500     -0.3112
     14  C5'        2.0880   50.5030   26.3340 C.3   500  ATP500      0.1813
     15  C4'        2.2700   49.0980   26.8860 C.3   500  ATP500      0.1821
     16  O4'        1.9900   48.1670   25.8570 O.3   500  ATP500     -0.3135
     17  C3'        3.6920   48.8130   27.3170 C.3   500  ATP500      0.2184
     18  O3'        3.5900   47.9970   28.4550 O.3   500  ATP500     -0.2174
     19  C2'        4.3080   48.0970   26.1380 C.3   500  ATP500      0.2570
     20  O2'        5.3600   47.1970   26.4880 O.3   500  ATP500     -0.2130
     21  C1'        3.1200   47.3250   25.6480 C.3   500  ATP500      0.3186
     22  N9         3.1160   46.9280   24.2370 N.pl3 500  ATP500     -0.1439
     23  C8         3.2940   47.7190   23.1780 C.3   500  ATP500      0.3377
     24  N7         3.1700   47.0200   22.0210 N.2   500  ATP500     -0.2095
     25  C5         2.9240   45.7490   22.3510 C.2   500  ATP500      0.2526
     26  C6         2.7220   44.4950   21.6130 C.2   500  ATP500      0.4393
     27  N6         2.7320   44.4970   20.2610 N.pl3 500  ATP500      0.2180
     28  N1         2.4790   43.3780   22.3460 N.2   500  ATP500      0.0021
     29  C2         2.4410   43.3900   23.6990 C.3   500  ATP500      0.5254
     30  N3         2.6280   44.5000   24.4250 N.2   500  ATP500     -0.0055
     31  C4         2.8790   45.6880   23.8180 C.2   500  ATP500      0.3518
@<TRIPOS>BOND
     1    27    26    1
     2    26    28    2
     3    26    25    1
     4    24    25    2
     5    24    23    1
     6    28    29    1
     7    25    31    1
     8    23    22    1
     9     7     5    2
    10    29    30    1
    11    31    22    1
    12    31    30    2
    13    11     9    2
    14     6     5    1
    15    22    21    1
    16     5    12    1
    17     5     8    1
    18    12     9    1
    19     9    13    1
    20     9    10    1
    21     3     1    2
    22    13    14    1
    23    21    16    1
    24    21    19    1
    25    16    15    1
    26     8     1    1
    27     2     1    1
    28    19    20    1
    29    19    17    1
    30     1     4    1
    31    14    15    1
    32    15    17    1
    33    17    18    1
