@<TRIPOS>MOLECULE
3fks_III_1_1.pdb
 50 49 0 0 0
SMALL
GASTEIGER

@<TRIPOS>ATOM
      1  N         71.9270  -21.0720  104.5260 N.3    34  VAL34      -0.1231
      2  CA        71.8290  -20.2080  105.6960 C.3    34  VAL34       0.1694
      3  C         72.5070  -20.8350  106.9100 C.2    34  VAL34       0.2592
      4  O         73.1300  -20.1410  107.7130 O.2    34  VAL34      -0.2718
      5  CB        70.3630  -19.8930  106.0440 C.3    34  VAL34       0.0304
      6  N         72.3810  -22.1520  107.0400 N.am   35  LEU35      -0.1966
      7  CA        72.9790  -22.8720  108.1590 C.3    35  LEU35       0.1728
      8  C         73.7440  -24.1020  107.6840 C.2    35  LEU35       0.2616
      9  O         74.8390  -24.3890  108.1680 O.2    35  LEU35      -0.2715
     10  CB        71.9060  -23.2790  109.1710 C.3    35  LEU35       0.0334
     11  N         73.1570  -24.8260  106.7360 N.am   36  ASN36      -0.1963
     12  CA        73.7800  -26.0240  106.1870 C.3    36  ASN36       0.1728
     13  C         73.2750  -26.3300  104.7810 C.2    36  ASN36       0.2616
     14  O         72.1230  -26.0470  104.4530 O.2    36  ASN36      -0.2715
     15  CB        73.5430  -27.2230  107.1070 C.3    36  ASN36       0.0334
     16  N         74.1410  -26.9090  103.9550 N.am   37  ARG37      -0.1963
     17  CA        73.7870  -27.2110  102.5720 C.3    37  ARG37       0.1728
     18  C         74.1560  -28.6380  102.1790 C.2    37  ARG37       0.2616
     19  O         73.5180  -29.2340  101.3120 O.2    37  ARG37      -0.2715
     20  CB        74.4570  -26.2180  101.6210 C.3    37  ARG37       0.0334
     21  N         75.1850  -29.1820  102.8210 N.am   38  SER38      -0.1963
     22  CA        75.6620  -30.5230  102.5010 C.3    38  SER38       0.1728
     23  C         75.0030  -31.5920  103.3690 C.2    38  SER38       0.2616
     24  O         75.0820  -31.5450  104.5970 O.2    38  SER38      -0.2715
     25  CB        77.1840  -30.5970  102.6410 C.3    38  SER38       0.0334
     26  N         74.3570  -32.5560  102.7210 N.am   39  GLN39      -0.1963
     27  CA        73.7080  -33.6570  103.4240 C.3    39  GLN39       0.1728
     28  C         73.5690  -34.8750  102.5150 C.2    39  GLN39       0.2616
     29  O         72.4590  -35.3210  102.2240 O.2    39  GLN39      -0.2715
     30  CB        72.3340  -33.2270  103.9420 C.3    39  GLN39       0.0334
     31  N         74.7020  -35.4080  102.0690 N.am   40  THR40      -0.1963
     32  CA        74.7080  -36.5490  101.1600 C.3    40  THR40       0.1728
     33  C         74.1930  -37.8120  101.8420 C.2    40  THR40       0.2616
     34  O         74.7270  -38.2380  102.8670 O.2    40  THR40      -0.2715
     35  CB        76.1180  -36.8190  100.6000 C.3    40  THR40       0.0334
     36  N         73.1540  -38.4070  101.2640 N.am   41  ASP41      -0.1963
     37  CA        72.5620  -39.6240  101.8090 C.3    41  ASP41       0.1728
     38  C         72.4720  -40.7260  100.7530 C.2    41  ASP41       0.2616
     39  O         71.5090  -41.4940  100.7210 O.2    41  ASP41      -0.2715
     40  CB        71.1780  -39.3320  102.3920 C.3    41  ASP41       0.0334
     41  N         73.4800  -40.7960   99.8910 N.am   42  ALA42      -0.1963
     42  CA        73.5180  -41.8050   98.8390 C.3    42  ALA42       0.1728
     43  C         74.0320  -43.1350   99.3800 C.2    42  ALA42       0.2616
     44  O         75.2260  -43.4250   99.3070 O.2    42  ALA42      -0.2715
     45  CB        74.3820  -41.3300   97.6790 C.3    42  ALA42       0.0334
     46  N         73.1250  -43.9380   99.9250 N.am   43  PHE43      -0.1977
     47  CA        73.4900  -45.2370  100.4790 C.3    43  PHE43       0.1597
     48  C         72.5630  -46.3410   99.9780 C.2    43  PHE43       0.2287
     49  O         72.8320  -47.5270  100.1770 O.2    43  PHE43      -0.2864
     50  CB        73.4710  -45.1920  102.0090 C.3    43  PHE43       0.0319
@<TRIPOS>BOND
     1    45    42    1
     2    42    43    1
     3    42    41    1
     4    44    43    2
     5    43    46   am
     6    41    38   am
     7    46    47    1
     8    48    49    2
     9    48    47    1
    10    47    50    1
    11    35    32    1
    12    39    38    2
    13    38    37    1
    14    32    33    1
    15    32    31    1
    16    36    37    1
    17    36    33   am
    18    19    18    2
    19    20    17    1
    20    37    40    1
    21    33    34    2
    22    31    28   am
    23    18    17    1
    24    18    21   am
    25    29    28    2
    26    22    25    1
    27    22    21    1
    28    22    23    1
    29    28    27    1
    30    17    16    1
    31    26    23   am
    32    26    27    1
    33    23    24    2
    34    27    30    1
    35    16    13   am
    36    14    13    2
    37     1     2    1
    38    13    12    1
    39     2     5    1
    40     2     3    1
    41    12    11    1
    42    12    15    1
    43    11     8   am
    44     3     6   am
    45     3     4    2
    46     6     7    1
    47     8     7    1
    48     8     9    2
    49     7    10    1
