@<TRIPOS>MOLECULE
3fkt_SII_A_1.pdb
 36 40 0 0 0
SMALL
GASTEIGER

@<TRIPOS>ATOM
      1  C1        34.8350   41.6210   -0.0400 C.ar  406  SII406      0.0163
      2  C2        34.4260   42.9580    0.0910 C.ar  406  SII406      0.0733
      3  C3        33.5250   43.4020    1.0740 C.ar  406  SII406      0.0163
      4  C7        32.8660   40.0550    2.7710 C.3   406  SII406      0.0991
      5  C8        34.2920   44.9160   -1.4700 C.2   406  SII406      0.2461
      6  C9        34.8910   45.4960   -2.7380 C.3   406  SII406      0.0968
      7  C10       31.5780   39.8480   -2.2250 C.ar  406  SII406      0.0452
      8  C11       30.4730   40.3190   -1.5080 C.ar  406  SII406      0.0654
      9  C12       30.2770   41.6920   -1.3130 C.ar  406  SII406      0.0157
     10  C13       31.1740   42.6420   -1.8010 C.ar  406  SII406      0.0036
     11  C14       32.2830   42.1860   -2.5060 C.ar  406  SII406      0.0297
     12  C15       32.4610   40.8160   -2.7000 C.ar  406  SII406      0.1414
     13  C16       29.1670   39.7340    1.3990 C.3   406  SII406      0.0450
     14  C19       31.9090   38.4130    1.1060 C.3   406  SII406      0.0745
     15  C20       30.4720   40.2690    2.0240 C.3   406  SII406      0.0745
     16  C21       28.2140   37.9180   -0.0620 C.2   406  SII406      0.2072
     17  C22       28.5770   38.9670   -1.8740 C.1   406  SII406      0.2736
     18  C24       26.2760   35.0260   -0.0550 C.3   406  SII406      0.0216
     19  C27       24.0650   35.6830    1.8750 C.3   406  SII406      0.0018
     20  F1        33.4980   40.3460   -3.3670 F     406  SII406     -0.2041
     21  N1        34.9680   43.7710   -0.8350 N.am  406  SII406     -0.1792
     22  O1        33.2840   45.4210   -1.0090 O.2   406  SII406     -0.2730
     23  N2        31.6400   39.3290    2.2380 N.3   406  SII406     -0.2688
     24  O2        28.4450   39.2480   -3.0630 O.2   406  SII406     -0.1926
     25  N3        29.5930   39.4000   -1.0620 N.am  406  SII406     -0.2013
     26  C4        33.0130   42.4520    1.9730 C.ar  406  SII406     -0.0016
     27  N4        27.6930   38.1970   -1.2160 N.2   406  SII406     -0.3071
     28  C5        33.4280   41.1120    1.8430 C.ar  406  SII406     -0.0061
     29  N5        27.4540   37.1750    0.9480 N.pl3 406  SII406     -0.2131
     30  C6        34.3220   40.6820    0.8640 C.ar  406  SII406     -0.0016
     31  C17       29.4570   38.7550    0.2450 C.3   406  SII406      0.1379
     32  C18       30.6000   37.7760    0.6200 C.3   406  SII406      0.0450
     33  C23       25.3780   33.8980    0.4630 C.3   406  SII406      0.0018
     34  C25       26.5270   36.0520    1.0440 C.3   406  SII406      0.0948
     35  C26       25.2260   36.6530    1.5750 C.3   406  SII406      0.0216
     36  C28       24.0500   34.3910    1.0520 C.3   406  SII406      0.0001
@<TRIPOS>BOND
     1    20    12    1
     2    24    17    2
     3     6     5    1
     4    12    11   ar
     5    12     7   ar
     6    11    10   ar
     7     7     8   ar
     8    17    27    2
     9    17    25   am
    10    10     9   ar
    11     8     9   ar
    12     8    25    1
    13     5    22    2
    14     5    21   am
    15    27    16    2
    16    25    31    1
    17    21     2    1
    18    16    31    1
    19    16    29    1
    20    18    33    1
    21    18    34    1
    22     1     2   ar
    23     1    30   ar
    24     2     3   ar
    25    31    32    1
    26    31    13    1
    27    33    36    1
    28    32    14    1
    29    30    28   ar
    30    29    34    1
    31    34    35    1
    32    36    19    1
    33     3    26   ar
    34    14    23    1
    35    13    15    1
    36    35    19    1
    37    28    26   ar
    38    28     4    1
    39    15    23    1
    40    23     4    1
