@<TRIPOS>MOLECULE
3fkv_BZB_A_1.pdb
 12 13 0 0 0
SMALL
GASTEIGER

@<TRIPOS>ATOM
      1  B         26.2240    4.8290   16.4410 B     362  BZB362      0.0000
      2  O1        26.4520    5.7000   17.6170 O.3   362  BZB362      0.0000
      3  O2        25.2200    3.7530   16.7350 O.3   362  BZB362      0.0000
      4  C1        25.5950    5.6870   15.3190 C.ar  362  BZB362      0.0000
      5  C2        25.1940    7.0200   15.5230 C.ar  362  BZB362      0.0000
      6  C8        24.6310    6.4830   13.1850 C.ar  362  BZB362      0.0000
      7  C3        24.6270    7.4980   14.2700 C.ar  362  BZB362      0.0000
      8  C7        24.1250    6.7730   11.9200 C.ar  362  BZB362      0.0000
      9  S         25.3090    5.0280   13.7300 S.2   362  BZB362      0.0000
     10  C4        24.1110    8.7680   13.9920 C.ar  362  BZB362      0.0000
     11  C6        23.6110    8.0610   11.6990 C.ar  362  BZB362      0.0000
     12  C5        23.6080    9.0400   12.7100 C.ar  362  BZB362      0.0000
@<TRIPOS>BOND
     1    11     8   ar
     2    11    12   ar
     3     8     6   ar
     4    12    10   ar
     5     6     9   ar
     6     6     7   ar
     7     9     4   ar
     8    10     7   ar
     9     7     5   ar
    10     4     5   ar
    11     4     1    1
    12     1     3    1
    13     1     2    1
