@<TRIPOS>MOLECULE
3fl0_CGP_A_1.pdb
 20 21 0 0 0
SMALL
GASTEIGER

@<TRIPOS>ATOM
      1  P         15.3370   31.0040   25.9360 P.3   900  CGP900      0.5326
      2  O1P       15.5360   30.0610   24.7910 O.2   900  CGP900     -0.2224
      3  O2P       14.3630   30.6690   27.0570 O.3   900  CGP900     -0.1145
      4  O5B       17.8260   35.6450   25.8660 O.3   900  CGP900     -0.2176
      5  C5X       16.6450   35.3390   26.6840 C.3   900  CGP900      0.2140
      6  C4X       15.5420   34.7340   25.8290 C.3   900  CGP900      0.1775
      7  O4B       15.2440   35.6880   24.8040 O.3   900  CGP900     -0.3339
      8  C3X       15.8540   33.4200   25.0980 C.3   900  CGP900      0.1601
      9  O3B       14.8670   32.4370   25.4380 O.3   900  CGP900     -0.2700
     10  C2X       15.3220   33.5830   23.6900 C.3   900  CGP900      0.0847
     11  C1X       14.7510   34.9830   23.6940 C.3   900  CGP900      0.2089
     12  N1C       15.0820   35.6720   22.4720 N.am  900  CGP900     -0.1802
     13  CC2       14.4550   35.2250   21.3250 C.1   900  CGP900      0.2756
     14  N3C       14.6670   35.8960   20.1730 N.2   900  CGP900     -0.3024
     15  CC4       15.5140   36.9620   20.1590 C.2   900  CGP900      0.2346
     16  CC5       16.1920   37.4000   21.3260 C.2   900  CGP900      0.0687
     17  CC6       15.9540   36.7290   22.4500 C.2   900  CGP900      0.0835
     18  O2C       13.7270   34.1770   21.4290 O.2   900  CGP900     -0.1925
     19  N4C       15.7180   37.6340   19.0080 N.pl3 900  CGP900     -0.0921
     20  O5D       16.7530   31.3470   26.6000 O.3   900  CGP900     -0.1145
@<TRIPOS>BOND
     1    19    15    1
     2    15    14    2
     3    15    16    1
     4    14    13    2
     5    13    18    2
     6    13    12   am
     7    16    17    2
     8    17    12    1
     9    12    11    1
    10    10    11    1
    11    10     8    1
    12    11     7    1
    13     2     1    2
    14     7     6    1
    15     8     9    1
    16     8     6    1
    17     9     1    1
    18     6     5    1
    19     4     5    1
    20     1    20    1
    21     1     3    1
