@<TRIPOS>MOLECULE
3fl1_CGP_B_1.pdb
 22 24 0 0 0
SMALL
GASTEIGER

@<TRIPOS>ATOM
      1  P         12.0240   45.4770   16.1800 P.3   700  CGP700      0.3942
      2  O1P       13.4430   45.0360   15.9230 O.3   700  CGP700     -0.1425
      3  O2P       10.8970   44.6210   15.6680 O.3   700  CGP700     -0.1425
      4  O5D       11.8260   45.6960   17.7630 O.3   700  CGP700     -0.2926
      5  C5D       11.0390   44.7470   18.5450 C.3   700  CGP700      0.1829
      6  C4D       11.9340   43.8170   19.3510 C.3   700  CGP700      0.1773
      7  O4D       11.0540   42.8180   19.9200 O.3   700  CGP700     -0.3347
      8  C3D       12.9850   43.0260   18.5570 C.3   700  CGP700      0.1857
      9  O3D       14.2510   43.6630   18.6940 O.3   700  CGP700     -0.2203
     10  C2D       13.0950   41.6820   19.2660 C.3   700  CGP700      0.0865
     11  C1D       11.7490   41.5850   19.9860 C.3   700  CGP700      0.1981
     12  N9G       10.8600   40.4710   19.6670 N.pl3 700  CGP700     -0.2374
     13  C8G       10.2790   40.1280   18.4660 C.3   700  CGP700      0.2245
     14  N7G        9.5320   39.0500   18.5600 N.2   700  CGP700     -0.2322
     15  C5G        9.6430   38.6690   19.8980 C.2   700  CGP700      0.2182
     16  C6G        9.0920   37.5980   20.5850 C.1   700  CGP700      0.2372
     17  O6G        8.3890   36.6900   20.1440 O.2   700  CGP700     -0.2069
     18  N1G        9.4420   37.5990   21.9340 N.2   700  CGP700     -0.2485
     19  C2G       10.2250   38.5020   22.5370 C.1   700  CGP700      0.2531
     20  N2G       10.4110   38.3140   23.8680 N.pl3 700  CGP700     -0.0226
     21  N3G       10.7730   39.5170   21.9010 N.2   700  CGP700     -0.3074
     22  C4G       10.4440   39.5370   20.5920 C.2   700  CGP700      0.2299
@<TRIPOS>BOND
     1     3     1    1
     2     2     1    1
     3     1     4    1
     4     4     5    1
     5    13    14    1
     6    13    12    1
     7     5     6    1
     8     8     9    1
     9     8    10    1
    10     8     6    1
    11    14    15    2
    12    10    11    1
    13     6     7    1
    14    12    11    1
    15    12    22    1
    16    15    16    1
    17    15    22    1
    18     7    11    1
    19    17    16    2
    20    16    18    2
    21    22    21    2
    22    21    19    2
    23    18    19    2
    24    19    20    1
