@<TRIPOS>MOLECULE
3fl1_TRE_A_1.pdb
 23 24 0 0 0
SMALL
GASTEIGER

@<TRIPOS>ATOM
      1  C1        -8.1780   27.9320  -13.9590 C.3   1151  TRE1151     0.2713
      2  C2        -8.0060   26.5080  -14.4720 C.3   1151  TRE1151     0.2406
      3  C3        -6.6930   26.4040  -15.2310 C.3   1151  TRE1151     0.2198
      4  C4        -6.6250   27.4510  -16.3320 C.3   1151  TRE1151     0.2144
      5  C5        -6.9710   28.8200  -15.7520 C.3   1151  TRE1151     0.1835
      6  C6        -6.8640   29.9010  -16.8250 C.3   1151  TRE1151     0.2142
      7  O1        -7.0500   28.2250  -13.1170 O.3   1151  TRE1151    -0.3016
      8  O2        -8.0050   25.5980  -13.3610 O.3   1151  TRE1151    -0.2149
      9  O3        -6.6000   25.1040  -15.8410 O.3   1151  TRE1151    -0.2174
     10  O4        -5.2880   27.4580  -16.8650 O.3   1151  TRE1151    -0.2176
     11  O5        -8.2470   28.8110  -15.1000 O.3   1151  TRE1151    -0.3256
     12  O6        -7.6900   29.5740  -17.9520 O.3   1151  TRE1151    -0.2176
     13  C1P       -7.0620   29.5600  -12.5770 C.3   1151  TRE1151     0.2713
     14  C2P       -5.8520   29.8060  -11.6930 C.3   1151  TRE1151     0.2406
     15  C3P       -5.9540   28.9910  -10.4130 C.3   1151  TRE1151     0.2198
     16  C4P       -7.2500   29.3830   -9.7230 C.3   1151  TRE1151     0.2144
     17  C5P       -8.4150   29.0660  -10.6470 C.3   1151  TRE1151     0.1835
     18  C6P       -9.6970   29.5310   -9.9790 C.3   1151  TRE1151     0.2142
     19  O2P       -4.6140   29.5510  -12.3840 O.3   1151  TRE1151    -0.2149
     20  O3P       -4.8680   29.3690   -9.5600 O.3   1151  TRE1151    -0.2174
     21  O4P       -7.4110   28.6840   -8.4810 O.3   1151  TRE1151    -0.2176
     22  O5P       -8.2850   29.8250  -11.8560 O.3   1151  TRE1151    -0.3256
     23  O6P      -10.7040   29.4700  -10.9960 O.3   1151  TRE1151    -0.2176
@<TRIPOS>BOND
     1    12     6    1
     2    10     4    1
     3     6     5    1
     4     4     5    1
     5     4     3    1
     6     9     3    1
     7     5    11    1
     8     3     2    1
     9    11     1    1
    10     2     1    1
    11     2     8    1
    12     1     7    1
    13     7    13    1
    14    13    22    1
    15    13    14    1
    16    19    14    1
    17    22    17    1
    18    14    15    1
    19    23    18    1
    20    17    18    1
    21    17    16    1
    22    15    16    1
    23    15    20    1
    24    16    21    1
