@<TRIPOS>MOLECULE
3fl3_TRE_A_1.pdb
 23 24 0 0 0
SMALL
GASTEIGER

@<TRIPOS>ATOM
      1  C1        -7.8560   27.8840  -13.8790 C.3   1151  TRE1151     0.2713
      2  C2        -7.6790   26.4440  -14.3320 C.3   1151  TRE1151     0.2406
      3  C3        -6.3390   26.2920  -15.0320 C.3   1151  TRE1151     0.2198
      4  C4        -6.2690   27.2420  -16.2260 C.3   1151  TRE1151     0.2144
      5  C5        -6.4990   28.6520  -15.7060 C.3   1151  TRE1151     0.1835
      6  C6        -6.5760   29.6120  -16.8850 C.3   1151  TRE1151     0.2142
      7  O1        -6.8450   28.1830  -12.9110 O.3   1151  TRE1151    -0.3016
      8  O2        -7.6980   25.5900  -13.1820 O.3   1151  TRE1151    -0.2149
      9  O3        -6.2580   24.9380  -15.4910 O.3   1151  TRE1151    -0.2174
     10  O4        -4.9960   27.1680  -16.8950 O.3   1151  TRE1151    -0.2176
     11  O5        -7.7790   28.7140  -15.0540 O.3   1151  TRE1151    -0.3256
     12  O6        -7.6850   29.2420  -17.7190 O.3   1151  TRE1151    -0.2176
     13  C1P       -6.9420   29.5570  -12.4910 C.3   1151  TRE1151     0.2713
     14  C2P       -5.7480   29.8680  -11.6030 C.3   1151  TRE1151     0.2406
     15  C3P       -5.8050   29.0210  -10.3370 C.3   1151  TRE1151     0.2198
     16  C4P       -7.1110   29.2420   -9.5710 C.3   1151  TRE1151     0.2144
     17  C5P       -8.2410   28.9260  -10.5360 C.3   1151  TRE1151     0.1835
     18  C6P       -9.5960   29.2810   -9.9290 C.3   1151  TRE1151     0.2142
     19  O2P       -4.5370   29.6160  -12.3340 O.3   1151  TRE1151    -0.2149
     20  O3P       -4.6990   29.3740   -9.5000 O.3   1151  TRE1151    -0.2174
     21  O4P       -7.2000   28.3680   -8.4310 O.3   1151  TRE1151    -0.2176
     22  O5P       -8.1150   29.7740  -11.6920 O.3   1151  TRE1151    -0.3256
     23  O6P      -10.6040   28.8460  -10.8510 O.3   1151  TRE1151    -0.2176
@<TRIPOS>BOND
     1    12     6    1
     2    10     4    1
     3     6     5    1
     4     4     5    1
     5     4     3    1
     6     5    11    1
     7     9     3    1
     8    11     1    1
     9     3     2    1
    10     2     1    1
    11     2     8    1
    12     1     7    1
    13     7    13    1
    14    13    22    1
    15    13    14    1
    16    19    14    1
    17    22    17    1
    18    14    15    1
    19    23    18    1
    20    17    18    1
    21    17    16    1
    22    15    16    1
    23    15    20    1
    24    16    21    1
