@<TRIPOS>MOLECULE
3fl4_FL4_A_1.pdb
 25 28 0 0 0
SMALL
GASTEIGER

@<TRIPOS>ATOM
      1  C4        38.2250   54.3150   92.7420 C.ar  361  FL4361      0.1426
      2  C14       44.0370   52.7060   92.6440 C.1   361  FL4361      0.1239
      3  C5        38.8090   55.0640   91.7180 C.ar  361  FL4361      0.0330
      4  C6        40.1200   55.5250   91.8610 C.ar  361  FL4361      0.0433
      5  C10       43.1950   54.8270   93.0770 C.1   361  FL4361      0.2662
      6  C12       45.5290   54.4600   93.2940 C.2   361  FL4361      0.1260
      7  C13       45.3140   53.1350   92.9260 C.2   361  FL4361      0.1158
      8  C3        38.9490   54.0240   93.8970 C.ar  361  FL4361      0.0624
      9  F8        36.9710   53.8510   92.6160 F     361  FL4361     -0.2041
     10  C2        40.2560   54.4840   94.0310 C.ar  361  FL4361      0.1777
     11  F7        40.9420   54.1970   95.1480 F     361  FL4361     -0.2008
     12  C1        40.8440   55.2400   93.0200 C.ar  361  FL4361      0.1877
     13  O9        42.1360   55.6970   93.1580 O.3   361  FL4361     -0.3805
     14  N11       44.4560   55.2700   93.3570 N.2   361  FL4361     -0.1500
     15  N15       42.9710   53.5340   92.7140 N.2   361  FL4361     -0.2639
     16  N18       44.0440   51.4030   92.3100 N.2   361  FL4361     -0.0807
     17  N17       45.3780   50.9470   92.3680 N.2   361  FL4361     -0.1375
     18  C16       46.2030   51.9580   92.7370 C.2   361  FL4361      0.1152
     19  C19       47.6850   51.8410   92.9110 C.ar  361  FL4361      0.0162
     20  C24       48.5830   52.6270   92.1970 C.ar  361  FL4361     -0.0203
     21  CL1       48.0100   53.8580   91.0330 C.3   361  FL4361      0.0311
     22  C20       48.1730   50.8920   93.8100 C.ar  361  FL4361      0.0013
     23  C21       49.5470   50.7360   94.0020 C.ar  361  FL4361      0.0000
     24  C22       50.4420   51.5310   93.2900 C.ar  361  FL4361     -0.0003
     25  C23       49.9580   52.4730   92.3870 C.ar  361  FL4361     -0.0042
@<TRIPOS>BOND
     1    21    20    1
     2     3     4   ar
     3     3     1   ar
     4     4    12   ar
     5    20    25   ar
     6    20    19   ar
     7    16    17    1
     8    16     2    2
     9    17    18    2
    10    25    24   ar
    11     9     1    1
    12     2    15    2
    13     2     7    1
    14    15     5    2
    15    18    19    1
    16    18     7    1
    17     1     8   ar
    18    19    22   ar
    19     7     6    2
    20    12    13    1
    21    12    10   ar
    22     5    13    1
    23     5    14    2
    24    24    23   ar
    25     6    14    1
    26    22    23   ar
    27     8    10   ar
    28    10    11    1
