@<TRIPOS>MOLECULE
3fl5_TXQ_A_1.pdb
 20 22 0 0 0
SMALL
GASTEIGER

@<TRIPOS>ATOM
      1  O18       21.3460    9.2370   18.7070 O.2   338  TXQ338     -0.2865
      2  C9        22.1030    8.2550   18.5470 C.2   338  TXQ338      0.1990
      3  C8        22.3690    7.3270   19.6940 C.ar  338  TXQ338      0.0840
      4  C13       21.7700    7.5490   20.9400 C.ar  338  TXQ338      0.1990
      5  O17       20.9500    8.6270   21.1120 O.3   338  TXQ338     -0.2865
      6  C12       22.0200    6.6860   22.0070 C.ar  338  TXQ338      0.0454
      7  C11       22.8680    5.5850   21.8280 C.ar  338  TXQ338      0.0454
      8  C14       23.4590    5.3640   20.5810 C.ar  338  TXQ338      0.1990
      9  O16       24.2840    4.2960   20.3930 O.3   338  TXQ338     -0.2865
     10  C7        23.2160    6.2310   19.5150 C.ar  338  TXQ338      0.0841
     11  C10       23.8500    5.9900   18.1810 C.2   338  TXQ338      0.2021
     12  O19       24.5980    5.0020   18.0080 O.2   338  TXQ338     -0.2864
     13  C2        22.7320    8.0220   17.2180 C.ar  338  TXQ338      0.0455
     14  C1        23.5790    6.9220   17.0460 C.ar  338  TXQ338      0.0843
     15  C3        22.4880    8.8950   16.1470 C.ar  338  TXQ338      0.0068
     16  C4        23.0850    8.6550   14.8990 C.ar  338  TXQ338      0.0455
     17  C5        23.9250    7.5510   14.7350 C.ar  338  TXQ338      0.2344
     18  O20       24.5160    7.2930   13.5340 O.3   338  TXQ338     -0.2831
     19  C6        24.1650    6.6900   15.7990 C.ar  338  TXQ338      0.2373
     20  O15       24.9860    5.6210   15.6250 O.3   338  TXQ338     -0.2830
@<TRIPOS>BOND
     1    18    17    1
     2    17    16   ar
     3    17    19   ar
     4    16    15   ar
     5    20    19    1
     6    19    14   ar
     7    15    13   ar
     8    14    13   ar
     9    14    11    1
    10    13     2    1
    11    12    11    2
    12    11    10    1
    13     2     1    2
    14     2     3    1
    15    10     3   ar
    16    10     8   ar
    17     3     4   ar
    18     9     8    1
    19     8     7   ar
    20     4     5    1
    21     4     6   ar
    22     7     6   ar
