@<TRIPOS>MOLECULE
3fl8_RAR_A_1.pdb
 36 39 0 0 0
SMALL
GASTEIGER

@<TRIPOS>ATOM
      1  N01       15.3970  -31.3430   -6.2690 N.pl3 200  RAR200     -0.0924
      2  C02       15.8540  -31.8660   -5.0940 C.2   200  RAR200      0.2297
      3  C03       16.2330  -30.9060   -4.0160 C.2   200  RAR200      0.0500
      4  C04       16.1620  -29.4160   -4.2890 C.3   200  RAR200      0.0584
      5  C05       16.9700  -28.6240   -3.2920 C.ar  200  RAR200     -0.0144
      6  C06       16.2650  -27.4860   -2.5250 C.ar  200  RAR200      0.0361
      7  C07       17.0230  -26.7130   -1.4790 C.ar  200  RAR200      0.1721
      8  O08       16.3420  -25.7030   -0.8310 O.3   200  RAR200     -0.4684
      9  C09       15.0780  -25.4890   -1.3010 C.3   200  RAR200      0.2526
     10  C10       18.4860  -27.0610   -1.1890 C.ar  200  RAR200      0.1723
     11  O11       19.0900  -26.3360   -0.1930 O.3   200  RAR200     -0.4684
     12  C12       18.6330  -26.5470    1.1530 C.3   200  RAR200      0.2526
     13  C13       19.2210  -28.2020   -1.9390 C.ar  200  RAR200      0.0369
     14  C14       20.6800  -28.5920   -1.6810 C.2   200  RAR200      0.0078
     15  C15       21.5310  -27.8320   -1.0510 C.2   200  RAR200      0.0594
     16  C16       22.9260  -28.2980   -0.6990 C.2   200  RAR200      0.2636
     17  N17       23.5290  -29.3200   -1.4780 N.am  200  RAR200     -0.2008
     18  N18       22.6920  -29.8720   -2.5010 N.3   200  RAR200     -0.1227
     19  C19       23.1870  -30.9750   -3.2220 C.3   200  RAR200      0.1378
     20  C20       24.9290  -29.7900   -1.3140 C.3   200  RAR200      0.1155
     21  C21       25.1220  -31.2630   -0.7360 C.3   200  RAR200      0.0259
     22  C22       26.1410  -31.2130    0.3760 C.3   200  RAR200      0.0021
     23  C23       25.8070  -30.0460    1.2950 C.3   200  RAR200      0.0001
     24  C24       25.4890  -30.1040   -2.7450 C.ar  200  RAR200     -0.0053
     25  C25       24.5700  -30.7260   -3.6910 C.ar  200  RAR200     -0.0053
     26  C26       25.0310  -31.0640   -5.1120 C.ar  200  RAR200     -0.0031
     27  C27       26.4580  -30.7340   -5.4390 C.ar  200  RAR200     -0.0003
     28  C28       27.3820  -30.1120   -4.4570 C.ar  200  RAR200     -0.0003
     29  C29       26.9420  -29.7690   -3.0780 C.ar  200  RAR200     -0.0029
     30  O30       23.5170  -27.8010    0.1640 O.2   200  RAR200     -0.2686
     31  C31       18.4360  -28.9780   -2.9930 C.ar  200  RAR200     -0.0007
     32  C32       16.7030  -31.4680   -2.7430 C.2   200  RAR200      0.1118
     33  N33       16.7610  -32.8710   -2.6230 N.2   200  RAR200     -0.1675
     34  C34       16.3770  -33.8330   -3.7060 C.1   200  RAR200      0.1877
     35  N35       16.5040  -35.2090   -3.5200 N.pl3 200  RAR200     -0.0345
     36  N36       15.9230  -33.2890   -4.9570 N.2   200  RAR200     -0.3170
@<TRIPOS>BOND
     1     1     2    1
     2    27    26   ar
     3    27    28   ar
     4    26    25   ar
     5     2    36    2
     6     2     3    1
     7    36    34    2
     8    28    29   ar
     9     4     3    1
    10     4     5    1
    11     3    32    2
    12    34    35    1
    13    34    33    2
    14    25    19    1
    15    25    24   ar
    16     5    31   ar
    17     5     6   ar
    18    19    18    1
    19    29    24   ar
    20    31    13   ar
    21    24    20    1
    22    32    33    1
    23     6     7   ar
    24    18    17    1
    25    13    14    1
    26    13    10   ar
    27    14    15    2
    28     7    10   ar
    29     7     8    1
    30    17    20    1
    31    17    16   am
    32    20    21    1
    33     9     8    1
    34    10    11    1
    35    15    16    1
    36    21    22    1
    37    16    30    2
    38    11    12    1
    39    22    23    1
