@<TRIPOS>MOLECULE
3fl9_TOP_A_1.pdb
 21 22 0 0 0
SMALL
GASTEIGER

@<TRIPOS>ATOM
      1  C1        18.3770   10.8000   38.0650 C.2   200  TOP200      0.1118
      2  N2        18.4500   12.1040   38.2420 N.2   200  TOP200     -0.1675
      3  C3        19.4430   12.8200   37.7080 C.1   200  TOP200      0.1877
      4  N4        19.4790   14.1330   37.9090 N.pl3 200  TOP200     -0.0345
      5  N5        20.3930   12.2210   36.9760 N.2   200  TOP200     -0.3170
      6  C6        20.3600   10.8950   36.7710 C.2   200  TOP200      0.2297
      7  N7        21.3140   10.3240   36.0440 N.pl3 200  TOP200     -0.0924
      8  C8        19.3350   10.1290   37.3190 C.2   200  TOP200      0.0500
      9  C9        19.1980    8.6080   37.1410 C.3   200  TOP200      0.0585
     10  C10       18.4230    7.9630   38.3040 C.ar  200  TOP200     -0.0114
     11  C11       19.0580    7.0380   39.1230 C.ar  200  TOP200      0.0363
     12  C12       18.3810    6.4350   40.1790 C.ar  200  TOP200      0.1751
     13  O13       19.0680    5.5380   40.9510 O.3   200  TOP200     -0.4683
     14  C14       20.0700    4.8610   40.1790 C.3   200  TOP200      0.2526
     15  C15       17.0380    6.7620   40.4280 C.ar  200  TOP200      0.2060
     16  O16       16.3530    6.1950   41.4670 O.3   200  TOP200     -0.4654
     17  C17       16.7500    4.8790   41.8420 C.3   200  TOP200      0.2528
     18  C18       16.3950    7.7010   39.6050 C.ar  200  TOP200      0.1751
     19  O19       15.0860    8.0850   39.7530 O.3   200  TOP200     -0.4683
     20  C20       14.1600    7.0680   40.1590 C.3   200  TOP200      0.2526
     21  C21       17.0920    8.2790   38.5490 C.ar  200  TOP200      0.0363
@<TRIPOS>BOND
     1     7     6    1
     2     6     5    2
     3     6     8    1
     4     5     3    2
     5     9     8    1
     6     9    10    1
     7     8     1    2
     8     3     4    1
     9     3     2    2
    10     1     2    1
    11    10    21   ar
    12    10    11   ar
    13    21    18   ar
    14    11    12   ar
    15    18    19    1
    16    18    15   ar
    17    19    20    1
    18    12    15   ar
    19    12    13    1
    20    14    13    1
    21    15    16    1
    22    16    17    1
