@<TRIPOS>MOLECULE
3flf_UB3_A_1.pdb
 31 31 0 0 0
SMALL
GASTEIGER

@<TRIPOS>ATOM
      1  C7       -12.8440   41.0210    8.8710 C.2   3000  UB33000     0.4220
      2  O29      -13.0040   42.1400    8.4160 O.2   3000  UB33000    -0.2245
      3  O6       -13.1680   40.6850   10.1290 O.3   3000  UB33000    -0.4285
      4  C5       -13.7680   41.7420   10.9020 C.3   3000  UB33000     0.2368
      5  C4       -15.1400   41.2550   11.3890 C.ar  3000  UB33000     0.0213
      6  C30      -15.2920   40.6590   12.6470 C.ar  3000  UB33000    -0.0007
      7  C31      -16.5560   40.2390   13.0750 C.ar  3000  UB33000    -0.0002
      8  C1       -17.6740   40.4490   12.2600 C.ar  3000  UB33000    -0.0000
      9  C2       -17.5290   41.0730   11.0170 C.ar  3000  UB33000    -0.0002
     10  C3       -16.2660   41.4840   10.5890 C.ar  3000  UB33000    -0.0007
     11  N8       -12.3350   39.9900    8.1600 N.am  3000  UB33000    -0.1565
     12  C9       -11.9840   40.2010    6.7610 C.3   3000  UB33000     0.2238
     13  P10      -11.4090   38.6550    5.9710 P.3   3000  UB33000     0.3472
     14  O12      -12.4960   37.6420    6.1240 O.2   3000  UB33000    -0.2668
     15  O11      -10.2030   38.1820    6.7030 O.3   3000  UB33000    -0.1484
     16  N13      -11.1530   38.9390    4.3820 N.3   3000  UB33000    -0.1352
     17  C14       -9.9610   38.3220    3.7480 C.3   3000  UB33000     0.1593
     18  C18       -8.8270   39.3290    3.8270 C.2   3000  UB33000     0.2582
     19  O28       -7.6930   38.9110    3.6790 O.2   3000  UB33000    -0.2718
     20  C15      -10.2200   37.9720    2.2460 C.3   3000  UB33000     0.0255
     21  C16      -10.2360   39.2410    1.3570 C.3   3000  UB33000     0.0020
     22  C17       -9.2310   36.9350    1.6560 C.3   3000  UB33000     0.0020
     23  N19       -9.0740   40.6450    4.0480 N.am  3000  UB33000    -0.1944
     24  C20       -8.0250   41.5870    4.3800 C.3   3000  UB33000     0.1978
     25  C21       -8.3910   42.4660    5.5460 C.2   3000  UB33000     0.3842
     26  O22       -9.5770   42.4780    5.9880 O.co2 3000  UB33000    -0.2437
     27  C24       -7.2880   42.2780    3.2400 C.3   3000  UB33000     0.0333
     28  C25       -7.8150   42.4130    1.8030 C.3   3000  UB33000     0.0023
     29  C26       -9.3560   42.4080    1.6410 C.3   3000  UB33000     0.0001
     30  C27       -7.2420   43.7020    1.1350 C.3   3000  UB33000     0.0001
     31  O23       -7.4510   43.1690    6.0110 O.co2 3000  UB33000    -0.2437
@<TRIPOS>BOND
     1    30    28    1
     2    21    20    1
     3    29    28    1
     4    22    20    1
     5    28    27    1
     6    20    17    1
     7    27    24    1
     8    19    18    2
     9    17    18    1
    10    17    16    1
    11    18    23   am
    12    23    24    1
    13    24    25    1
    14    16    13    1
    15    25    26   ar
    16    25    31   ar
    17    13    14    2
    18    13    15    1
    19    13    12    1
    20    12    11    1
    21    11     1   am
    22     2     1    2
    23     1     3    1
    24     3     4    1
    25    10     9   ar
    26    10     5   ar
    27     4     5    1
    28     9     8   ar
    29     5     6   ar
    30     8     7   ar
    31     6     7   ar
