@<TRIPOS>MOLECULE
3fli_33Y_A_1.pdb
 32 35 0 0 0
SMALL
GASTEIGER

@<TRIPOS>ATOM
      1  F32       44.4540   -3.4710  -11.1490 F       1  33Y1       -0.2018
      2  C24       43.9680   -2.4890  -11.8270 C.ar    1  33Y1        0.1675
      3  C23       44.0930   -2.5400  -13.2240 C.ar    1  33Y1        0.1674
      4  F26       44.6560   -3.5110  -13.8940 F       1  33Y1       -0.2018
      5  C22       43.6160   -1.5270  -13.9900 C.ar    1  33Y1        0.0321
      6  C21       42.9810   -0.5110  -13.3480 C.ar    1  33Y1        0.0070
      7  C25       43.3470   -1.4300  -11.1500 C.ar    1  33Y1        0.0365
      8  C20       42.8020   -0.4510  -11.9490 C.ar    1  33Y1        0.0560
      9  C18       42.2770    0.7670  -11.3360 C.2     1  33Y1        0.2491
     10  O19       42.8700    1.1850  -10.3690 O.2     1  33Y1       -0.2699
     11  N12       41.3210    1.4910  -11.9840 N.am    1  33Y1       -0.2748
     12  C13       41.0470    2.7880  -11.3690 C.3     1  33Y1        0.0977
     13  C14       41.0820    4.1320  -12.0450 C.3     1  33Y1        0.0394
     14  C27       40.4430    5.2150  -11.1270 C.3     1  33Y1        0.0062
     15  C28       42.6090    4.3730  -12.1280 C.3     1  33Y1        0.0062
     16  C9        40.2920    4.0460  -13.3290 C.2     1  33Y1        0.0072
     17  C5        40.0980    5.2130  -14.1420 C.ar    1  33Y1        0.0278
     18  C6        40.5050    6.6000  -14.0730 C.ar    1  33Y1        0.0023
     19  C1        40.1380    7.5180  -15.0530 C.ar    1  33Y1        0.0002
     20  C11       40.5890    1.0670  -13.0670 C.3     1  33Y1        0.1119
     21  C10       39.5680    1.6400  -13.7660 C.3     1  33Y1        0.1703
     22  C15       38.9240    0.8640  -14.8740 C.2     1  33Y1        0.3248
     23  O17       38.5910   -0.3750  -14.3330 O.3     1  33Y1       -0.4520
     24  C29       38.1100   -1.4820  -15.1270 C.3     1  33Y1        0.1691
     25  C31       39.2490   -2.3130  -15.7130 C.3     1  33Y1        0.0473
     26  C30       37.2850   -2.3720  -14.2060 C.3     1  33Y1        0.0473
     27  O16       38.3830    1.1880  -15.9310 O.2     1  33Y1       -0.2496
     28  C8        39.4390    2.9740  -13.7860 C.2     1  33Y1        0.1171
     29  N7        39.0850    3.5020  -15.0650 N.2     1  33Y1       -0.4060
     30  C4        39.3140    4.8360  -15.2270 C.ar    1  33Y1        0.1307
     31  C3        38.9420    5.7600  -16.2620 C.ar    1  33Y1        0.0320
     32  C2        39.3630    7.0890  -16.1740 C.ar    1  33Y1        0.0026
@<TRIPOS>BOND
     1    31    32   ar
     2    31    30   ar
     3    32    19   ar
     4    27    22    2
     5    25    24    1
     6    30    29    2
     7    30    17   ar
     8    24    23    1
     9    24    26    1
    10    29    28    2
    11    19    18   ar
    12    22    23    1
    13    22    21    1
    14    17    18   ar
    15    17    16    2
    16     5     6   ar
    17     5     3   ar
    18     4     3    1
    19    28    21    1
    20    28    16    1
    21    21    20    1
    22     6     8   ar
    23    16    13    1
    24     3     2   ar
    25    20    11    1
    26    15    13    1
    27    13    12    1
    28    13    14    1
    29    11    12    1
    30    11     9   am
    31     8     9    1
    32     8     7   ar
    33     2     7   ar
    34     2     1    1
    35     9    10    2
