@<TRIPOS>MOLECULE
3flk_NAD_A_1.pdb
 44 48 0 0 0
SMALL
GASTEIGER

@<TRIPOS>ATOM
      1  PA        38.2320   80.8910  127.8020 P.3   402  NAD402      0.2189
      2  O1A       38.4390   82.3070  128.1840 O.2   402  NAD402     -0.5170
      3  O2A       37.2850   80.2050  128.7000 O.3   402  NAD402     -0.4371
      4  O5B       39.6380   80.1270  127.8420 O.3   402  NAD402     -0.3112
      5  C5B       40.6920   80.4200  126.9530 C.3   402  NAD402      0.1813
      6  C4B       42.0220   79.9740  127.5510 C.3   402  NAD402      0.1821
      7  O4B       42.3930   80.8500  128.5990 O.3   402  NAD402     -0.3135
      8  C3B       41.9470   78.5720  128.1390 C.3   402  NAD402      0.2184
      9  O3B       43.1400   77.8940  127.8260 O.3   402  NAD402     -0.2174
     10  C2B       41.8340   78.8090  129.6320 C.3   402  NAD402      0.2570
     11  O2B       42.4460   77.7870  130.3850 O.3   402  NAD402     -0.2130
     12  C1B       42.5110   80.1550  129.8300 C.3   402  NAD402      0.3186
     13  N9A       41.8760   80.9180  130.9180 N.pl3 402  NAD402     -0.1439
     14  C8A       40.6690   81.5690  130.8770 C.3   402  NAD402      0.3377
     15  N7A       40.4580   82.1440  132.0810 N.2   402  NAD402     -0.2095
     16  C5A       41.5030   81.8740  132.8860 C.2   402  NAD402      0.2526
     17  C6A       41.7890   82.2170  134.2040 C.2   402  NAD402      0.4393
     18  N6A       40.9420   82.9660  134.9050 N.pl3 402  NAD402      0.2180
     19  N1A       42.9690   81.7810  134.7730 N.2   402  NAD402      0.0021
     20  C2A       43.8560   81.0130  134.0490 C.3   402  NAD402      0.5254
     21  N3A       43.5620   80.6840  132.7390 N.2   402  NAD402     -0.0055
     22  C4A       42.4050   81.1010  132.1690 C.2   402  NAD402      0.3518
     23  O3        37.7410   80.8930  126.2590 O.3   402  NAD402     -0.2703
     24  PN        37.4750   79.6280  125.2930 P.3   402  NAD402      0.2189
     25  O1N       38.3180   78.4760  125.6780 O.3   402  NAD402     -0.4371
     26  O2N       37.6010   80.1430  123.9100 O.2   402  NAD402     -0.5170
     27  O5D       35.9330   79.2820  125.5550 O.3   402  NAD402     -0.3112
     28  C5D       35.5210   78.3940  126.5740 C.3   402  NAD402      0.1813
     29  C4D       34.0210   78.5460  126.8240 C.3   402  NAD402      0.1799
     30  O4D       33.7570   79.7940  127.4370 O.3   402  NAD402     -0.3327
     31  C3D       33.1840   78.5100  125.5520 C.3   402  NAD402      0.2158
     32  O3D       32.0080   77.7950  125.8430 O.3   402  NAD402     -0.2175
     33  C2D       32.8490   79.9660  125.2810 C.3   402  NAD402      0.2309
     34  O2D       31.6250   80.1190  124.6020 O.3   402  NAD402     -0.2158
     35  C1D       32.7920   80.5250  126.6950 C.3   402  NAD402      0.2263
     36  N1N       33.0590   81.9710  126.8250 N.pl3 402  NAD402     -0.2787
     37  C2N       32.1770   82.7040  127.5690 C.3   402  NAD402      0.1244
     38  C3N       32.3720   84.0670  127.7600 C.2   402  NAD402      0.0544
     39  C7N       31.5490   84.7830  128.7930 C.2   402  NAD402      0.2818
     40  O7N       30.6640   84.0480  129.6100 O.2   402  NAD402     -0.2670
     41  N7N       31.6670   86.1040  128.9190 N.am  402  NAD402     -0.0839
     42  C4N       33.4850   84.6800  127.1840 C.2   402  NAD402      0.0033
     43  C5N       34.3850   83.9270  126.4300 C.2   402  NAD402      0.0157
     44  C6N       34.1630   82.5610  126.2570 C.2   402  NAD402      0.0633
@<TRIPOS>BOND
     1    26    24    2
     2    34    33    1
     3    33    31    1
     4    33    35    1
     5    24    27    1
     6    24    25    1
     7    24    23    1
     8    31    32    1
     9    31    29    1
    10    27    28    1
    11    44    43    2
    12    44    36    1
    13    23     1    1
    14    43    42    1
    15    28    29    1
    16    35    36    1
    17    35    30    1
    18    29    30    1
    19    36    37    1
    20     5     6    1
    21     5     4    1
    22    42    38    2
    23     6     8    1
    24     6     7    1
    25    37    38    1
    26    38    39    1
    27     1     4    1
    28     1     2    2
    29     1     3    1
    30     9     8    1
    31     8    10    1
    32     7    12    1
    33    39    41   am
    34    39    40    2
    35    10    12    1
    36    10    11    1
    37    12    13    1
    38    14    13    1
    39    14    15    1
    40    13    22    1
    41    15    16    2
    42    22    21    2
    43    22    16    1
    44    21    20    1
    45    16    17    1
    46    20    19    1
    47    17    19    2
    48    17    18    1
