@<TRIPOS>MOLECULE
3fll_HEM_A_1.pdb
 43 50 0 0 0
SMALL
GASTEIGER

@<TRIPOS>ATOM
      1 FE         10.8310   20.2940   36.6680 Fe    185  HEM185      0.0000
      2  CHA       11.2850   23.3170   35.1500 C.2   185  HEM185      0.0000
      3  CHB        7.4810   20.6290   36.2370 C.2   185  HEM185      0.0000
      4  CHC       10.3290   17.5570   38.6350 C.2   185  HEM185      0.0000
      5  CHD       14.1990   19.7170   36.7090 C.2   185  HEM185      0.0000
      6  NA         9.6380   21.6920   35.8320 N.ar  185  HEM185      0.0000
      7  C1A       10.0160   22.9010   35.3080 C.ar  185  HEM185      0.0000
      8  C2A        8.8430   23.6830   35.0000 C.ar  185  HEM185      0.0000
      9  C3A        7.7740   22.9330   35.3180 C.ar  185  HEM185      0.0000
     10  C4A        8.2650   21.6580   35.8170 C.ar  185  HEM185      0.0000
     11  CMA        6.2690   23.3100   35.1660 C.3   185  HEM185      0.0000
     12  CAA        8.8680   25.1350   34.4230 C.3   185  HEM185      0.0000
     13  CBA        8.6680   26.1120   35.5850 C.3   185  HEM185      0.0000
     14  CGA        8.6600   27.5460   35.1470 C.2   185  HEM185      0.0000
     15  O1A        9.4320   27.8730   34.2140 O.co2 185  HEM185      0.0000
     16  O2A        7.8850   28.3470   35.7190 O.co2 185  HEM185      0.0000
     17  NB         9.2020   19.2690   37.3040 N.2   185  HEM185      0.0000
     18  C1B        7.8970   19.5470   36.9740 C.2   185  HEM185      0.0000
     19  C2B        7.0380   18.5170   37.5600 C.2   185  HEM185      0.0000
     20  C3B        7.8540   17.6610   38.2090 C.2   185  HEM185      0.0000
     21  C4B        9.2080   18.1470   38.0980 C.2   185  HEM185      0.0000
     22  CMB        5.4990   18.4480   37.3590 C.3   185  HEM185      0.0000
     23  CAB        7.4540   16.4100   39.0240 C.2   185  HEM185      0.0000
     24  CBB        7.6430   16.3980   40.3410 C.2   185  HEM185      0.0000
     25  NC        12.0400   18.9430   37.5180 N.ar  185  HEM185      0.0000
     26  C1C       11.6270   17.8340   38.2610 C.ar  185  HEM185      0.0000
     27  C2C       12.8000   17.0690   38.5540 C.ar  185  HEM185      0.0000
     28  C3C       13.8650   17.6720   38.0350 C.ar  185  HEM185      0.0000
     29  C4C       13.4040   18.8390   37.3560 C.ar  185  HEM185      0.0000
     30  CMC       12.8230   15.7830   39.3650 C.3   185  HEM185      0.0000
     31  CAC       15.3010   17.1650   38.0590 C.3   185  HEM185      0.0000
     32  CBC       15.4680   16.1000   37.2380 C.3   185  HEM185      0.0000
     33  ND        12.4230   21.3390   36.0210 N.2   185  HEM185      0.0000
     34  C1D       13.7460   20.9000   36.1550 C.2   185  HEM185      0.0000
     35  C2D       14.6230   21.8890   35.5780 C.2   185  HEM185      0.0000
     36  C3D       13.7240   22.9900   35.1070 C.2   185  HEM185      0.0000
     37  C4D       12.3940   22.5670   35.4090 C.2   185  HEM185      0.0000
     38  CMD       16.1760   21.8880   35.4710 C.3   185  HEM185      0.0000
     39  CAD       14.1460   24.2950   34.4200 C.3   185  HEM185      0.0000
     40  CBD       13.9770   24.1030   32.9100 C.3   185  HEM185      0.0000
     41  CGD       13.9900   25.4610   32.2820 C.2   185  HEM185      0.0000
     42  O1D       14.6860   26.3650   32.7960 O.co2 185  HEM185      0.0000
     43  O2D       13.2770   25.6430   31.2810 O.co2 185  HEM185      0.0000
@<TRIPOS>BOND
     1    43    41   ar
     2    41    42   ar
     3    41    40    1
     4    40    39    1
     5    15    14   ar
     6    39    36    1
     7    12     8    1
     8    12    13    1
     9     8     7   ar
    10     8     9   ar
    11    36    37    1
    12    36    35    2
    13    14    13    1
    14    14    16   ar
    15     2     7    2
    16     2    37    1
    17    11     9    1
    18     7     6   ar
    19     9    10   ar
    20    37    33    2
    21    38    35    1
    22    35    34    1
    23    10     6   ar
    24    10     3    2
    25     6     1    1
    26    33    34    1
    27    33     1    1
    28    34     5    2
    29     3    18    1
    30     1    17    1
    31     1    25    1
    32     5    29    1
    33    18    17    2
    34    18    19    1
    35    32    31    1
    36    17    21    1
    37    29    25   ar
    38    29    28   ar
    39    22    19    1
    40    25    26   ar
    41    19    20    2
    42    28    31    1
    43    28    27   ar
    44    21    20    1
    45    21     4    2
    46    20    23    1
    47    26    27   ar
    48    26     4    1
    49    27    30    1
    50    23    24    2
