@<TRIPOS>MOLECULE
3fln_3FN_C_1.pdb
 28 31 0 0 0
SMALL
GASTEIGER

@<TRIPOS>ATOM
      1  C1        26.8920    9.0310   30.2670 C.3   361  3FN361      0.0546
      2  C2        28.2270    9.6770   30.6460 C.3   361  3FN361      0.1440
      3  C4        28.4800    8.2160   32.5540 C.3   361  3FN361      0.1440
      4  C5        27.1350    7.5490   32.2620 C.3   361  3FN361      0.0546
      5  C24       15.9370   10.5720   31.7440 C.ar  361  3FN361      0.0624
      6  O3        29.0540    8.7310   31.3420 O.3   361  3FN361     -0.3537
      7  C15       21.3310   12.5340   31.2600 C.ar  361  3FN361      0.2974
      8  C25       17.2100   11.1340   31.8080 C.ar  361  3FN361      0.1766
      9  C8        23.8120    8.4280   31.0270 C.1   361  3FN361      0.1666
     10  C6        26.2090    8.5350   31.5410 C.3   361  3FN361      0.1097
     11  C10       21.4240    9.7430   30.7800 C.ar  361  3FN361      0.0707
     12  C17       20.1980   10.4050   30.6500 C.ar  361  3FN361      0.0481
     13  C23       15.1450   10.7870   30.6160 C.ar  361  3FN361      0.1426
     14  C22       15.6180   11.5580   29.5600 C.ar  361  3FN361      0.0329
     15  C21       16.8870   12.1260   29.6330 C.ar  361  3FN361      0.0421
     16  C9        22.5800   10.4420   31.1440 C.ar  361  3FN361      0.2119
     17  C11       21.5180    8.3690   30.5430 C.2   361  3FN361      0.1159
     18  C16       20.1090   11.7810   30.8810 C.ar  361  3FN361      0.2014
     19  C20       17.6850   11.9090   30.7500 C.ar  361  3FN361      0.1729
     20  C18       23.7820   12.5590   31.7630 C.3   361  3FN361      0.1362
     21  F2        17.9680   10.9190   32.8940 F     361  3FN361     -0.2009
     22  F1        13.9210   10.2410   30.5360 F     361  3FN361     -0.2041
     23  O26       18.9320   12.4880   30.7790 O.3   361  3FN361     -0.4464
     24  N7        22.6970    7.7370   30.6680 N.2   361  3FN361     -0.1685
     25  O19       21.2550   13.7650   31.4680 O.2   361  3FN361     -0.2635
     26  N14       22.5540   11.8380   31.3860 N.ar  361  3FN361     -0.2655
     27  N12       23.7440    9.7630   31.2590 N.2   361  3FN361     -0.3182
     28  N13       25.0100    7.7950   31.1530 N.pl3 361  3FN361     -0.1637
@<TRIPOS>BOND
     1    14    15   ar
     2    14    13   ar
     3    15    19   ar
     4     1     2    1
     5     1    10    1
     6    22    13    1
     7    17    24    1
     8    17    11    2
     9    13     5   ar
    10     2     6    1
    11    12    11   ar
    12    12    18   ar
    13    24     9    2
    14    19    23    1
    15    19     8   ar
    16    23    18    1
    17    11    16   ar
    18    18     7   ar
    19     9    28    1
    20     9    27    2
    21    16    27    2
    22    16    26   ar
    23    28    10    1
    24     7    26   ar
    25     7    25    2
    26     6     3    1
    27    26    20    1
    28    10     4    1
    29     5     8   ar
    30     8    21    1
    31     4     3    1
