@<TRIPOS>MOLECULE
3flo_III_I_1.pdb
 15 14 0 0 0
SMALL
GASTEIGER

@<TRIPOS>ATOM
      1  N         27.1080  128.4930  180.2110 N.3   1000  UNK1000    -0.1231
      2  CA        26.1410  128.0460  179.1570 C.3   1000  UNK1000     0.1694
      3  C         25.8240  126.5630  179.3740 C.2   1000  UNK1000     0.2592
      4  O         26.7230  125.8290  179.7060 O.2   1000  UNK1000    -0.2718
      5  CB        26.7370  128.2940  177.7190 C.3   1000  UNK1000     0.0304
      6  N         24.5710  126.1210  179.1950 N.am  1001  UNK1001    -0.1966
      7  CA        24.2040  124.6870  179.3910 C.3   1001  UNK1001     0.1728
      8  C         23.4930  124.0410  178.1780 C.2   1001  UNK1001     0.2616
      9  O         23.1840  124.7130  177.2020 O.2   1001  UNK1001    -0.2715
     10  CB        23.3780  124.5050  180.6670 C.3   1001  UNK1001     0.0334
     11  N         23.2500  122.7300  178.2440 N.am  1002  UNK1002    -0.1977
     12  CA        22.5990  121.9990  177.1160 C.3   1002  UNK1002     0.1597
     13  C         21.1340  121.6410  177.4210 C.2   1002  UNK1002     0.2287
     14  O         20.2470  121.8610  176.5910 O.2   1002  UNK1002    -0.2864
     15  CB        23.4050  120.7440  176.7520 C.3   1002  UNK1002     0.0319
@<TRIPOS>BOND
     1    14    13    2
     2    15    12    1
     3    12    13    1
     4    12    11    1
     5     9     8    2
     6     5     2    1
     7     8    11   am
     8     8     7    1
     9     2     3    1
    10     2     1    1
    11     6     3   am
    12     6     7    1
    13     3     4    2
    14     7    10    1
