@<TRIPOS>MOLECULE
3flq_891_A_1.pdb
 29 31 0 0 0
SMALL
GASTEIGER

@<TRIPOS>ATOM
      1  C16       23.7320    8.1150   32.4090 C.1   361  891361      0.1666
      2  C13       21.4650    9.5580   31.9820 C.ar  361  891361      0.0707
      3  C11       20.3110   10.3110   31.7690 C.ar  361  891361      0.0481
      4  C12       22.5400   10.1260   32.6620 C.ar  361  891361      0.2119
      5  C10       20.2170   11.6290   32.2390 C.ar  361  891361      0.2014
      6  C1        26.1520    8.0810   32.8910 C.3   361  891361      0.1282
      7  C2        26.9380    7.3110   33.9470 C.3   361  891361      0.0261
      8  C5        26.5250   10.8180   31.4180 C.3   361  891361      0.1761
      9  N8        22.4660   11.4560   33.1390 N.ar  361  891361     -0.2655
     10  C3        26.9220    8.1090   31.5680 C.3   361  891361      0.1732
     11  F29       14.2110   10.2190   30.7440 F     361  891361     -0.2041
     12  C25       15.3960   10.7520   31.0570 C.ar  361  891361      0.1426
     13  C24       16.0120   11.6500   30.1890 C.ar  361  891361      0.0329
     14  C23       17.2510   12.1970   30.5230 C.ar  361  891361      0.0421
     15  C26       16.0080   10.3980   32.2510 C.ar  361  891361      0.0624
     16  C27       17.2430   10.9440   32.5810 C.ar  361  891361      0.1766
     17  F28       17.8380   10.5990   33.7360 F     361  891361     -0.2009
     18  C21       17.8650   11.8400   31.7180 C.ar  361  891361      0.1729
     19  O20       19.0840   12.3860   32.0440 O.3   361  891361     -0.4464
     20  C9        21.2820   12.2080   32.9150 C.ar  361  891361      0.2974
     21  O18       21.1770   13.3890   33.3220 O.2   361  891361     -0.2635
     22  C14       21.5660    8.2460   31.5160 C.2   361  891361      0.1159
     23  N15       22.6920    7.5500   31.7400 N.2   361  891361     -0.1685
     24  N17       23.6500    9.3890   32.8620 N.2   361  891361     -0.3182
     25  C22       23.6060   12.0460   33.8580 C.3   361  891361      0.1362
     26  N19       24.8760    7.4140   32.6240 N.pl3 361  891361     -0.1620
     27  S4        26.4480    9.3740   30.5890 S.O2  361  891361     -0.0065
     28  O6        27.3240    9.4080   29.4490 O.2   361  891361     -0.1729
     29  O7        25.1120    9.1640   30.0980 O.2   361  891361     -0.1729
@<TRIPOS>BOND
     1    28    27    2
     2    29    27    2
     3    13    14   ar
     4    13    12   ar
     5    14    18   ar
     6    27     8    1
     7    27    10    1
     8    11    12    1
     9    12    15   ar
    10    22    23    1
    11    22     2    2
    12    10     6    1
    13    18    19    1
    14    18    16   ar
    15    23     1    2
    16     3     2   ar
    17     3     5   ar
    18     2     4   ar
    19    19     5    1
    20     5    20   ar
    21    15    16   ar
    22     1    26    1
    23     1    24    2
    24    16    17    1
    25    26     6    1
    26     4    24    2
    27     4     9   ar
    28     6     7    1
    29    20     9   ar
    30    20    21    2
    31     9    25    1
