@<TRIPOS>MOLECULE
3fls_FLS_A_1.pdb
 29 31 0 0 0
SMALL
GASTEIGER

@<TRIPOS>ATOM
      1  C1        26.3250    7.5170   30.8210 C.3   361  FLS361      0.1282
      2  C2        26.8090    7.9260   29.4340 C.3   361  FLS361      0.0261
      3  C3        27.4490    6.7410   31.5010 C.3   361  FLS361      0.1732
      4  C5        26.4580    5.0040   33.3650 C.3   361  FLS361      0.1761
      5  C7        21.2080   11.2040   31.1200 C.ar  361  FLS361      0.2974
      6  C8        20.0580   10.4850   30.8060 C.ar  361  FLS361      0.2014
      7  O29       26.4660    7.4940   33.7860 O.2   361  FLS361     -0.1729
      8  S4        27.2230    6.4630   33.1270 S.O2  361  FLS361     -0.0065
      9  O28       28.5390    6.4230   33.7090 O.2   361  FLS361     -0.1729
     10  N17       25.1150    6.7100   30.7140 N.pl3 361  FLS361     -0.1620
     11  C14       23.8830    7.2720   30.6630 C.1   361  FLS361      0.1666
     12  N15       23.7690    8.5920   30.9240 N.2   361  FLS361     -0.3182
     13  C10       22.5620    9.2070   30.8800 C.ar  361  FLS361      0.2119
     14  N6        22.4650   10.5860   31.1580 N.ar  361  FLS361     -0.2655
     15  C20       23.6630   11.3740   31.4880 C.3   361  FLS361      0.1362
     16  N13       22.7740    6.5380   30.3600 N.2   361  FLS361     -0.1685
     17  C12       21.5580    7.1150   30.3010 C.2   361  FLS361      0.1159
     18  C11       21.4210    8.4770   30.5650 C.ar  361  FLS361      0.0707
     19  C9        20.1380    9.1480   30.5270 C.ar  361  FLS361      0.0481
     20  O16       21.1380   12.4250   31.3650 O.2   361  FLS361     -0.2635
     21  O18       18.8680   11.1830   30.8010 O.3   361  FLS361     -0.4464
     22  C19       17.6240   10.6390   30.6500 C.ar  361  FLS361      0.1729
     23  C25       17.0990    9.7790   31.6110 C.ar  361  FLS361      0.1766
     24  F26       17.8410    9.4920   32.6910 F     361  FLS361     -0.2009
     25  C24       15.8230    9.2290   31.4430 C.ar  361  FLS361      0.0624
     26  C23       15.0920    9.5700   30.2980 C.ar  361  FLS361      0.1426
     27  F27       13.8720    9.0710   30.0810 F     361  FLS361     -0.2041
     28  C22       15.6260   10.4330   29.3420 C.ar  361  FLS361      0.0329
     29  C21       16.8870   10.9810   29.5180 C.ar  361  FLS361      0.0421
@<TRIPOS>BOND
     1    28    29   ar
     2    28    26   ar
     3     2     1    1
     4    29    22   ar
     5    27    26    1
     6    26    25   ar
     7    17    16    1
     8    17    18    2
     9    16    11    2
    10    19    18   ar
    11    19     6   ar
    12    18    13   ar
    13    22    21    1
    14    22    23   ar
    15    11    10    1
    16    11    12    2
    17    10     1    1
    18    21     6    1
    19     6     5   ar
    20     1     3    1
    21    13    12    2
    22    13    14   ar
    23     5    14   ar
    24     5    20    2
    25    14    15    1
    26    25    23   ar
    27     3     8    1
    28    23    24    1
    29     8     4    1
    30     8     9    2
    31     8     7    2
