@<TRIPOS>MOLECULE
3flv_COA_A_1.pdb
 31 33 0 0 0
SMALL
GASTEIGER

@<TRIPOS>ATOM
      1  N1A       31.2100   11.5450   17.7570 N.2   102  COA102      0.0021
      2  C2A       30.8080   12.7710   18.0550 C.3   102  COA102      0.5254
      3  N3A       29.6190   12.9530   18.6480 N.2   102  COA102     -0.0055
      4  C4A       28.8620   11.9060   18.9390 C.2   102  COA102      0.3518
      5  C5A       29.2690   10.5990   18.6340 C.2   102  COA102      0.2526
      6  C6A       30.5110   10.4630   18.0160 C.2   102  COA102      0.4393
      7  N6A       31.0740    9.3040   17.6700 N.pl3 102  COA102      0.2180
      8  N7A       28.3020    9.7810   19.0540 N.2   102  COA102     -0.2095
      9  C8A       27.3170   10.5340   19.5710 C.3   102  COA102      0.3377
     10  N9A       27.6710   11.8270   19.4990 N.pl3 102  COA102     -0.1439
     11  C1B       26.9590   13.0040   19.9280 C.3   102  COA102      0.3185
     12  C2B       25.5340   12.9030   19.4540 C.3   102  COA102      0.2543
     13  O2B       25.3730   13.3650   18.0850 O.3   102  COA102     -0.2131
     14  C3B       24.8560   13.8470   20.4550 C.3   102  COA102      0.1928
     15  O3B       25.2210   15.2100   20.2180 O.3   102  COA102     -0.2673
     16  P3B       24.2590   16.4350   20.6520 P.3   102  COA102      0.5327
     17  O7A       23.8610   16.1570   22.1250 O.3   102  COA102     -0.1145
     18  O8A       24.9010   17.7520   20.5570 O.3   102  COA102     -0.1145
     19  O9A       23.0080   16.2100   19.8940 O.2   102  COA102     -0.2224
     20  C4B       25.5580   13.4230   21.7670 C.3   102  COA102      0.1795
     21  O4B       26.9060   12.9870   21.3700 O.3   102  COA102     -0.3136
     22  C5B       24.7100   12.3430   22.4940 C.3   102  COA102      0.1812
     23  O5B       24.4230   11.1810   21.6710 O.3   102  COA102     -0.3111
     24  P1A       22.8380   10.7500   21.3980 P.3   102  COA102      0.2231
     25  O1A       22.6290   10.2510   20.0140 O.2   102  COA102     -0.5169
     26  O2A       21.9140   12.1020   21.6650 O.3   102  COA102     -0.4370
     27  O3A       22.5340    9.6040   22.5170 O.3   102  COA102     -0.2261
     28  P2A       21.5130    9.8480   23.7190 P.3   102  COA102      0.5373
     29  O4A       20.2570   10.7470   23.2140 O.2   102  COA102     -0.2221
     30  O5A       22.2990   10.8370   24.7160 O.3   102  COA102     -0.1143
     31  O6A       21.0480    8.5800   24.3340 O.3   102  COA102     -0.1143
@<TRIPOS>BOND
     1     7     6    1
     2     1     6    2
     3     1     2    1
     4     6     5    1
     5     2     3    1
     6    13    12    1
     7     5     4    1
     8     5     8    2
     9     3     4    2
    10     4    10    1
    11     8     9    1
    12    12    11    1
    13    12    14    1
    14    10     9    1
    15    10    11    1
    16    19    16    2
    17    11    21    1
    18    25    24    2
    19    15    14    1
    20    15    16    1
    21    14    20    1
    22    18    16    1
    23    16    17    1
    24    21    20    1
    25    24    26    1
    26    24    23    1
    27    24    27    1
    28    23    22    1
    29    20    22    1
    30    27    28    1
    31    29    28    2
    32    28    31    1
    33    28    30    1
