@<TRIPOS>MOLECULE
3flw_FLW_A_1.pdb
 29 31 0 0 0
SMALL
GASTEIGER

@<TRIPOS>ATOM
      1  C14       15.9000   10.6230   32.1000 C.ar  361  FLW361      0.0624
      2  C15       15.1650   10.8850   30.9430 C.ar  361  FLW361      0.1426
      3  C20       27.1330    7.6970   32.7050 C.3   361  FLW361      0.0581
      4  C21       27.1160    8.3200   34.0920 C.3   361  FLW361      0.1839
      5  C23       27.0140    8.6080   30.4120 C.3   361  FLW361      0.0581
      6  C29       23.7670   12.6340   32.1910 C.3   361  FLW361      0.1362
      7  F28       17.8750   10.9100   33.3780 F     361  FLW361     -0.2009
      8  C13       17.1690   11.1810   32.2600 C.ar  361  FLW361      0.1766
      9  F27       13.9460   10.3480   30.7830 F     361  FLW361     -0.2041
     10  C16       15.6880   11.7060   29.9440 C.ar  361  FLW361      0.0329
     11  C17       16.9520   12.2650   30.1100 C.ar  361  FLW361      0.0421
     12  C12       17.6970   11.9980   31.2590 C.ar  361  FLW361      0.1729
     13  O11       18.9430   12.5690   31.3680 O.3   361  FLW361     -0.4464
     14  C9        20.1320   11.8610   31.4390 C.ar  361  FLW361      0.2014
     15  C10       20.2050   10.4800   31.2110 C.ar  361  FLW361      0.0481
     16  C5        21.4230    9.8020   31.2990 C.ar  361  FLW361      0.0707
     17  C4        21.4990    8.4260   31.0680 C.2   361  FLW361      0.1159
     18  N1        22.6790    7.7910   31.1640 N.2   361  FLW361     -0.1685
     19  C8        21.2930   12.5620   31.7590 C.ar  361  FLW361      0.2974
     20  O26       21.2200   13.7950   31.9640 O.2   361  FLW361     -0.2635
     21  N7        22.5430   11.8910   31.8540 N.ar  361  FLW361     -0.2655
     22  C6        22.5940   10.4950   31.6200 C.ar  361  FLW361      0.2119
     23  N3        23.7650    9.8170   31.7040 N.2   361  FLW361     -0.3182
     24  C2        23.8130    8.4780   31.4800 C.1   361  FLW361      0.1666
     25  N18       24.9910    7.8180   31.5620 N.pl3 361  FLW361     -0.1637
     26  C19       26.2670    8.4950   31.7390 C.3   361  FLW361      0.1099
     27  C24       26.3920    9.6070   29.4390 C.3   361  FLW361      0.1839
     28  O25       26.4760   10.9270   29.9880 O.3   361  FLW361     -0.2204
     29  O22       26.8070    7.3130   35.0610 O.3   361  FLW361     -0.2204
@<TRIPOS>BOND
     1    27    28    1
     2    27     5    1
     3    10    11   ar
     4    10     2   ar
     5    11    12   ar
     6     5    26    1
     7     9     2    1
     8     2     1   ar
     9    17    18    1
    10    17    16    2
    11    18    24    2
    12    15    16   ar
    13    15    14   ar
    14    12    13    1
    15    12     8   ar
    16    16    22   ar
    17    13    14    1
    18    14    19   ar
    19    24    25    1
    20    24    23    2
    21    25    26    1
    22    22    23    2
    23    22    21   ar
    24    26     3    1
    25    19    21   ar
    26    19    20    2
    27    21     6    1
    28     1     8   ar
    29     8     7    1
    30     3     4    1
    31     4    29    1
