@<TRIPOS>MOLECULE
3fly_FLY_A_1.pdb
 25 27 0 0 0
SMALL
GASTEIGER

@<TRIPOS>ATOM
      1  C2        21.4840    8.6100   30.7530 C.2   361  FLY361      0.1159
      2  C3        22.6150   10.6970   31.1110 C.ar  361  FLY361      0.2119
      3  N1        22.6730    7.9800   30.7570 N.2   361  FLY361     -0.1685
      4  C4        21.4240    9.9940   30.9320 C.ar  361  FLY361      0.0707
      5  C5        20.2010   10.6750   30.9330 C.ar  361  FLY361      0.0481
      6  C6        20.1580   12.0640   31.1160 C.ar  361  FLY361      0.2014
      7  C7        21.3440   12.7710   31.2940 C.ar  361  FLY361      0.2974
      8  C9        23.8260    8.6810   30.9320 C.1   361  FLY361      0.1666
      9  C11       26.2530    8.7920   31.2200 C.3   361  FLY361      0.1048
     10  C13       27.1880    7.9610   32.0970 C.3   361  FLY361      0.0242
     11  C14       26.9150    9.1980   29.9040 C.3   361  FLY361      0.0242
     12  C17       17.7280   12.1830   31.1120 C.ar  361  FLY361      0.1729
     13  C18       16.9350   12.3640   29.9810 C.ar  361  FLY361      0.0421
     14  C19       15.6700   11.7880   29.9070 C.ar  361  FLY361      0.0329
     15  C20       15.1850   11.0390   30.9770 C.ar  361  FLY361      0.1426
     16  C21       15.9680   10.8600   32.1180 C.ar  361  FLY361      0.0624
     17  C22       17.2420   11.4320   32.1840 C.ar  361  FLY361      0.1766
     18  F24       13.9620   10.4860   30.8930 F     361  FLY361     -0.2041
     19  F23       17.9830   11.2440   33.2920 F     361  FLY361     -0.2009
     20  O16       18.9730   12.7710   31.1290 O.3   361  FLY361     -0.4464
     21  O15       21.2960   14.0100   31.4530 O.2   361  FLY361     -0.2635
     22  N8        22.5910   12.0970   31.2930 N.ar  361  FLY361     -0.2655
     23  C25       23.8460   12.8450   31.4810 C.3   361  FLY361      0.1362
     24  N10       23.7910   10.0250   31.1070 N.2   361  FLY361     -0.3182
     25  N12       25.0300    8.0470   30.9370 N.pl3 361  FLY361     -0.1638
@<TRIPOS>BOND
     1    11     9    1
     2    14    13   ar
     3    14    15   ar
     4    13    12   ar
     5     1     3    1
     6     1     4    2
     7     3     8    2
     8    18    15    1
     9     4     5   ar
    10     4     2   ar
    11     8    25    1
    12     8    24    2
    13     5     6   ar
    14    25     9    1
    15    15    16   ar
    16    24     2    2
    17     2    22   ar
    18    12    20    1
    19    12    17   ar
    20     6    20    1
    21     6     7   ar
    22     9    10    1
    23    22     7   ar
    24    22    23    1
    25     7    21    2
    26    16    17   ar
    27    17    19    1
