@<TRIPOS>MOLECULE
3flz_FLZ_A_1.pdb
 26 29 0 0 0
SMALL
GASTEIGER

@<TRIPOS>ATOM
      1  O11       19.1410   12.6850   31.2200 O.3   361  FLZ361     -0.4487
      2  C10       20.3600   10.5810   31.1680 C.ar  361  FLZ361      0.0481
      3  C6        22.7680   10.5920   31.4070 C.ar  361  FLZ361      0.2119
      4  C5        21.5710    9.8890   31.2360 C.ar  361  FLZ361      0.0707
      5  C4        21.6170    8.4990   31.1270 C.2   361  FLZ361      0.1159
      6  C2        23.9520    8.5480   31.3640 C.1   361  FLZ361      0.1666
      7  C9        20.3260   11.9800   31.2790 C.ar  361  FLZ361      0.2013
      8  C12       17.8970   12.1240   31.3850 C.ar  361  FLZ361      0.1455
      9  C14       24.0170   12.7450   31.7010 C.3   361  FLZ361      0.1362
     10  C22       27.2290    7.7610   32.7410 C.3   361  FLZ361      0.0546
     11  C15       16.9790   12.1840   30.3320 C.ar  361  FLZ361      0.0375
     12  C17       15.3640   11.0020   31.6810 C.ar  361  FLZ361      0.0002
     13  C16       15.7120   11.6200   30.4800 C.ar  361  FLZ361      0.0031
     14  C18       16.2750   10.9450   32.7340 C.ar  361  FLZ361      0.0031
     15  O13       21.4770   13.9380   31.5490 O.2   361  FLZ361     -0.2635
     16  C8        21.5150   12.6910   31.4520 C.ar  361  FLZ361      0.2974
     17  C19       17.5400   11.5090   32.5890 C.ar  361  FLZ361      0.0375
     18  N1        22.7950    7.8540   31.1920 N.2   361  FLZ361     -0.1685
     19  N7        22.7580   12.0050   31.5180 N.ar  361  FLZ361     -0.2655
     20  N3        23.9290    9.9010   31.4670 N.2   361  FLZ361     -0.3182
     21  N20       25.1410    7.9000   31.4280 N.pl3 361  FLZ361     -0.1637
     22  C21       26.3460    8.6170   31.8220 C.3   361  FLZ361      0.1097
     23  C26       27.1230    9.0740   30.5840 C.3   361  FLZ361      0.0546
     24  C25       28.4450    9.7260   30.9950 C.3   361  FLZ361      0.1440
     25  O24       29.2180    8.8010   31.7700 O.3   361  FLZ361     -0.3537
     26  C23       28.5880    8.4170   33.0020 C.3   361  FLZ361      0.1440
@<TRIPOS>BOND
     1    11    13   ar
     2    11     8   ar
     3    13    12   ar
     4    23    24    1
     5    23    22    1
     6    24    25    1
     7     5    18    1
     8     5     4    2
     9     2     4   ar
    10     2     7   ar
    11    18     6    2
    12     1     7    1
    13     1     8    1
    14     4     3   ar
    15     7    16   ar
    16     6    21    1
    17     6    20    2
    18     8    17   ar
    19     3    20    2
    20     3    19   ar
    21    21    22    1
    22    16    19   ar
    23    16    15    2
    24    19     9    1
    25    12    14   ar
    26    25    26    1
    27    22    10    1
    28    17    14   ar
    29    10    26    1
