@<TRIPOS>MOLECULE
3fm1_HEM_A_1.pdb
 43 50 0 0 0
SMALL
GASTEIGER

@<TRIPOS>ATOM
      1  CHA       46.0310   41.2080   -2.0330 C.2   350  HEM350      0.0000
      2  CHB       49.7650   38.4500   -0.4080 C.2   350  HEM350      0.0000
      3  CHC       52.1150   42.5290    0.8200 C.2   350  HEM350      0.0000
      4  CHD       48.5650   45.2720   -1.1060 C.2   350  HEM350      0.0000
      5  C1A       46.9210   40.1660   -1.8350 C.2   350  HEM350      0.0000
      6  C2A       46.5640   38.7760   -2.1020 C.2   350  HEM350      0.0000
      7  C3A       47.5730   38.0280   -1.6270 C.2   350  HEM350      0.0000
      8  C4A       48.5630   38.8900   -0.9940 C.2   350  HEM350      0.0000
      9  CMA       47.7160   36.4990   -1.7390 C.3   350  HEM350      0.0000
     10  CAA       45.2430   38.2870   -2.7840 C.3   350  HEM350      0.0000
     11  CBA       45.4370   38.1830   -4.2920 C.3   350  HEM350      0.0000
     12  CGA       44.2630   37.4590   -4.9370 C.2   350  HEM350      0.0000
     13  O1A       44.1640   36.2230   -4.7340 O.co2 350  HEM350      0.0000
     14  O2A       43.4170   38.1250   -5.5980 O.co2 350  HEM350      0.0000
     15  C1B       50.7400   39.3210    0.0840 C.ar  350  HEM350      0.0000
     16  C2B       51.9660   38.9090    0.7560 C.ar  350  HEM350      0.0000
     17  C3B       52.6230   40.0380    1.1380 C.ar  350  HEM350      0.0000
     18  C4B       51.8390   41.1890    0.6660 C.ar  350  HEM350      0.0000
     19  CMB       52.4130   37.4410    0.9810 C.3   350  HEM350      0.0000
     20  CAB       53.9960   40.0840    1.8790 C.2   350  HEM350      0.0000
     21  CBB       54.4420   41.1810    2.4910 C.2   350  HEM350      0.0000
     22  C1C       51.4000   43.5940    0.2740 C.2   350  HEM350      0.0000
     23  C2C       51.8340   44.9740    0.3390 C.2   350  HEM350      0.0000
     24  C3C       50.8970   45.7280   -0.2670 C.2   350  HEM350      0.0000
     25  C4C       49.8220   44.8470   -0.7290 C.2   350  HEM350      0.0000
     26  CMC       53.2110   45.4570    0.8700 C.3   350  HEM350      0.0000
     27  CAC       50.9960   47.2650   -0.3670 C.2   350  HEM350      0.0000
     28  CBC       50.4970   47.9310   -1.4020 C.2   350  HEM350      0.0000
     29  C1D       47.5270   44.4240   -1.3760 C.ar  350  HEM350      0.0000
     30  C2D       46.1920   44.8760   -1.6460 C.ar  350  HEM350      0.0000
     31  C3D       45.4230   43.6410   -2.0370 C.ar  350  HEM350      0.0000
     32  C4D       46.3500   42.5250   -1.8540 C.ar  350  HEM350      0.0000
     33  CMD       45.6590   46.3120   -1.6140 C.3   350  HEM350      0.0000
     34  CAD       43.9270   43.5890   -2.4000 C.3   350  HEM350      0.0000
     35  CBD       43.7640   43.4000   -3.9060 C.3   350  HEM350      0.0000
     36  CGD       42.2930   43.2830   -4.2060 C.2   350  HEM350      0.0000
     37  O1D       42.0430   43.0840   -5.3960 O.co2 350  HEM350      0.0000
     38  O2D       41.4200   43.5630   -3.3660 O.co2 350  HEM350      0.0000
     39  NA        48.0910   40.1930   -1.1150 N.2   350  HEM350      0.0000
     40  NB        50.6960   40.7230    0.0830 N.ar  350  HEM350      0.0000
     41  NC        50.1060   43.5970   -0.2920 N.2   350  HEM350      0.0000
     42  ND        47.5770   43.0100   -1.4040 N.ar  350  HEM350      0.0000
     43 FE         48.9500   41.8610   -0.3080 Fe    350  HEM350      0.0000
@<TRIPOS>BOND
     1    14    12   ar
     2    37    36   ar
     3    12    13   ar
     4    12    11    1
     5    11    10    1
     6    36    35    1
     7    36    38   ar
     8    35    34    1
     9    10     6    1
    10    34    31    1
    11     6     5    1
    12     6     7    2
    13    31    32   ar
    14    31    30   ar
    15     1    32    2
    16     1     5    1
    17    32    42   ar
    18     5    39    2
    19     9     7    1
    20    30    33    1
    21    30    29   ar
    22     7     8    1
    23    42    29   ar
    24    42    43    1
    25    28    27    2
    26    29     4    2
    27    39     8    1
    28    39    43    1
    29     4    25    1
    30     8     2    2
    31    25    41    2
    32    25    24    1
    33     2    15    1
    34    27    24    1
    35    43    41    1
    36    43    40    1
    37    41    22    1
    38    24    23    2
    39    40    15   ar
    40    40    18   ar
    41    15    16   ar
    42    22    23    1
    43    22     3    2
    44    23    26    1
    45    18     3    1
    46    18    17   ar
    47    16    19    1
    48    16    17   ar
    49    17    20    1
    50    20    21    2
