@<TRIPOS>MOLECULE
3fm4_HEM_A_1.pdb
 43 50 0 0 0
SMALL
GASTEIGER

@<TRIPOS>ATOM
      1  CHA       45.5880   40.3560   -1.9420 C.2   350  HEM350      0.0000
      2  CHB       49.3170   37.6900   -0.2210 C.2   350  HEM350      0.0000
      3  CHC       51.6230   41.7740    1.0390 C.2   350  HEM350      0.0000
      4  CHD       48.0620   44.4440   -0.8950 C.2   350  HEM350      0.0000
      5  C1A       46.4680   39.3050   -1.6810 C.2   350  HEM350      0.0000
      6  C2A       46.2390   37.9130   -2.0160 C.2   350  HEM350      0.0000
      7  C3A       47.2490   37.2030   -1.5200 C.2   350  HEM350      0.0000
      8  C4A       48.1350   38.0900   -0.8190 C.2   350  HEM350      0.0000
      9  CMA       47.4940   35.6830   -1.6080 C.3   350  HEM350      0.0000
     10  CAA       44.9830   37.3610   -2.7410 C.3   350  HEM350      0.0000
     11  CBA       45.2140   37.2720   -4.2530 C.3   350  HEM350      0.0000
     12  CGA       44.0410   36.5320   -4.8590 C.2   350  HEM350      0.0000
     13  O1A       43.9540   35.2790   -4.6860 O.co2 350  HEM350      0.0000
     14  O2A       43.1420   37.2100   -5.4310 O.co2 350  HEM350      0.0000
     15  C1B       50.2220   38.5600    0.3320 C.ar  350  HEM350      0.0000
     16  C2B       51.4080   38.1800    1.0580 C.ar  350  HEM350      0.0000
     17  C3B       52.0630   39.3060    1.3820 C.ar  350  HEM350      0.0000
     18  C4B       51.2660   40.4410    0.9450 C.ar  350  HEM350      0.0000
     19  CMB       51.8750   36.7370    1.3510 C.3   350  HEM350      0.0000
     20  CAB       53.3680   39.3540    2.2010 C.2   350  HEM350      0.0000
     21  CBB       53.6250   40.4050    2.9920 C.2   350  HEM350      0.0000
     22  C1C       50.9160   42.8600    0.5420 C.2   350  HEM350      0.0000
     23  C2C       51.3600   44.2360    0.5140 C.2   350  HEM350      0.0000
     24  C3C       50.3610   44.9740    0.0150 C.2   350  HEM350      0.0000
     25  C4C       49.3120   44.0770   -0.4420 C.2   350  HEM350      0.0000
     26  CMC       52.6720   44.7790    1.1340 C.3   350  HEM350      0.0000
     27  CAC       50.3700   46.5210   -0.0570 C.2   350  HEM350      0.0000
     28  CBC       49.8500   47.1760   -1.0890 C.2   350  HEM350      0.0000
     29  C1D       47.0070   43.6130   -1.2070 C.ar  350  HEM350      0.0000
     30  C2D       45.6700   44.0640   -1.5550 C.ar  350  HEM350      0.0000
     31  C3D       44.9010   42.8080   -1.9470 C.ar  350  HEM350      0.0000
     32  C4D       45.8300   41.6990   -1.7340 C.ar  350  HEM350      0.0000
     33  CMD       45.1270   45.4980   -1.5520 C.3   350  HEM350      0.0000
     34  CAD       43.4190   42.7720   -2.3600 C.3   350  HEM350      0.0000
     35  CBD       43.3910   42.4820   -3.8460 C.3   350  HEM350      0.0000
     36  CGD       41.9680   42.3340   -4.2880 C.2   350  HEM350      0.0000
     37  O1D       41.7620   42.0040   -5.4840 O.co2 350  HEM350      0.0000
     38  O2D       41.0330   42.5510   -3.4820 O.co2 350  HEM350      0.0000
     39  NA        47.6450   39.3740   -0.9520 N.2   350  HEM350      0.0000
     40  NB        50.1730   39.9420    0.2580 N.ar  350  HEM350      0.0000
     41  NC        49.6680   42.8060   -0.0740 N.2   350  HEM350      0.0000
     42  ND        47.0700   42.2280   -1.3430 N.ar  350  HEM350      0.0000
     43 FE         48.4460   41.1190   -0.1770 Fe    350  HEM350      0.0000
@<TRIPOS>BOND
     1    37    36   ar
     2    14    12   ar
     3    12    13   ar
     4    12    11    1
     5    36    35    1
     6    36    38   ar
     7    11    10    1
     8    35    34    1
     9    10     6    1
    10    34    31    1
    11     6     5    1
    12     6     7    2
    13    31    32   ar
    14    31    30   ar
    15     1    32    2
    16     1     5    1
    17    32    42   ar
    18     5    39    2
    19     9     7    1
    20    30    33    1
    21    30    29   ar
    22     7     8    1
    23    42    29   ar
    24    42    43    1
    25    29     4    2
    26    28    27    2
    27    39     8    1
    28    39    43    1
    29     4    25    1
    30     8     2    2
    31    25    41    2
    32    25    24    1
    33     2    15    1
    34    43    41    1
    35    43    40    1
    36    41    22    1
    37    27    24    1
    38    24    23    2
    39    40    15   ar
    40    40    18   ar
    41    15    16   ar
    42    23    22    1
    43    23    26    1
    44    22     3    2
    45    18     3    1
    46    18    17   ar
    47    16    19    1
    48    16    17   ar
    49    17    20    1
    50    20    21    2
