@<TRIPOS>MOLECULE
3fma_III_L_1.pdb
 44 46 0 0 0
SMALL
GASTEIGER

@<TRIPOS>ATOM
      1  N        -43.0570  -61.0800   36.4500 N.3     4  ALA4       -0.1231
      2  CA       -42.5970  -59.9520   37.3380 C.3     4  ALA4        0.1679
      3  C        -42.3430  -58.5970   36.6090 C.2     4  ALA4        0.2434
      4  O        -41.6760  -58.5670   35.5570 O.2     4  ALA4       -0.2733
      5  CB       -41.3770  -60.3800   38.1220 C.3     4  ALA4        0.0304
      6  N        -42.8630  -57.4770   37.1780 N.am    5  PRO5       -0.2718
      7  CA       -42.9890  -56.2020   36.4580 C.3     5  PRO5        0.1520
      8  C        -41.6830  -55.5810   35.9910 C.2     5  PRO5        0.2440
      9  O        -40.6610  -55.7930   36.6440 O.2     5  PRO5       -0.2731
     10  CB       -43.6820  -55.2820   37.4710 C.3     5  PRO5        0.0310
     11  CG       -43.4120  -55.8710   38.7790 C.3     5  PRO5        0.0237
     12  CD       -43.3560  -57.3470   38.5640 C.3     5  PRO5        0.0939
     13  N        -41.7230  -54.8240   34.8690 N.am    6  PRO6       -0.2717
     14  CA       -40.5540  -54.0920   34.3900 C.3     6  PRO6        0.1521
     15  C        -40.2690  -52.9310   35.3230 C.2     6  PRO6        0.2440
     16  O        -41.2290  -52.3400   35.8610 O.2     6  PRO6       -0.2731
     17  CB       -40.9820  -53.5390   33.0240 C.3     6  PRO6        0.0310
     18  CG       -42.2860  -54.1110   32.7370 C.3     6  PRO6        0.0237
     19  CD       -42.8930  -54.5710   34.0120 C.3     6  PRO6        0.0939
     20  N        -38.9750  -52.6000   35.5240 N.am    7  PRO7       -0.2716
     21  CA       -38.6310  -51.4790   36.4130 C.3     7  PRO7        0.1536
     22  C        -39.2590  -50.1600   35.9750 C.2     7  PRO7        0.2599
     23  O        -39.3460  -49.8690   34.7790 O.2     7  PRO7       -0.2715
     24  CB       -37.0990  -51.4230   36.3610 C.3     7  PRO7        0.0310
     25  CG       -36.6960  -52.2760   35.2160 C.3     7  PRO7        0.0237
     26  CD       -37.7740  -53.2860   35.0140 C.3     7  PRO7        0.0939
     27  N        -39.7100  -49.3890   36.9550 N.am    8  GLY8       -0.1941
     28  CA       -40.2490  -48.0660   36.7370 C.3     8  GLY8        0.2014
     29  C        -41.6670  -47.9940   36.2310 C.2     8  GLY8        0.2639
     30  O        -42.1610  -46.9020   35.9780 O.2     8  GLY8       -0.2714
     31  N        -42.3350  -49.1320   36.0740 N.am    9  LEU9       -0.1963
     32  CA       -43.7300  -49.1630   35.5970 C.3     9  LEU9        0.1728
     33  C        -44.6490  -49.9550   36.5390 C.2     9  LEU9        0.2616
     34  O        -44.4470  -51.1680   36.7470 O.2     9  LEU9       -0.2715
     35  CB       -43.8060  -49.7290   34.1630 C.3     9  LEU9        0.0311
     36  CG       -42.8220  -49.2950   33.0630 C.3     9  LEU9        0.0022
     37  CD1      -42.9710  -50.1770   31.8400 C.3     9  LEU9        0.0001
     38  CD2      -42.9720  -47.8250   32.6800 C.3     9  LEU9        0.0001
     39  N        -45.6450  -49.2790   37.1160 N.am   10  SER10      -0.1950
     40  CA       -46.6820  -49.9680   37.9210 C.3    10  SER10       0.1924
     41  C        -48.0230  -49.2230   37.9940 C.2    10  SER10       0.2314
     42  O        -49.0890  -49.8590   37.9890 O.2    10  SER10      -0.2863
     43  CB       -46.1790  -50.3430   39.3350 C.3    10  SER10       0.2116
     44  OG       -45.3770  -51.5180   39.2790 O.3    10  SER10      -0.2180
@<TRIPOS>BOND
     1    37    36    1
     2    38    36    1
     3    18    17    1
     4    18    19    1
     5    17    14    1
     6    36    35    1
     7    19    13    1
     8    35    32    1
     9    14    13    1
    10    14    15    1
    11    23    22    2
    12    13     8   am
    13    26    25    1
    14    26    20    1
    15    25    24    1
    16    15    20   am
    17    15    16    2
    18    20    21    1
    19     4     3    2
    20    32    31    1
    21    32    33    1
    22    22    21    1
    23    22    27   am
    24    30    29    2
    25     8     7    1
    26     8     9    2
    27    31    29   am
    28    29    28    1
    29    24    21    1
    30     1     2    1
    31     7     6    1
    32     7    10    1
    33    33    34    2
    34    33    39   am
    35     3     6   am
    36     3     2    1
    37    28    27    1
    38    39    40    1
    39     6    12    1
    40     2     5    1
    41    10    11    1
    42    40    41    1
    43    40    43    1
    44    42    41    2
    45    12    11    1
    46    44    43    1
