@<TRIPOS>MOLECULE
3fmd_IQB_A_1.pdb
 27 29 0 0 0
SMALL
GASTEIGER

@<TRIPOS>ATOM
      1  C1       -12.9750  -10.1770   13.2970 C.ar    1  IQB1        0.1236
      2  C2       -12.3560   -9.8960   12.1020 C.ar    1  IQB1        0.0200
      3  C3       -11.2650  -10.6550   11.6750 C.ar    1  IQB1        0.0014
      4  C4       -10.7470  -11.6870   12.4730 C.ar    1  IQB1        0.0016
      5  C5       -11.3500  -11.9650   13.7000 C.ar    1  IQB1        0.0205
      6  C6       -10.8790  -13.0120   14.5200 C.ar    1  IQB1        0.0989
      7  N7       -11.4600  -13.2890   15.6830 N.ar    1  IQB1       -0.2423
      8  C8       -12.4950  -12.5990   16.1240 C.ar    1  IQB1        0.0989
      9  C9       -13.0600  -11.5700   15.3550 C.ar    1  IQB1        0.0220
     10  C10      -12.4690  -11.2100   14.1170 C.ar    1  IQB1        0.0217
     11  S        -14.4100   -9.2130   13.8200 S.O2    1  IQB1        0.0769
     12  O1       -14.7320   -8.1310   12.8390 O.2     1  IQB1       -0.1516
     13  O2       -15.5570  -10.0260   14.2750 O.2     1  IQB1       -0.1516
     14  N1'      -13.9860   -8.4410   15.2370 N.3     1  IQB1       -0.0763
     15  C2'      -12.9820   -7.3310   15.0860 C.3     1  IQB1        0.1342
     16  C3'      -13.5360   -5.9330   14.7610 C.3     1  IQB1        0.1099
     17  N4'      -14.6110   -5.5940   15.6900 N.3     1  IQB1       -0.2117
     18  C5'      -15.3210   -4.3730   15.2940 C.3     1  IQB1        0.1148
     19  C6'      -14.5220   -3.2370   15.3690 C.2     1  IQB1       -0.0074
     20  C7'      -14.7190   -2.2640   14.3990 C.2     1  IQB1       -0.0031
     21  C1'      -14.0210   -1.0680   14.4760 C.ar    1  IQB1       -0.0002
     22  C2B      -13.5960   -0.4700   13.3160 C.ar    1  IQB1        0.0005
     23  C3B      -12.9130    0.7350   13.3960 C.ar    1  IQB1        0.0067
     24  C4'      -12.6450    1.2990   14.6370 C.ar    1  IQB1        0.0346
     25 BR4'      -11.6500    2.9290   14.6650 Br      1  IQB1       -0.0490
     26  C5B      -13.0600    0.6910   15.7950 C.ar    1  IQB1        0.0067
     27  C6B      -13.7650   -0.4840   15.7130 C.ar    1  IQB1        0.0005
@<TRIPOS>BOND
     1     3     2   ar
     2     3     4   ar
     3     2     1   ar
     4     4     5   ar
     5    12    11    2
     6     1    11    1
     7     1    10   ar
     8    22    23   ar
     9    22    21   ar
    10    23    24   ar
    11     5    10   ar
    12     5     6   ar
    13    11    13    2
    14    11    14    1
    15    10     9   ar
    16    20    21    1
    17    20    19    2
    18    21    27   ar
    19     6     7   ar
    20    24    25    1
    21    24    26   ar
    22    16    15    1
    23    16    17    1
    24    15    14    1
    25    18    19    1
    26    18    17    1
    27     9     8   ar
    28     7     8   ar
    29    27    26   ar
