@<TRIPOS>MOLECULE
3fmf_DSD_A_1.pdb
 16 15 0 0 0
SMALL
GASTEIGER

@<TRIPOS>ATOM
      1  C1        -8.8350   19.7830  -35.9490 C.2   250  DSD250      0.3649
      2  O1        -9.7330   20.4840  -35.4230 O.co2 250  DSD250     -0.2457
      3  O2        -7.8260   19.4200  -35.3290 O.co2 250  DSD250     -0.2457
      4  C2        -8.9470   19.3790  -37.4090 C.3   250  DSD250      0.1141
      5  C3        -7.9750   20.1700  -38.2930 C.3   250  DSD250      0.0118
      6  C4        -8.0910   19.7530  -39.7620 C.3   250  DSD250      0.0006
      7  C5        -7.3050   20.6610  -40.7090 C.3   250  DSD250      0.0018
      8  C6        -7.4350   20.2160  -42.1710 C.3   250  DSD250      0.0233
      9  C7        -6.4580   20.9690  -43.0840 C.3   250  DSD250      0.1163
     10  C8        -6.8230   22.4550  -43.2890 C.3   250  DSD250      0.1118
     11  C9        -8.2350   22.7130  -43.8220 C.3   250  DSD250      0.0223
     12  N7        -6.5280   20.2810  -44.3790 N.am  250  DSD250     -0.1660
     13  C         -5.4340   19.8050  -45.0050 C.2   250  DSD250      0.4629
     14  O         -4.2940   19.9540  -44.4950 O.co2 250  DSD250     -0.2207
     15  OXT       -5.5690   19.2160  -46.1010 O.co2 250  DSD250     -0.2207
     16  N8        -5.8540   23.0800  -44.1820 N.3   250  DSD250     -0.1311
@<TRIPOS>BOND
     1    15    13   ar
     2    13    14   ar
     3    13    12   am
     4    12     9    1
     5    16    10    1
     6    11    10    1
     7    10     9    1
     8     9     8    1
     9     8     7    1
    10     7     6    1
    11     6     5    1
    12     5     4    1
    13     4     1    1
    14     1     2   ar
    15     1     3   ar
