@<TRIPOS>MOLECULE
3fmh_533_A_1.pdb
 30 33 0 0 0
SMALL
GASTEIGER

@<TRIPOS>ATOM
      1  F23       14.0760   10.1660   30.7630 F     361  533361     -0.2041
      2  C19       15.2940   10.7100   30.8850 C.ar  361  533361      0.1426
      3  C18       15.7790   11.5330   29.8710 C.ar  361  533361      0.0329
      4  C17       17.0440   12.0980   29.9910 C.ar  361  533361      0.0416
      5  C20       16.0640   10.4470   32.0140 C.ar  361  533361      0.0624
      6  C21       17.3340   11.0110   32.1280 C.ar  361  533361      0.1761
      7  F22       18.0760   10.7510   33.2190 F     361  533361     -0.2009
      8  C16       17.8250   11.8320   31.1130 C.ar  361  533361      0.1669
      9  O15       19.0680   12.4140   31.2000 O.3   361  533361     -0.4632
     10  C12       20.2780   11.7480   31.1630 C.3   361  533361      0.2637
     11  C11       21.4170   12.5350   31.3340 C.2   361  533361      0.2758
     12  O14       21.3110   13.7670   31.5060 O.2   361  533361     -0.2702
     13  N10       22.6880   11.9280   31.3220 N.am  361  533361     -0.2285
     14  C24       23.9300   12.6990   31.4980 C.3   361  533361      0.1226
     15  C9        22.7230   10.5390   31.1190 C.2   361  533361      0.1996
     16  N5        23.9090    9.8970   31.0910 N.2   361  533361     -0.3212
     17  C13       20.3800   10.4560   30.9800 C.2   361  533361      0.0276
     18  C8        21.5290    9.8330   30.9510 C.2   361  533361      0.0479
     19  C6        21.6200    8.4500   30.7550 C.3   361  533361      0.1686
     20  N7        22.8250    7.8400   30.7320 N.2   361  533361     -0.1915
     21  C4        23.9720    8.5630   30.9010 C.1   361  533361      0.1622
     22  N1        25.2080    7.9960   30.8860 N.pl3 361  533361     -0.1620
     23  C2        26.3780    8.8790   30.8210 C.3   361  533361      0.1309
     24  C26       27.4150    8.3400   29.8450 C.3   361  533361      0.0264
     25  C3        26.9480    9.0450   32.2370 C.3   361  533361      0.1736
     26  N25       27.0960    7.7860   32.9740 N.ar  361  533361     -0.1490
     27  N30       26.3590    7.4970   34.1190 N.ar  361  533361     -0.1263
     28  C29       26.7940    6.2650   34.4900 C.ar  361  533361      0.2447
     29  N28       27.7520    5.8160   33.6270 N.ar  361  533361     -0.1044
     30  N27       27.9870    6.7780   32.6260 N.ar  361  533361     -0.0449
@<TRIPOS>BOND
     1    24    23    1
     2     3     4   ar
     3     3     2   ar
     4     4     8   ar
     5    20    19    1
     6    20    21    2
     7    19    18    1
     8     1     2    1
     9    23    22    1
    10    23    25    1
    11     2     5   ar
    12    22    21    1
    13    21    16    2
    14    18    17    2
    15    18    15    1
    16    17    10    1
    17    16    15    2
    18     8     9    1
    19     8     6   ar
    20    15    13    1
    21    10     9    1
    22    10    11    1
    23    13    11   am
    24    13    14    1
    25    11    12    2
    26     5     6   ar
    27     6     7    1
    28    25    26    1
    29    30    26   ar
    30    30    29   ar
    31    26    27   ar
    32    29    28   ar
    33    27    28   ar
