@<TRIPOS>MOLECULE
3fmi_KAP_A_1.pdb
 13 12 0 0 0
SMALL
GASTEIGER

@<TRIPOS>ATOM
      1  CA        -9.0750   19.6160  -37.7680 C.3   430  KAP430      0.1141
      2  C         -9.1440   19.9200  -36.2420 C.2   430  KAP430      0.3649
      3  OI1      -10.1380   20.5690  -35.8500 O.co2 430  KAP430     -0.2457
      4  OI2       -8.2100   19.4750  -35.5300 O.co2 430  KAP430     -0.2457
      5  CB        -7.8530   20.1780  -38.5260 C.3   430  KAP430      0.0118
      6  CG        -7.7990   19.5250  -39.9220 C.3   430  KAP430      0.0010
      7  CD        -6.9260   20.2780  -40.9250 C.3   430  KAP430      0.0078
      8  CE        -7.6840   20.7830  -42.1620 C.3   430  KAP430      0.0660
      9  CZ        -6.8010   21.8450  -42.8330 C.2   430  KAP430      0.1679
     10  CH        -7.2820   22.6940  -44.0360 C.3   430  KAP430      0.1489
     11  CS        -8.7890   22.9270  -44.0190 C.3   430  KAP430      0.0285
     12  O         -5.6700   22.0240  -42.3810 O.2   430  KAP430     -0.2946
     13  N         -6.8950   22.0950  -45.3210 N.3   430  KAP430     -0.1250
@<TRIPOS>BOND
     1    13    10    1
     2    10    11    1
     3    10     9    1
     4     9    12    2
     5     9     8    1
     6     8     7    1
     7     7     6    1
     8     6     5    1
     9     5     1    1
    10     1     2    1
    11     2     3   ar
    12     2     4   ar
