@<TRIPOS>MOLECULE
3fmj_FMJ_A_1.pdb
 19 21 0 0 0
SMALL
GASTEIGER

@<TRIPOS>ATOM
      1  C1        18.9020   12.9630   31.7220 C.ar  361  FMJ361      0.1250
      2  C2        20.2310   12.4920   31.6540 C.ar  361  FMJ361      0.0842
      3  C3        17.6580   12.1470   31.8530 C.ar  361  FMJ361      0.0210
      4  C5        20.7460   11.0910   31.7070 C.2   361  FMJ361      0.1500
      5  C6        21.0790   13.7030   31.5250 C.ar  361  FMJ361      0.1572
      6  C14       16.3710   10.4180   32.9410 C.ar  361  FMJ361      0.0000
      7  C16       20.7490    8.8120   30.9580 C.2   361  FMJ361      0.1145
      8  N19       23.2220    9.2180   33.5050 N.pl3 361  FMJ361     -0.0345
      9  C15       22.2260    9.5150   32.6330 C.1   361  FMJ361      0.1864
     10  N10       21.7390   10.7780   32.5720 N.2   361  FMJ361     -0.3350
     11  N18       21.7250    8.5440   31.8320 N.2   361  FMJ361     -0.1673
     12  C11       20.2330   10.1010   30.8750 C.2   361  FMJ361      0.0547
     13  C12       22.5560   13.9760   31.4090 C.3   361  FMJ361      0.0755
     14  O9        20.2440   14.7690   31.5220 O.2   361  FMJ361     -0.3577
     15  N4        18.8830   14.3280   31.6380 N.ar  361  FMJ361     -0.0773
     16  C8        17.5450   11.1620   32.8360 C.ar  361  FMJ361      0.0016
     17  C17       15.3080   10.6640   32.0690 C.ar  361  FMJ361      0.0000
     18  C13       15.4200   11.6480   31.0910 C.ar  361  FMJ361      0.0000
     19  C7        16.5950   12.3910   30.9850 C.ar  361  FMJ361      0.0016
@<TRIPOS>BOND
     1    12     7    2
     2    12     4    1
     3     7    11    1
     4    19    18   ar
     5    19     3   ar
     6    18    17   ar
     7    13     5    1
     8    14     5   ar
     9    14    15   ar
    10     5     2   ar
    11    15     1   ar
    12     2     4    1
    13     2     1   ar
    14     4    10    2
    15     1     3    1
    16    11     9    2
    17     3    16   ar
    18    17     6   ar
    19    10     9    2
    20     9     8    1
    21    16     6   ar
