@<TRIPOS>MOLECULE
3fmk_FMK_A_1.pdb
 30 33 0 0 0
SMALL
GASTEIGER

@<TRIPOS>ATOM
      1  C21       17.3180   11.4420   32.0230 C.ar  361  FMK361      0.1766
      2  C20       16.0370   10.8980   31.9270 C.ar  361  FMK361      0.0624
      3  C24       23.6820   12.6880   32.6010 C.3   361  FMK361      0.1362
      4  C18       15.7790   11.8920   29.7400 C.ar  361  FMK361      0.0329
      5  C6        21.5440    8.5730   30.9910 C.2   361  FMK361      0.1159
      6  C2        26.0440    8.5540   32.6650 C.3   361  FMK361      0.1309
      7  C3        27.0310    8.8490   31.5380 C.3   361  FMK361      0.1736
      8  C4        23.7540    8.5620   31.7750 C.1   361  FMK361      0.1666
      9  C11       21.3250   12.6900   31.7750 C.ar  361  FMK361      0.2974
     10  C12       20.2200   12.0300   31.2570 C.ar  361  FMK361      0.2014
     11  C13       20.2860   10.6570   30.9870 C.ar  361  FMK361      0.0481
     12  C16       17.8280   12.2090   30.9730 C.ar  361  FMK361      0.1729
     13  C17       17.0570   12.4340   29.8370 C.ar  361  FMK361      0.0421
     14  C8        21.4570    9.9400   31.2480 C.ar  361  FMK361      0.0707
     15  C9        22.5680   10.5950   31.7760 C.ar  361  FMK361      0.2119
     16  N1        24.9050    7.8890   32.0380 N.pl3 361  FMK361     -0.1617
     17  C19       15.2710   11.1250   30.7850 C.ar  361  FMK361      0.1426
     18  F23       14.0360   10.5990   30.6840 F     361  FMK361     -0.2041
     19  F22       18.0470   11.2130   33.1300 F     361  FMK361     -0.2009
     20  O15       19.0840   12.7650   31.0190 O.3   361  FMK361     -0.4464
     21  O14       21.2620   13.9180   32.0030 O.2   361  FMK361     -0.2635
     22  N10       22.5150   11.9810   32.0450 N.ar  361  FMK361     -0.2655
     23  N5        23.6920    9.8900   32.0250 N.2   361  FMK361     -0.3182
     24  N7        22.6840    7.9080   31.2570 N.2   361  FMK361     -0.1685
     25  C30       26.6680    7.6300   33.7040 C.3   361  FMK361      0.0264
     26  N25       26.4780    9.8360   30.6110 N.ar  361  FMK361     -0.1490
     27  N29       25.8610    9.4940   29.4120 N.ar  361  FMK361     -0.1263
     28  C28       25.4970   10.6860   28.8830 C.ar  361  FMK361      0.2447
     29  N27       25.8680   11.7120   29.7010 N.ar  361  FMK361     -0.1044
     30  N26       26.5090   11.2030   30.8460 N.ar  361  FMK361     -0.0449
@<TRIPOS>BOND
     1    28    27   ar
     2    28    29   ar
     3    27    26   ar
     4    29    30   ar
     5     4    13   ar
     6     4    17   ar
     7    13    12   ar
     8    26    30   ar
     9    26     7    1
    10    18    17    1
    11    17     2   ar
    12    12    20    1
    13    12     1   ar
    14    11    14   ar
    15    11    10   ar
    16     5    14    2
    17     5    24    1
    18    20    10    1
    19    14    15   ar
    20    10     9   ar
    21    24     8    2
    22     7     6    1
    23     9    21    2
    24     9    22   ar
    25     8    23    2
    26     8    16    1
    27    15    23    2
    28    15    22   ar
    29     2     1   ar
    30     1    19    1
    31    16     6    1
    32    22     3    1
    33     6    25    1
