@<TRIPOS>MOLECULE
3fml_FML_A_1.pdb
 26 28 0 0 0
SMALL
GASTEIGER

@<TRIPOS>ATOM
      1  C1        22.5210   11.2450   32.6500 C.2   361  FML361      0.1322
      2  N2        21.4720   12.0900   32.7320 N.2   361  FML361     -0.1497
      3  C3        20.2310   11.7590   32.2680 C.1   361  FML361      0.2663
      4  C5        22.3110    9.9920   32.0730 C.2   361  FML361      0.1861
      5  C6        20.9700    9.6320   31.5740 C.1   361  FML361      0.1540
      6  C9        23.0780    8.8700   31.8090 C.2   361  FML361      0.4003
      7  C11       17.9340   12.2410   32.0240 C.ar  361  FML361      0.1877
      8  C13       25.2100    9.6320   32.8450 C.3   361  FML361      0.2287
      9  C14       26.6270    9.7000   32.2720 C.3   361  FML361      0.2015
     10  C15       25.2300    9.2230   34.3160 C.3   361  FML361      0.0571
     11  F26       14.1690   10.9160   30.9800 F     361  FML361     -0.2041
     12  C22       15.3930   11.3560   31.3170 C.ar  361  FML361      0.1426
     13  C21       16.0730   12.2570   30.4930 C.ar  361  FML361      0.0330
     14  C20       17.3490   12.7010   30.8460 C.ar  361  FML361      0.0433
     15  C23       15.9810   10.8990   32.4930 C.ar  361  FML361      0.0624
     16  C24       17.2580   11.3380   32.8370 C.ar  361  FML361      0.1777
     17  F25       17.8380   10.9000   33.9690 F     361  FML361     -0.2008
     18  O10       19.1940   12.6550   32.3820 O.3   361  FML361     -0.3805
     19  N4        19.9790   10.5460   31.6980 N.2   361  FML361     -0.2618
     20  N7        21.0550    8.3810   31.0740 N.2   361  FML361      0.0341
     21  N8        22.3730    7.8970   31.2100 N.2   361  FML361      0.0947
     22  N12       24.4010    8.6990   32.0710 N.pl3 361  FML361     -0.0313
     23  S16       26.6630   10.4120   30.7610 S.O2  361  FML361     -0.0041
     24  O17       25.8300   11.5910   30.7320 O.2   361  FML361     -0.1728
     25  O18       28.0350   10.7700   30.5050 O.2   361  FML361     -0.1728
     26  C19       26.1780    9.3500   29.5730 C.3   361  FML361      0.1762
@<TRIPOS>BOND
     1    26    23    1
     2    13    14   ar
     3    13    12   ar
     4    25    23    2
     5    24    23    2
     6    23     9    1
     7    14     7   ar
     8    11    12    1
     9    20    21    1
    10    20     5    2
    11    21     6    2
    12    12    15   ar
    13     5    19    2
    14     5     4    1
    15    19     3    2
    16     6    22    1
    17     6     4    1
    18     7    18    1
    19     7    16   ar
    20    22     8    1
    21     4     1    2
    22     3    18    1
    23     3     2    2
    24     9     8    1
    25    15    16   ar
    26     1     2    1
    27    16    17    1
    28     8    10    1
