@<TRIPOS>MOLECULE
3fmm_XI2_A_1.pdb
 26 28 0 0 0
SMALL
GASTEIGER

@<TRIPOS>ATOM
      1  F26       14.1420   10.5140   30.5890 F     361  XI2361     -0.2041
      2  C22       15.4080   10.9470   30.7400 C.ar  361  XI2361      0.1426
      3  C21       16.0010   11.7600   29.7690 C.ar  361  XI2361      0.0330
      4  C20       17.3170   12.1970   29.9360 C.ar  361  XI2361      0.0433
      5  C23       16.1360   10.5700   31.8700 C.ar  361  XI2361      0.0624
      6  C24       17.4510   11.0070   32.0270 C.ar  361  XI2361      0.1777
      7  F25       18.1460   10.6420   33.1170 F     361  XI2361     -0.2008
      8  C19       18.0450   11.8180   31.0660 C.ar  361  XI2361      0.1877
      9  O18       19.3450   12.2470   31.2330 O.3   361  XI2361     -0.3805
     10  C3        20.3990   11.3570   31.2080 C.1   361  XI2361      0.2663
     11  N2        21.6430   11.7580   31.6010 N.2   361  XI2361     -0.1497
     12  N4        20.1710   10.0880   30.7900 N.2   361  XI2361     -0.2618
     13  C6        21.1820    9.1860   30.7500 C.1   361  XI2361      0.1540
     14  N7        21.2740    7.8930   30.3940 N.2   361  XI2361      0.0341
     15  N8        22.6000    7.4420   30.5570 N.2   361  XI2361      0.0947
     16  C9        23.3060    8.4900   31.0160 C.2   361  XI2361      0.4003
     17  C5        22.5220    9.6250   31.1780 C.2   361  XI2361      0.1861
     18  C1        22.7120   10.9350   31.6030 C.2   361  XI2361      0.1322
     19  N10       24.6290    8.3490   31.2840 N.pl3 361  XI2361     -0.0313
     20  C11       25.6260    9.4040   31.2740 C.3   361  XI2361      0.2287
     21  C13       25.7930    9.9100   29.8450 C.3   361  XI2361      0.0571
     22  C12       26.9610    8.8900   31.8300 C.3   361  XI2361      0.2015
     23  S14       26.9570    8.5530   33.4720 S.O2  361  XI2361     -0.0041
     24  O15       28.3160    8.4550   33.9260 O.2   361  XI2361     -0.1728
     25  O16       26.2880    9.5800   34.2200 O.2   361  XI2361     -0.1728
     26  C17       26.2140    7.1010   33.7900 C.3   361  XI2361      0.1762
@<TRIPOS>BOND
     1     3     4   ar
     2     3     2   ar
     3    21    20    1
     4     4     8   ar
     5    14    15    1
     6    14    13    2
     7    15    16    2
     8     1     2    1
     9     2     5   ar
    10    13    12    2
    11    13    17    1
    12    12    10    2
    13    16    17    1
    14    16    19    1
    15     8     9    1
    16     8     6   ar
    17    17    18    2
    18    10     9    1
    19    10    11    2
    20    20    19    1
    21    20    22    1
    22    11    18    1
    23    22    23    1
    24     5     6   ar
    25     6     7    1
    26    23    26    1
    27    23    24    2
    28    23    25    2
