@<TRIPOS>MOLECULE
3fmn_530_A_1.pdb
 25 28 0 0 0
SMALL
GASTEIGER

@<TRIPOS>ATOM
      1  F25       14.0890   10.6860   30.6230 F     361  530361     -0.2041
      2  C21       15.3540   11.1090   30.8110 C.ar  361  530361      0.1426
      3  C20       15.9950   11.8860   29.8430 C.ar  361  530361      0.0330
      4  C19       17.3090   12.3170   30.0500 C.ar  361  530361      0.0433
      5  C22       16.0240   10.7670   31.9830 C.ar  361  530361      0.0624
      6  C23       17.3330   11.2000   32.1860 C.ar  361  530361      0.1777
      7  F24       17.9650   10.8610   33.3200 F     361  530361     -0.2008
      8  C12       17.9780   11.9780   31.2270 C.ar  361  530361      0.1877
      9  O11       19.2760   12.4000   31.4320 O.3   361  530361     -0.3805
     10  C3        20.3150   11.5090   31.3300 C.1   361  530361      0.2663
     11  N2        21.5790   11.8800   31.6980 N.2   361  530361     -0.1497
     12  N4        20.0460   10.2660   30.8590 N.2   361  530361     -0.2618
     13  C6        21.0360    9.3520   30.7440 C.1   361  530361      0.1540
     14  N7        21.0900    8.0750   30.3250 N.2   361  530361      0.0341
     15  N8        22.4120    7.5920   30.4180 N.2   361  530361      0.0947
     16  C9        23.1520    8.6060   30.9020 C.2   361  530361      0.4002
     17  C5        22.3980    9.7480   31.1440 C.2   361  530361      0.1861
     18  C1        22.6290   11.0360   31.6220 C.2   361  530361      0.1322
     19  N10       24.4830    8.4330   31.1100 N.pl3 361  530361     -0.0330
     20  C13       25.4270    9.5140   31.3060 C.3   361  530361      0.2102
     21  C18       26.3790    9.5960   30.1150 C.3   361  530361      0.0830
     22  C17       27.4890   10.6120   30.3870 C.3   361  530361      0.1464
     23  O16       28.1750   10.2810   31.6000 O.3   361  530361     -0.3535
     24  C15       27.3340   10.2920   32.7600 C.3   361  530361      0.1464
     25  C14       26.2070    9.2720   32.5950 C.3   361  530361      0.0830
@<TRIPOS>BOND
     1     3     4   ar
     2     3     2   ar
     3     4     8   ar
     4    21    22    1
     5    21    20    1
     6    14    15    1
     7    14    13    2
     8    22    23    1
     9    15    16    2
    10     1     2    1
    11    13    12    2
    12    13    17    1
    13     2     5   ar
    14    12    10    2
    15    16    19    1
    16    16    17    1
    17    19    20    1
    18    17    18    2
    19     8     9    1
    20     8     6   ar
    21    20    25    1
    22    10     9    1
    23    10    11    2
    24    23    24    1
    25    18    11    1
    26     5     6   ar
    27     6     7    1
    28    25    24    1
