@<TRIPOS>MOLECULE
3fmo_ADP_B_1.pdb
 27 29 0 0 0
SMALL
GASTEIGER

@<TRIPOS>ATOM
      1  PB        44.5120  -13.9870   45.3500 P.3   301  ADP301      0.5373
      2  O1B       45.5070  -14.0390   44.2400 O.2   301  ADP301     -0.2221
      3  O2B       44.5800  -12.7200   46.1360 O.3   301  ADP301     -0.1143
      4  O3B       43.1600  -14.4180   44.9410 O.3   301  ADP301     -0.1143
      5  PA        44.1960  -16.5680   46.3920 P.3   301  ADP301      0.2231
      6  O1A       44.4460  -17.1400   45.0750 O.2   301  ADP301     -0.5169
      7  O2A       42.8250  -16.5930   46.9990 O.3   301  ADP301     -0.4370
      8  O3A       44.8990  -15.1380   46.3900 O.3   301  ADP301     -0.2261
      9  O5'       45.1560  -17.3770   47.3340 O.3   301  ADP301     -0.3111
     10  C5'       46.5670  -17.3730   47.0940 C.3   301  ADP301      0.1813
     11  C4'       47.1530  -18.7440   47.4220 C.3   301  ADP301      0.1821
     12  O4'       47.1490  -18.9390   48.8380 O.3   301  ADP301     -0.3135
     13  C3'       46.3550  -19.9020   46.8570 C.3   301  ADP301      0.2184
     14  O3'       47.2460  -20.9800   46.5740 O.3   301  ADP301     -0.2174
     15  C2'       45.4140  -20.3090   47.9690 C.3   301  ADP301      0.2570
     16  O2'       45.0300  -21.6930   47.9580 O.3   301  ADP301     -0.2130
     17  C1'       46.2070  -19.9530   49.2110 C.3   301  ADP301      0.3186
     18  N9        45.3440  -19.4410   50.3050 N.pl3 301  ADP301     -0.1439
     19  C8        44.3340  -18.5440   50.2420 C.3   301  ADP301      0.3377
     20  N7        43.8210  -18.3650   51.4820 N.2   301  ADP301     -0.2095
     21  C5        44.5210  -19.1590   52.3100 C.2   301  ADP301      0.2526
     22  C6        44.4730  -19.3950   53.6730 C.2   301  ADP301      0.4393
     23  N6        43.5670  -18.7410   54.4240 N.pl3 301  ADP301      0.2180
     24  N1        45.3420  -20.2790   54.2300 N.2   301  ADP301      0.0021
     25  C2        46.2520  -20.9230   53.4810 C.3   301  ADP301      0.5254
     26  N3        46.3330  -20.7000   52.1610 N.2   301  ADP301     -0.0055
     27  C4        45.4830  -19.8260   51.5650 C.2   301  ADP301      0.3518
@<TRIPOS>BOND
     1     2     1    2
     2     4     1    1
     3     6     5    2
     4     1     3    1
     5     1     8    1
     6     8     5    1
     7     5     7    1
     8     5     9    1
     9    14    13    1
    10    13    11    1
    11    13    15    1
    12    10     9    1
    13    10    11    1
    14    11    12    1
    15    16    15    1
    16    15    17    1
    17    12    17    1
    18    17    18    1
    19    19    18    1
    20    19    20    1
    21    18    27    1
    22    20    21    2
    23    27    26    2
    24    27    21    1
    25    26    25    1
    26    21    22    1
    27    25    24    1
    28    22    24    2
    29    22    23    1
