@<TRIPOS>MOLECULE
3fmp_ADP_B_1.pdb
 27 29 0 0 0
SMALL
GASTEIGER

@<TRIPOS>ATOM
      1  PB        16.5310   43.4480   61.3420 P.3   480  ADP480      0.5373
      2  O1B       15.2660   42.7530   61.8110 O.3   480  ADP480     -0.1143
      3  O2B       16.2730   44.6850   60.4900 O.2   480  ADP480     -0.2221
      4  O3B       17.5650   43.6430   62.4350 O.3   480  ADP480     -0.1143
      5  PA        17.0800   40.8290   60.4290 P.3   480  ADP480      0.2231
      6  O1A       16.6490   40.5280   61.8190 O.3   480  ADP480     -0.4370
      7  O2A       18.2300   40.0670   59.8380 O.2   480  ADP480     -0.5169
      8  O3A       17.2730   42.4150   60.3330 O.3   480  ADP480     -0.2261
      9  O5'       15.8780   40.6320   59.3990 O.3   480  ADP480     -0.3111
     10  C5'       14.4970   40.6090   59.7280 C.3   480  ADP480      0.1813
     11  C4'       13.9010   39.2480   59.4000 C.3   480  ADP480      0.1821
     12  O4'       13.8760   39.0480   57.9820 O.3   480  ADP480     -0.3135
     13  C3'       14.7130   38.1120   60.0040 C.3   480  ADP480      0.2184
     14  O3'       13.8450   37.2000   60.6750 O.3   480  ADP480     -0.2174
     15  C2'       15.4150   37.4390   58.8410 C.3   480  ADP480      0.2570
     16  O2'       15.3550   36.0110   58.9160 O.3   480  ADP480     -0.2130
     17  C1'       14.6800   37.9180   57.5970 C.3   480  ADP480      0.3186
     18  N9        15.6310   38.2620   56.5000 N.pl3 480  ADP480     -0.1439
     19  C8        16.7730   38.9670   56.6100 C.3   480  ADP480      0.3377
     20  N7        17.3510   39.0690   55.3930 N.2   480  ADP480     -0.2095
     21  C5        16.5590   38.4280   54.5210 C.2   480  ADP480      0.2526
     22  C6        16.6470   38.2170   53.1650 C.2   480  ADP480      0.4393
     23  N6        17.7050   38.7220   52.4950 N.pl3 480  ADP480      0.2180
     24  N1        15.6800   37.5160   52.5330 N.2   480  ADP480      0.0021
     25  C2        14.6370   37.0270   53.2190 C.3   480  ADP480      0.5254
     26  N3        14.5340   37.2210   54.5410 N.2   480  ADP480     -0.0055
     27  C4        15.4820   37.9190   55.2130 C.2   480  ADP480      0.3518
@<TRIPOS>BOND
     1    23    22    1
     2    24    22    2
     3    24    25    1
     4    22    21    1
     5    25    26    1
     6    21    27    1
     7    21    20    2
     8    26    27    2
     9    27    18    1
    10    20    19    1
    11    18    19    1
    12    18    17    1
    13    17    12    1
    14    17    15    1
    15    12    11    1
    16    15    16    1
    17    15    13    1
    18     9    10    1
    19     9     5    1
    20    11    10    1
    21    11    13    1
    22     7     5    2
    23    13    14    1
    24     8     5    1
    25     8     1    1
    26     5     6    1
    27     3     1    2
    28     1     2    1
    29     1     4    1
