@<TRIPOS>MOLECULE
3fmx_NAD_X_1.pdb
 44 48 0 0 0
SMALL
GASTEIGER

@<TRIPOS>ATOM
      1  PA       -76.0640   26.6550    2.0780 P.3   402  NAD402      0.2189
      2  O1A      -76.5810   27.0040    3.4880 O.3   402  NAD402     -0.4371
      3  O2A      -74.7020   25.9820    2.1320 O.2   402  NAD402     -0.5170
      4  O5B      -76.0560   28.0240    1.2090 O.3   402  NAD402     -0.3112
      5  C5B      -77.2990   28.5770    0.7900 C.3   402  NAD402      0.1813
      6  C4B      -77.0400   30.0140    0.2890 C.3   402  NAD402      0.1821
      7  O4B      -76.9020   30.9260    1.3740 O.3   402  NAD402     -0.3135
      8  C3B      -75.7420   30.0920   -0.5070 C.3   402  NAD402      0.2184
      9  O3B      -75.9690   30.9950   -1.5590 O.3   402  NAD402     -0.2174
     10  C2B      -74.7490   30.6440    0.5000 C.3   402  NAD402      0.2570
     11  O2B      -73.8330   31.4210   -0.2240 O.3   402  NAD402     -0.2130
     12  C1B      -75.6200   31.4890    1.4070 C.3   402  NAD402      0.3186
     13  N9A      -75.2960   31.5000    2.8340 N.pl3 402  NAD402     -0.1439
     14  C8A      -75.3340   30.4430    3.7260 C.3   402  NAD402      0.3377
     15  N7A      -75.0020   30.8960    4.9950 N.2   402  NAD402     -0.2095
     16  C5A      -74.7750   32.2380    4.9050 C.2   402  NAD402      0.2526
     17  C6A      -74.4060   33.2050    5.8570 C.2   402  NAD402      0.4393
     18  N6A      -74.4450   32.9190    7.1810 N.pl3 402  NAD402      0.2180
     19  N1A      -74.2430   34.5350    5.4420 N.2   402  NAD402      0.0021
     20  C2A      -74.4370   34.9040    4.1180 C.3   402  NAD402      0.5254
     21  N3A      -74.8060   33.9300    3.1940 N.2   402  NAD402     -0.0055
     22  C4A      -74.9720   32.6240    3.5700 C.2   402  NAD402      0.3518
     23  O3       -77.1380   25.7090    1.2690 O.3   402  NAD402     -0.2703
     24  PN       -76.5790   25.0220   -0.0830 P.3   402  NAD402      0.2189
     25  O1N      -75.7390   26.1220   -0.6910 O.3   402  NAD402     -0.4371
     26  O2N      -77.7430   24.4410   -0.8990 O.2   402  NAD402     -0.5170
     27  O5D      -75.6730   23.7810    0.5380 O.3   402  NAD402     -0.3112
     28  C5D      -74.2450   23.7510    0.4880 C.3   402  NAD402      0.1813
     29  C4D      -73.6790   22.4780    1.1470 C.3   402  NAD402      0.1799
     30  O4D      -73.9280   22.3440    2.5510 O.3   402  NAD402     -0.3327
     31  C3D      -74.3430   21.2450    0.5720 C.3   402  NAD402      0.2158
     32  O3D      -73.3010   20.2940    0.5590 O.3   402  NAD402     -0.2175
     33  C2D      -75.4580   20.8720    1.5570 C.3   402  NAD402      0.2309
     34  O2D      -75.7750   19.4970    1.5790 O.3   402  NAD402     -0.2158
     35  C1D      -74.8110   21.2520    2.8670 C.3   402  NAD402      0.2263
     36  N1N      -75.8150   21.6160    3.8970 N.pl3 402  NAD402     -0.2787
     37  C2N      -75.5440   21.3600    5.2420 C.3   402  NAD402      0.1244
     38  C3N      -76.4590   21.7060    6.2570 C.2   402  NAD402      0.0544
     39  C7N      -76.2130   21.2730    7.6850 C.2   402  NAD402      0.2818
     40  O7N      -74.9230   20.7740    8.0340 O.2   402  NAD402     -0.2670
     41  N7N      -77.1890   21.3800    8.5990 N.am  402  NAD402     -0.0839
     42  C4N      -77.6670   22.3340    5.9060 C.2   402  NAD402      0.0033
     43  C5N      -77.9350   22.5870    4.5500 C.2   402  NAD402      0.0157
     44  C6N      -76.9970   22.2280    3.5400 C.2   402  NAD402      0.0633
@<TRIPOS>BOND
     1     9     8    1
     2    26    24    2
     3    25    24    1
     4     8     6    1
     5     8    10    1
     6    11    10    1
     7    24    27    1
     8    24    23    1
     9     6     5    1
    10     6     7    1
    11    28    27    1
    12    28    29    1
    13    10    12    1
    14    32    31    1
    15    31    29    1
    16    31    33    1
    17     5     4    1
    18    29    30    1
    19     4     1    1
    20    23     1    1
    21     7    12    1
    22    12    13    1
    23    33    34    1
    24    33    35    1
    25     1     3    2
    26     1     2    1
    27    30    35    1
    28    13    22    1
    29    13    14    1
    30    35    36    1
    31    21    22    2
    32    21    20    1
    33    44    36    1
    34    44    43    2
    35    22    16    1
    36    14    15    1
    37    36    37    1
    38    20    19    1
    39    43    42    1
    40    16    15    2
    41    16    17    1
    42    37    38    1
    43    19    17    2
    44    17    18    1
    45    42    38    2
    46    38    39    1
    47    39    40    2
    48    39    41   am
