@<TRIPOS>MOLECULE
3fmz_2T1_A_1.pdb
 28 30 0 0 0
SMALL
GASTEIGER

@<TRIPOS>ATOM
      1  N1        11.1400  -20.3900    3.3340 N.am  184  2T1184     -0.2626
      2  N3         9.9020  -18.9950    1.9970 N.am  184  2T1184     -0.1620
      3  C4        13.8960  -24.8360    3.0400 C.ar  184  2T1184      0.0675
      4  C5        14.0900  -26.0940    2.4800 C.ar  184  2T1184      0.0035
      5  C6        13.3850  -26.4850    1.3470 C.ar  184  2T1184     -0.0001
      6  C7        12.7650  -22.6200    3.0230 C.3   184  2T1184      0.0257
      7  C8        12.6340  -21.5770    1.9180 C.3   184  2T1184      0.0260
      8  C10       11.2730  -21.2750    4.4790 C.3   184  2T1184      0.0953
      9  C13        8.7200  -18.3300    1.6170 C.ar  184  2T1184      0.0813
     10  C15        8.7750  -17.1760    0.8480 C.ar  184  2T1184      0.0951
     11  C17        7.4780  -18.8400    1.9860 C.ar  184  2T1184      0.0169
     12  C21       10.0830  -16.5860    0.4170 C.2   184  2T1184      0.3890
     13  O3        11.1540  -17.1040    0.8100 O.co2 184  2T1184     -0.2405
     14  O2        10.0560  -15.5810   -0.3290 O.co2 184  2T1184     -0.2405
     15  C16        7.6050  -16.5340    0.4670 C.ar  184  2T1184      0.0079
     16  C19        6.3720  -17.0450    0.8460 C.ar  184  2T1184      0.0003
     17  C18        6.3070  -18.2000    1.6090 C.ar  184  2T1184      0.0013
     18  C14        9.9830  -19.8010    3.0580 C.2   184  2T1184      0.3275
     19  O1         9.0330  -20.0010    3.7880 O.2   184  2T1184     -0.2504
     20  C11       11.4870  -22.6410    3.8510 C.3   184  2T1184      0.0260
     21  C9        12.3410  -20.2100    2.5250 C.3   184  2T1184      0.0953
     22  C3        12.9900  -23.9630    2.4490 C.ar  184  2T1184     -0.0185
     23  C2        12.2840  -24.3500    1.3140 C.ar  184  2T1184     -0.0043
     24  C1        12.4820  -25.6100    0.7620 C.ar  184  2T1184     -0.0003
     25  C12       14.6930  -24.4550    4.2640 C.3   184  2T1184      0.4183
     26  F1        15.9570  -24.3490    3.9010 F     184  2T1184     -0.1659
     27  F3        14.5860  -25.3880    5.1910 F     184  2T1184     -0.1659
     28  F2        14.2970  -23.3040    4.7810 F     184  2T1184     -0.1659
@<TRIPOS>BOND
     1    14    12   ar
     2    12    13   ar
     3    12    10    1
     4    15    16   ar
     5    15    10   ar
     6    24    23   ar
     7    24     5   ar
     8    16    17   ar
     9    10     9   ar
    10    23    22   ar
    11     5     4   ar
    12    17    11   ar
    13     9    11   ar
    14     9     2    1
    15     7    21    1
    16     7     6    1
    17     2    18   am
    18    22     6    1
    19    22     3   ar
    20     4     3   ar
    21    21     1    1
    22     6    20    1
    23     3    25    1
    24    18     1   am
    25    18    19    2
    26     1     8    1
    27    20     8    1
    28    26    25    1
    29    25    28    1
    30    25    27    1
