@<TRIPOS>MOLECULE
3fna_AMP_A_1.pdb
 13 13 0 0 0
SMALL
GASTEIGER

@<TRIPOS>ATOM
      1  P         25.1990   24.7110    0.1510 P.3   401  AMP401      0.5327
      2  O1P       24.9180   23.9440   -1.1220 O.2   401  AMP401     -0.2224
      3  O2P       23.8340   24.9590    1.0820 O.3   401  AMP401     -0.1145
      4  O3P       25.8020   26.1770   -0.1150 O.3   401  AMP401     -0.1145
      5  O5'       26.3730   23.9910    1.1020 O.3   401  AMP401     -0.2675
      6  C5'       27.7680   24.0580    0.7410 C.3   401  AMP401      0.1858
      7  C4'       28.3680   22.6390    0.6340 C.3   401  AMP401      0.1782
      8  O4'       28.3130   21.9690    1.9650 O.3   401  AMP401     -0.3482
      9  C3'       27.5990   21.7200   -0.3740 C.3   401  AMP401      0.2140
     10  O3'       28.4620   21.1500   -1.3860 O.3   401  AMP401     -0.2176
     11  C2'       26.9790   20.5970    0.4970 C.3   401  AMP401      0.2140
     12  O2'       26.9010   19.3340   -0.2380 O.3   401  AMP401     -0.2176
     13  C1'       27.9810   20.5580    1.6730 C.3   401  AMP401      0.1777
@<TRIPOS>BOND
     1    10     9    1
     2     2     1    2
     3     9    11    1
     4     9     7    1
     5    12    11    1
     6     4     1    1
     7     1     3    1
     8     1     5    1
     9    11    13    1
    10     7     6    1
    11     7     8    1
    12     6     5    1
    13    13     8    1
