@<TRIPOS>MOLECULE
3fne_8PC_A_1.pdb
 23 25 0 0 0
SMALL
GASTEIGER

@<TRIPOS>ATOM
      1 CL1        22.8550   -0.7190   10.0960 Cl    400  8PC400     -0.0822
      2  C17       24.3510    0.0390   10.6510 C.ar  400  8PC400      0.0587
      3  C16       25.0930   -0.5770   11.6330 C.ar  400  8PC400      0.0259
      4  C15       26.2590    0.0300   12.0410 C.ar  400  8PC400      0.0929
      5 CL2        27.1850   -0.7920   13.3150 Cl    400  8PC400     -0.0790
      6  C14       26.6620    1.2370   11.4880 C.ar  400  8PC400      0.1559
      7  C19       25.9040    1.8480   10.5040 C.ar  400  8PC400      0.0392
      8  C22       24.7430    1.2330   10.0860 C.ar  400  8PC400      0.0146
      9  O13       27.8180    1.8250   11.9000 O.3   400  8PC400     -0.4494
     10  C2        28.3540    2.9490   11.3430 C.ar  400  8PC400      0.1839
     11  C3        29.1020    2.8740   10.1820 C.ar  400  8PC400      0.0405
     12  C4        29.6330    4.0460    9.6430 C.ar  400  8PC400     -0.0005
     13  C5        29.4360    5.2760   10.2560 C.ar  400  8PC400     -0.0128
     14  C6        28.6830    5.3480   11.4210 C.ar  400  8PC400      0.0414
     15  C1        28.1470    4.1800   11.9620 C.ar  400  8PC400      0.2296
     16  O22       27.3940    4.2320   13.0840 O.3   400  8PC400     -0.2833
     17  C7        30.0530    6.5310    9.6780 C.3   400  8PC400      0.0721
     18  C23       29.2070    7.1020    8.5660 C.ar  400  8PC400      0.0634
     19  N24       29.6220    6.9890    7.2870 N.ar  400  8PC400     -0.2478
     20  C25       28.8800    7.4850    6.2740 C.ar  400  8PC400      0.0985
     21  C26       27.6670    8.1480    6.5140 C.ar  400  8PC400      0.0207
     22  C27       27.2260    8.2860    7.8260 C.ar  400  8PC400      0.0028
     23  C28       28.0040    7.7520    8.8570 C.ar  400  8PC400      0.0151
@<TRIPOS>BOND
     1    20    21   ar
     2    20    19   ar
     3    21    22   ar
     4    19    18   ar
     5    22    23   ar
     6    18    23   ar
     7    18    17    1
     8    12    11   ar
     9    12    13   ar
    10    17    13    1
    11     8     7   ar
    12     8     2   ar
    13     1     2    1
    14    11    10   ar
    15    13    14   ar
    16     7     6   ar
    17     2     3   ar
    18    10     9    1
    19    10    15   ar
    20    14    15   ar
    21     6     9    1
    22     6     4   ar
    23     3     4   ar
    24    15    16    1
    25     4     5    1
