@<TRIPOS>MOLECULE
3fne_NAD_A_1.pdb
 44 48 0 0 0
SMALL
GASTEIGER

@<TRIPOS>ATOM
      1  PA        30.2520   -3.7880   12.4850 P.3   300  NAD300      0.2189
      2  O1A       29.2540   -4.4600   11.6260 O.2   300  NAD300     -0.5170
      3  O2A       31.6320   -4.2750   12.2610 O.3   300  NAD300     -0.4371
      4  O5B       29.8050   -3.8840   14.0250 O.3   300  NAD300     -0.3112
      5  C5B       28.4620   -3.9320   14.4660 C.3   300  NAD300      0.1813
      6  C4B       28.3480   -5.0780   15.4680 C.3   300  NAD300      0.1821
      7  O4B       27.1150   -4.9910   16.1670 O.3   300  NAD300     -0.3135
      8  C3B       28.3640   -6.4250   14.7460 C.3   300  NAD300      0.2184
      9  O3B       29.3550   -7.2660   15.3020 O.3   300  NAD300     -0.2174
     10  C2B       26.9720   -6.9750   15.0150 C.3   300  NAD300      0.2570
     11  O2B       26.9050   -8.3800   15.0790 O.3   300  NAD300     -0.2130
     12  C1B       26.6510   -6.3040   16.3420 C.3   300  NAD300      0.3186
     13  N9A       25.2350   -6.4370   16.6600 N.pl3 300  NAD300     -0.1439
     14  C8A       24.1820   -6.0560   15.8790 C.3   300  NAD300      0.3377
     15  N7A       23.0510   -6.4150   16.5190 N.2   300  NAD300     -0.2095
     16  C5A       23.3670   -7.0160   17.6870 C.2   300  NAD300      0.2526
     17  C6A       22.5820   -7.5630   18.6980 C.2   300  NAD300      0.4393
     18  N6A       21.3170   -7.9100   18.4300 N.pl3 300  NAD300      0.2180
     19  N1A       23.2280   -8.1260   19.7860 N.2   300  NAD300      0.0021
     20  C2A       24.6120   -8.1570   19.8660 C.3   300  NAD300      0.5254
     21  N3A       25.3760   -7.6260   18.8470 N.2   300  NAD300     -0.0055
     22  C4A       24.7560   -7.0570   17.7780 C.2   300  NAD300      0.3518
     23  O3        30.2200   -2.2140   12.1960 O.3   300  NAD300     -0.2703
     24  PN        31.2810   -1.2050   12.8340 P.3   300  NAD300      0.2189
     25  O1N       31.6140   -0.1960   11.8020 O.2   300  NAD300     -0.5170
     26  O2N       32.4190   -1.9540   13.4560 O.3   300  NAD300     -0.4371
     27  O5D       30.4780   -0.5060   14.0510 O.3   300  NAD300     -0.3112
     28  C5D       30.7900   -0.7130   15.4330 C.3   300  NAD300      0.1813
     29  C4D       30.3620    0.4890   16.2780 C.3   300  NAD300      0.1799
     30  O4D       31.0900    1.6400   15.8450 O.3   300  NAD300     -0.3327
     31  C3D       28.8820    0.8220   16.0900 C.3   300  NAD300      0.2158
     32  O3D       28.3120    1.3160   17.2820 O.3   300  NAD300     -0.2175
     33  C2D       28.9170    1.9510   15.0760 C.3   300  NAD300      0.2309
     34  O2D       27.7220    2.7190   15.0790 O.3   300  NAD300     -0.2158
     35  C1D       30.1720    2.6800   15.5540 C.3   300  NAD300      0.2263
     36  N1N       30.7870    3.6000   14.5970 N.pl3 300  NAD300     -0.2787
     37  C2N       31.1570    3.1690   13.3540 C.3   300  NAD300      0.1244
     38  C3N       31.7640    4.0730   12.4770 C.2   300  NAD300      0.0544
     39  C7N       32.3450    3.5760   11.1950 C.2   300  NAD300      0.2818
     40  O7N       32.7380    4.5190   10.2610 O.2   300  NAD300     -0.2670
     41  N7N       32.4830    2.2660   10.9580 N.am  300  NAD300     -0.0839
     42  C4N       31.9910    5.3910   12.8790 C.2   300  NAD300      0.0033
     43  C5N       31.6150    5.7980   14.1660 C.2   300  NAD300      0.0157
     44  C6N       31.0190    4.8800   15.0240 C.2   300  NAD300      0.0633
@<TRIPOS>BOND
     1    40    39    2
     2    41    39   am
     3    39    38    1
     4     2     1    2
     5    25    24    2
     6    23     1    1
     7    23    24    1
     8     3     1    1
     9    38    42    2
    10    38    37    1
    11     1     4    1
    12    24    26    1
    13    24    27    1
    14    42    43    1
    15    37    36    1
    16     4     5    1
    17    27    28    1
    18    43    44    2
    19     5     6    1
    20    36    44    1
    21    36    35    1
    22     8    10    1
    23     8     9    1
    24     8     6    1
    25    10    11    1
    26    10    12    1
    27    33    34    1
    28    33    35    1
    29    33    31    1
    30    28    29    1
    31     6     7    1
    32    35    30    1
    33    30    29    1
    34    14    15    1
    35    14    13    1
    36    31    29    1
    37    31    32    1
    38     7    12    1
    39    12    13    1
    40    15    16    2
    41    13    22    1
    42    16    22    1
    43    16    17    1
    44    22    21    2
    45    18    17    1
    46    17    19    2
    47    21    20    1
    48    19    20    1
