@<TRIPOS>MOLECULE
3fnf_NAD_A_1.pdb
 44 48 0 0 0
SMALL
GASTEIGER

@<TRIPOS>ATOM
      1  PA        30.2220   -3.8450   12.5200 P.3   300  NAD300      0.2189
      2  O1A       29.2960   -4.3770   11.5150 O.2   300  NAD300     -0.5170
      3  O2A       31.5600   -4.4820   12.4470 O.3   300  NAD300     -0.4371
      4  O5B       29.6610   -3.9600   14.0140 O.3   300  NAD300     -0.3112
      5  C5B       28.3020   -4.0030   14.3500 C.3   300  NAD300      0.1813
      6  C4B       28.2900   -5.0440   15.4380 C.3   300  NAD300      0.1821
      7  O4B       27.1120   -4.9880   16.2290 O.3   300  NAD300     -0.3135
      8  C3B       28.3440   -6.4080   14.7540 C.3   300  NAD300      0.2184
      9  O3B       29.4360   -7.1540   15.2640 O.3   300  NAD300     -0.2174
     10  C2B       26.9960   -7.0240   15.0800 C.3   300  NAD300      0.2570
     11  O2B       27.0150   -8.4200   15.2460 O.3   300  NAD300     -0.2130
     12  C1B       26.6710   -6.3340   16.3980 C.3   300  NAD300      0.3186
     13  N9A       25.2620   -6.5410   16.7440 N.pl3 300  NAD300     -0.1439
     14  C8A       24.1440   -6.2300   16.0030 C.3   300  NAD300      0.3377
     15  N7A       23.0460   -6.6070   16.7190 N.2   300  NAD300     -0.2095
     16  C5A       23.4510   -7.1670   17.8900 C.2   300  NAD300      0.2526
     17  C6A       22.7600   -7.7230   18.9690 C.2   300  NAD300      0.4393
     18  N6A       21.4760   -8.0620   18.8420 N.pl3 300  NAD300      0.2180
     19  N1A       23.4780   -8.2140   20.0410 N.2   300  NAD300      0.0021
     20  C2A       24.8660   -8.1740   20.0570 C.3   300  NAD300      0.5254
     21  N3A       25.5370   -7.6290   18.9680 N.2   300  NAD300     -0.0055
     22  C4A       24.8470   -7.1230   17.9160 C.2   300  NAD300      0.3518
     23  O3        30.2800   -2.2650   12.2590 O.3   300  NAD300     -0.2703
     24  PN        31.2570   -1.2930   13.0480 P.3   300  NAD300      0.2189
     25  O1N       31.4110   -0.1420   12.1520 O.2   300  NAD300     -0.5170
     26  O2N       32.4530   -2.0340   13.5230 O.3   300  NAD300     -0.4371
     27  O5D       30.3810   -0.8760   14.3280 O.3   300  NAD300     -0.3112
     28  C5D       30.7350   -0.9880   15.7030 C.3   300  NAD300      0.1813
     29  C4D       30.2610    0.2730   16.4180 C.3   300  NAD300      0.1799
     30  O4D       30.9430    1.3540   15.8160 O.3   300  NAD300     -0.3327
     31  C3D       28.7790    0.5900   16.2310 C.3   300  NAD300      0.2158
     32  O3D       28.1600    1.0600   17.4080 O.3   300  NAD300     -0.2175
     33  C2D       28.7680    1.7500   15.2570 C.3   300  NAD300      0.2309
     34  O2D       27.6020    2.5320   15.3790 O.3   300  NAD300     -0.2158
     35  C1D       30.0470    2.4600   15.6640 C.3   300  NAD300      0.2263
     36  N1N       30.6320    3.4270   14.7180 N.pl3 300  NAD300     -0.2787
     37  C2N       31.0860    2.9910   13.4950 C.3   300  NAD300      0.1244
     38  C3N       31.7150    3.8510   12.6040 C.2   300  NAD300      0.0544
     39  C7N       32.1800    3.3450   11.2710 C.2   300  NAD300      0.2818
     40  O7N       32.5680    4.2830   10.3040 O.2   300  NAD300     -0.2670
     41  N7N       32.2080    2.0280   10.9870 N.am  300  NAD300     -0.0839
     42  C4N       31.8810    5.2050   12.9600 C.2   300  NAD300      0.0033
     43  C5N       31.4450    5.6280   14.2290 C.2   300  NAD300      0.0157
     44  C6N       30.8330    4.7190   15.1080 C.2   300  NAD300      0.0633
@<TRIPOS>BOND
     1    40    39    2
     2    41    39   am
     3    39    38    1
     4     2     1    2
     5    25    24    2
     6    23     1    1
     7    23    24    1
     8     3     1    1
     9     1     4    1
    10    38    42    2
    11    38    37    1
    12    42    43    1
    13    24    26    1
    14    24    27    1
    15    37    36    1
    16     4     5    1
    17    43    44    2
    18    27    28    1
    19     5     6    1
    20    36    44    1
    21    36    35    1
    22     8    10    1
    23     8     9    1
    24     8     6    1
    25    10    11    1
    26    10    12    1
    27    33    34    1
    28    33    35    1
    29    33    31    1
    30     6     7    1
    31    35    30    1
    32    28    29    1
    33    30    29    1
    34    14    15    1
    35    14    13    1
    36     7    12    1
    37    31    29    1
    38    31    32    1
    39    12    13    1
    40    15    16    2
    41    13    22    1
    42    16    22    1
    43    16    17    1
    44    22    21    2
    45    18    17    1
    46    21    20    1
    47    17    19    2
    48    19    20    1
