@<TRIPOS>MOLECULE
3fnf_JPM_A_1.pdb
 23 25 0 0 0
SMALL
GASTEIGER

@<TRIPOS>ATOM
      1  C2        28.0880    3.9000   12.1270 C.ar  400  JPM400      0.2295
      2  C3        28.1620    2.6800   11.4630 C.ar  400  JPM400      0.1839
      3  C4        28.8110    2.5930   10.2290 C.ar  400  JPM400      0.0405
      4  C5        29.3730    3.7510    9.6810 C.ar  400  JPM400     -0.0006
      5  C7        26.0740   -0.2270   12.3290 C.ar  400  JPM400      0.0929
      6  C8        26.4040    0.9770   11.6880 C.ar  400  JPM400      0.1559
      7  C9        25.5760    1.4810   10.6970 C.ar  400  JPM400      0.0392
      8  C10       24.3970    0.7840   10.3580 C.ar  400  JPM400      0.0146
      9  C11       24.0320   -0.4140   10.9810 C.ar  400  JPM400      0.0587
     10  C12       24.8860   -0.9170   11.9880 C.ar  400  JPM400      0.0259
     11  C15       27.6610    7.4270    6.3210 C.ar  400  JPM400     -0.0000
     12  C16       27.1030    7.5400    7.5820 C.ar  400  JPM400     -0.0003
     13  C18       29.9360    6.2360    9.7590 C.3   400  JPM400      0.0527
     14  C19       29.7040    6.5460    7.2790 C.ar  400  JPM400     -0.0039
     15  O2        27.4480    3.9580   13.3250 O.3   400  JPM400     -0.2833
     16  O1        27.5740    1.5960   12.0620 O.3   400  JPM400     -0.4494
     17 CL1        27.0270   -0.7400   13.3880 Cl    400  JPM400     -0.0790
     18 CL5        22.7710   -1.1240   10.5360 Cl    400  JPM400     -0.0822
     19  C1        28.6580    5.0460   11.5770 C.ar  400  JPM400      0.0413
     20  C6        29.2990    4.9810   10.3430 C.ar  400  JPM400     -0.0144
     21  C13       29.1480    6.6520    8.5450 C.ar  400  JPM400     -0.0178
     22  C17       27.8540    7.1460    8.6860 C.ar  400  JPM400     -0.0039
     23  C14       28.9600    6.9280    6.1590 C.ar  400  JPM400     -0.0003
@<TRIPOS>BOND
     1    23    11   ar
     2    23    14   ar
     3    11    12   ar
     4    14    21   ar
     5    12    22   ar
     6    21    22   ar
     7    21    13    1
     8     4     3   ar
     9     4    20   ar
    10    13    20    1
    11     3     2   ar
    12    20    19   ar
    13     8     7   ar
    14     8     9   ar
    15    18     9    1
    16     7     6   ar
    17     9    10   ar
    18     2    16    1
    19     2     1   ar
    20    19     1   ar
    21     6    16    1
    22     6     5   ar
    23    10     5   ar
    24     1    15    1
    25     5    17    1
