@<TRIPOS>MOLECULE
3fng_NAD_A_1.pdb
 44 48 0 0 0
SMALL
GASTEIGER

@<TRIPOS>ATOM
      1  PA        19.7310   47.1970  -12.1930 P.3   300  NAD300      0.2189
      2  O1A       19.4010   48.3700  -13.0170 O.2   300  NAD300     -0.5170
      3  O2A       19.1240   45.9140  -12.6140 O.3   300  NAD300     -0.4371
      4  O5B       19.5150   47.4260  -10.6260 O.3   300  NAD300     -0.3112
      5  C5B       19.6420   48.6690   -9.9830 C.3   300  NAD300      0.1813
      6  C4B       18.4490   48.7760   -9.0430 C.3   300  NAD300      0.1821
      7  O4B       18.6300   49.8850   -8.1670 O.3   300  NAD300     -0.3135
      8  C3B       17.1430   49.0290   -9.8080 C.3   300  NAD300      0.2184
      9  O3B       16.1550   48.1050   -9.4130 O.3   300  NAD300     -0.2174
     10  C2B       16.6990   50.3790   -9.3030 C.3   300  NAD300      0.2570
     11  O2B       15.3040   50.4770   -9.2180 O.3   300  NAD300     -0.2130
     12  C1B       17.3440   50.4080   -7.9220 C.3   300  NAD300      0.3186
     13  N9A       17.3290   51.7700   -7.3560 N.pl3 300  NAD300     -0.1439
     14  C8A       17.8050   52.9200   -7.9060 C.3   300  NAD300      0.3377
     15  N7A       17.5420   53.9430   -7.0430 N.2   300  NAD300     -0.2095
     16  C5A       16.8680   53.4460   -5.9770 C.2   300  NAD300      0.2526
     17  C6A       16.3470   54.0200   -4.8200 C.2   300  NAD300      0.4393
     18  N6A       16.1690   55.3340   -4.7330 N.pl3 300  NAD300      0.2180
     19  N1A       15.7160   53.2150   -3.9070 N.2   300  NAD300      0.0021
     20  C2A       15.5740   51.8560   -4.1100 C.3   300  NAD300      0.5254
     21  N3A       16.0900   51.2970   -5.2540 N.2   300  NAD300     -0.0055
     22  C4A       16.7270   52.0810   -6.1660 C.2   300  NAD300      0.3518
     23  O3        21.3480   47.0340  -12.2610 O.3   300  NAD300     -0.2703
     24  PN        22.1960   45.8490  -11.5530 P.3   300  NAD300      0.2189
     25  O1N       23.4570   45.8230  -12.3500 O.2   300  NAD300     -0.5170
     26  O2N       21.5000   44.5660  -11.3030 O.3   300  NAD300     -0.4371
     27  O5D       22.5130   46.5810  -10.1400 O.3   300  NAD300     -0.3112
     28  C5D       22.4320   45.9450   -8.8730 C.3   300  NAD300      0.1813
     29  C4D       23.6570   46.2200   -7.9780 C.3   300  NAD300      0.1799
     30  O4D       24.7570   45.4700   -8.4680 O.3   300  NAD300     -0.3327
     31  C3D       24.1350   47.6740   -7.9440 C.3   300  NAD300      0.2158
     32  O3D       24.5980   48.0110   -6.6480 O.3   300  NAD300     -0.2175
     33  C2D       25.3390   47.6940   -8.8530 C.3   300  NAD300      0.2309
     34  O2D       26.1800   48.7890   -8.5160 O.3   300  NAD300     -0.2158
     35  C1D       25.9050   46.3120   -8.5600 C.3   300  NAD300      0.2263
     36  N1N       26.8480   45.7370   -9.5320 N.pl3 300  NAD300     -0.2787
     37  C2N       26.5010   45.5850  -10.8460 C.3   300  NAD300      0.1244
     38  C3N       27.4080   45.0000  -11.7340 C.2   300  NAD300      0.0544
     39  C7N       27.0020   44.7770  -13.1540 C.2   300  NAD300      0.2818
     40  O7N       28.0350   44.5470  -14.0520 O.2   300  NAD300     -0.2670
     41  N7N       25.7130   44.8000  -13.5240 N.am  300  NAD300     -0.0839
     42  C4N       28.6780   44.5840  -11.3040 C.2   300  NAD300      0.0033
     43  C5N       28.9960   44.7220   -9.9480 C.2   300  NAD300      0.0157
     44  C6N       28.0770   45.2990   -9.0800 C.2   300  NAD300      0.0633
@<TRIPOS>BOND
     1    40    39    2
     2    41    39   am
     3    39    38    1
     4     2     1    2
     5     3     1    1
     6    25    24    2
     7    23     1    1
     8    23    24    1
     9     1     4    1
    10    38    42    2
    11    38    37    1
    12    24    26    1
    13    24    27    1
    14    42    43    1
    15    37    36    1
    16     4     5    1
    17    27    28    1
    18     5     6    1
    19    43    44    2
    20     8     9    1
    21     8    10    1
    22     8     6    1
    23    36    44    1
    24    36    35    1
    25    10    11    1
    26    10    12    1
    27     6     7    1
    28    28    29    1
    29    33    35    1
    30    33    34    1
    31    33    31    1
    32    35    30    1
    33    30    29    1
    34     7    12    1
    35    29    31    1
    36    31    32    1
    37    12    13    1
    38    14    13    1
    39    14    15    1
    40    13    22    1
    41    15    16    2
    42    22    16    1
    43    22    21    2
    44    16    17    1
    45    21    20    1
    46    17    18    1
    47    17    19    2
    48    20    19    1
