@<TRIPOS>MOLECULE
3fng_JPL_A_1.pdb
 23 25 0 0 0
SMALL
GASTEIGER

@<TRIPOS>ATOM
      1  C2        27.8470   48.7830  -11.5490 C.ar  400  JPL400      0.2295
      2  C3        26.6370   48.8320  -12.2280 C.ar  400  JPL400      0.1839
      3  C4        26.5850   48.3580  -13.5290 C.ar  400  JPL400      0.0405
      4  C5        27.7270   47.8570  -14.1500 C.ar  400  JPL400     -0.0006
      5  C7        23.7950   50.9610  -11.2330 C.ar  400  JPL400      0.0929
      6  C8        25.0130   50.5910  -11.8080 C.ar  400  JPL400      0.1559
      7  C9        25.7150   51.5050  -12.6100 C.ar  400  JPL400      0.0392
      8  C10       25.1990   52.7860  -12.8410 C.ar  400  JPL400      0.0146
      9  C11       23.9790   53.1890  -12.2810 C.ar  400  JPL400      0.0587
     10  C12       23.2890   52.2650  -11.4740 C.ar  400  JPL400      0.0259
     11  C15       32.8660   50.0220  -16.4710 C.3   400  JPL400      0.0050
     12  C16       31.6220   50.3940  -15.7980 C.3   400  JPL400      0.0254
     13  C18       30.1520   47.2550  -14.1580 C.3   400  JPL400      0.0481
     14  C19       32.0240   47.6980  -15.7020 C.3   400  JPL400      0.0220
     15  O2        27.8970   49.2440  -10.2820 O.3   400  JPL400     -0.2833
     16  C1        29.0050   48.2840  -12.1560 C.ar  400  JPL400      0.0413
     17  C6        28.9420   47.8310  -13.4720 C.ar  400  JPL400     -0.0147
     18  C13       30.9910   48.2020  -14.9860 C.2   400  JPL400     -0.0441
     19  C14       32.1370   48.6500  -17.1730 C.3   400  JPL400      0.0047
     20  C17       30.9170   49.5800  -14.9480 C.2   400  JPL400     -0.0343
     21  O1        25.5000   49.3230  -11.6020 O.3   400  JPL400     -0.4494
     22 CL1        23.0420   49.9520  -10.3740 Cl    400  JPL400     -0.0790
     23 CL5        23.4430   54.5980  -12.5900 Cl    400  JPL400     -0.0822
@<TRIPOS>BOND
     1    19    11    1
     2    19    14    1
     3    11    12    1
     4    12    20    1
     5    14    18    1
     6    18    20    2
     7    18    13    1
     8    13    17    1
     9     4     3   ar
    10     4    17   ar
    11     3     2   ar
    12    17    16   ar
    13     8     7   ar
    14     8     9   ar
    15     7     6   ar
    16    23     9    1
    17     9    10   ar
    18     2    21    1
    19     2     1   ar
    20    16     1   ar
    21     6    21    1
    22     6     5   ar
    23     1    15    1
    24    10     5   ar
    25     5    22    1
