@<TRIPOS>MOLECULE
3fnh_JPJ_A_1.pdb
 24 26 0 0 0
SMALL
GASTEIGER

@<TRIPOS>ATOM
      1 CL20      -23.1450  -50.1690  -10.1830 Cl    400  JPJ400     -0.0790
      2  C15      -23.7610  -51.2400  -11.0530 C.ar  400  JPJ400      0.0929
      3  C16      -23.1730  -52.5050  -11.3200 C.ar  400  JPJ400      0.0259
      4  C17      -23.8350  -53.4450  -12.1940 C.ar  400  JPJ400      0.0587
      5 CL21      -23.2680  -54.7950  -12.5390 Cl    400  JPJ400     -0.0822
      6  C22      -25.0960  -53.0900  -12.7650 C.ar  400  JPJ400      0.0146
      7  C19      -25.6850  -51.8230  -12.5060 C.ar  400  JPJ400      0.0392
      8  C14      -24.9990  -50.9150  -11.6500 C.ar  400  JPJ400      0.1559
      9  O13      -25.4920  -49.6700  -11.3430 O.3   400  JPJ400     -0.4494
     10  C2       -26.5020  -49.0370  -12.0130 C.ar  400  JPJ400      0.1839
     11  C1       -27.7350  -48.7860  -11.4060 C.ar  400  JPJ400      0.2295
     12  O22      -28.0090  -49.1750  -10.1340 O.3   400  JPJ400     -0.2833
     13  C3       -26.2510  -48.6340  -13.3060 C.ar  400  JPJ400      0.0405
     14  C4       -27.2290  -47.9780  -14.0180 C.ar  400  JPJ400     -0.0009
     15  C5       -28.4560  -47.7170  -13.4180 C.ar  400  JPJ400     -0.0185
     16  C6       -28.7250  -48.1240  -12.1130 C.ar  400  JPJ400      0.0410
     17  C7       -29.5070  -47.0040  -14.2170 C.3   400  JPJ400      0.0311
     18  C18      -30.7510  -47.8440  -14.0090 C.3   400  JPJ400      0.0310
     19  C28      -31.4470  -48.0980  -15.3080 C.ar  400  JPJ400     -0.0218
     20  C27      -31.2750  -49.3460  -15.9200 C.ar  400  JPJ400     -0.0043
     21  C26      -31.9700  -49.5420  -17.1230 C.ar  400  JPJ400     -0.0003
     22  C25      -32.8080  -48.5230  -17.6830 C.ar  400  JPJ400     -0.0000
     23  C24      -32.9860  -47.2860  -17.0530 C.ar  400  JPJ400     -0.0003
     24  C23      -32.2830  -47.0970  -15.8470 C.ar  400  JPJ400     -0.0043
@<TRIPOS>BOND
     1    22    21   ar
     2    22    23   ar
     3    21    20   ar
     4    23    24   ar
     5    20    19   ar
     6    24    19   ar
     7    19    18    1
     8    17    18    1
     9    17    15    1
    10    14    15   ar
    11    14    13   ar
    12    15    16   ar
    13    13    10   ar
    14     6     7   ar
    15     6     4   ar
    16     5     4    1
    17     7     8   ar
    18     4     3   ar
    19    16    11   ar
    20    10    11   ar
    21    10     9    1
    22     8     9    1
    23     8     2   ar
    24    11    12    1
    25     3     2   ar
    26     2     1    1
