@<TRIPOS>MOLECULE
3fnh_NAD_A_1.pdb
 44 48 0 0 0
SMALL
GASTEIGER

@<TRIPOS>ATOM
      1  PA       -19.7660  -47.1330  -12.0980 P.3   300  NAD300      0.2189
      2  O1A      -19.3870  -48.2800  -13.0060 O.2   300  NAD300     -0.5170
      3  O2A      -19.3220  -45.7300  -12.4640 O.3   300  NAD300     -0.4371
      4  O5B      -19.3550  -47.5010  -10.5900 O.3   300  NAD300     -0.3112
      5  C5B      -19.3820  -48.8220  -10.0990 C.3   300  NAD300      0.1813
      6  C4B      -18.2880  -48.8220   -9.0320 C.3   300  NAD300      0.1821
      7  O4B      -18.4570  -49.9110   -8.1490 O.3   300  NAD300     -0.3135
      8  C3B      -16.9040  -48.9980   -9.6660 C.3   300  NAD300      0.2184
      9  O3B      -16.0960  -47.9970   -9.1320 O.3   300  NAD300     -0.2174
     10  C2B      -16.4770  -50.3920   -9.2370 C.3   300  NAD300      0.2570
     11  O2B      -15.0820  -50.6340   -9.1920 O.3   300  NAD300     -0.2130
     12  C1B      -17.1790  -50.4550   -7.8870 C.3   300  NAD300      0.3186
     13  N9A      -17.1950  -51.8200   -7.3660 N.pl3 300  NAD300     -0.1439
     14  C8A      -17.7060  -52.9690   -7.9090 C.3   300  NAD300      0.3377
     15  N7A      -17.4410  -54.0140   -7.0510 N.2   300  NAD300     -0.2095
     16  C5A      -16.7500  -53.5240   -5.9860 C.2   300  NAD300      0.2526
     17  C6A      -16.2250  -54.1040   -4.8300 C.2   300  NAD300      0.4393
     18  N6A      -16.1650  -55.4320   -4.6690 N.pl3 300  NAD300      0.2180
     19  N1A      -15.5860  -53.2880   -3.9240 N.2   300  NAD300      0.0021
     20  C2A      -15.4390  -51.9320   -4.1160 C.3   300  NAD300      0.5254
     21  N3A      -15.9470  -51.3470   -5.2590 N.2   300  NAD300     -0.0055
     22  C4A      -16.5940  -52.1430   -6.1770 C.2   300  NAD300      0.3518
     23  O3       -21.3870  -47.1420  -11.8810 O.3   300  NAD300     -0.2703
     24  PN       -22.1990  -45.8380  -11.3720 P.3   300  NAD300      0.2189
     25  O1N      -23.2780  -45.6130  -12.3530 O.2   300  NAD300     -0.5170
     26  O2N      -21.3340  -44.6560  -11.1060 O.3   300  NAD300     -0.4371
     27  O5D      -22.6150  -46.6540  -10.0340 O.3   300  NAD300     -0.3112
     28  C5D      -22.4280  -46.0840   -8.7550 C.3   300  NAD300      0.1813
     29  C4D      -23.5890  -46.3540   -7.8190 C.3   300  NAD300      0.1799
     30  O4D      -24.6880  -45.6360   -8.2870 O.3   300  NAD300     -0.3327
     31  C3D      -24.0790  -47.7860   -7.7940 C.3   300  NAD300      0.2158
     32  O3D      -24.5660  -48.0280   -6.5000 O.3   300  NAD300     -0.2175
     33  C2D      -25.2660  -47.8120   -8.7180 C.3   300  NAD300      0.2309
     34  O2D      -26.1330  -48.8430   -8.3370 O.3   300  NAD300     -0.2158
     35  C1D      -25.8230  -46.4520   -8.4390 C.3   300  NAD300      0.2263
     36  N1N      -26.7290  -45.8650   -9.4420 N.pl3 300  NAD300     -0.2787
     37  C2N      -26.4300  -45.7360  -10.7850 C.3   300  NAD300      0.1244
     38  C3N      -27.3910  -45.1260  -11.6220 C.2   300  NAD300      0.0544
     39  C7N      -27.0830  -44.6870  -13.0250 C.2   300  NAD300      0.2818
     40  O7N      -28.1820  -44.2840  -13.8180 O.2   300  NAD300     -0.2670
     41  N7N      -25.8330  -44.6700  -13.4820 N.am  300  NAD300     -0.0839
     42  C4N      -28.6150  -44.6670  -11.1050 C.2   300  NAD300      0.0033
     43  C5N      -28.8830  -44.8100   -9.7460 C.2   300  NAD300      0.0157
     44  C6N      -27.9220  -45.3960   -8.9280 C.2   300  NAD300      0.0633
@<TRIPOS>BOND
     1    40    39    2
     2    41    39   am
     3    39    38    1
     4     2     1    2
     5     3     1    1
     6    25    24    2
     7     1    23    1
     8     1     4    1
     9    23    24    1
    10    38    42    2
    11    38    37    1
    12    24    26    1
    13    24    27    1
    14    42    43    1
    15    37    36    1
    16     4     5    1
    17     5     6    1
    18    27    28    1
    19    43    44    2
    20     8    10    1
    21     8     9    1
    22     8     6    1
    23    36    44    1
    24    36    35    1
    25    10    11    1
    26    10    12    1
    27     6     7    1
    28    28    29    1
    29    33    35    1
    30    33    34    1
    31    33    31    1
    32    35    30    1
    33    30    29    1
    34     7    12    1
    35    14    13    1
    36    14    15    1
    37    12    13    1
    38    29    31    1
    39    31    32    1
    40    13    22    1
    41    15    16    2
    42    22    16    1
    43    22    21    2
    44    16    17    1
    45    21    20    1
    46    17    18    1
    47    17    19    2
    48    20    19    1
