@<TRIPOS>MOLECULE
3fnl_HEM_A_1.pdb
 43 50 0 0 0
SMALL
GASTEIGER

@<TRIPOS>ATOM
      1  CHA        8.7010    0.0580   29.2950 C.2   615  HEM615      0.0000
      2  CHB        9.0240    4.8980   29.1360 C.2   615  HEM615      0.0000
      3  CHC       10.8560    4.6470   24.6300 C.2   615  HEM615      0.0000
      4  CHD       10.6430   -0.1270   24.7880 C.2   615  HEM615      0.0000
      5  C1A        8.6200    1.3830   29.6680 C.2   615  HEM615      0.0000
      6  C2A        8.1260    1.9030   30.9300 C.2   615  HEM615      0.0000
      7  C3A        8.2050    3.2410   30.8940 C.2   615  HEM615      0.0000
      8  C4A        8.7660    3.6180   29.6030 C.2   615  HEM615      0.0000
      9  CMA        7.7880    4.1980   32.0370 C.3   615  HEM615      0.0000
     10  CAA        7.5960    1.0490   32.1050 C.3   615  HEM615      0.0000
     11  CBA        8.7640    0.6800   32.9970 C.3   615  HEM615      0.0000
     12  CGA        8.3390   -0.3770   33.9930 C.2   615  HEM615      0.0000
     13  O1A        7.3670   -0.1390   34.7480 O.co2 615  HEM615      0.0000
     14  O2A        8.9720   -1.4680   34.0470 O.co2 615  HEM615      0.0000
     15  C1B        9.5230    5.2580   27.8900 C.ar  615  HEM615      0.0000
     16  C2B        9.7230    6.6100   27.3670 C.ar  615  HEM615      0.0000
     17  C3B       10.2240    6.5270   26.1270 C.ar  615  HEM615      0.0000
     18  C4B       10.3580    5.1270   25.8200 C.ar  615  HEM615      0.0000
     19  CMB        9.4290    7.9200   28.1120 C.3   615  HEM615      0.0000
     20  CAB       10.6160    7.6710   25.1490 C.2   615  HEM615      0.0000
     21  CBB       10.8610    8.9280   25.5670 C.2   615  HEM615      0.0000
     22  C1C       11.0100    3.3320   24.2930 C.2   615  HEM615      0.0000
     23  C2C       11.6620    2.8270   23.0930 C.2   615  HEM615      0.0000
     24  C3C       11.6030    1.4890   23.1280 C.2   615  HEM615      0.0000
     25  C4C       10.9170    1.1360   24.3570 C.2   615  HEM615      0.0000
     26  CMC       12.3040    3.7060   21.9990 C.3   615  HEM615      0.0000
     27  CAC       12.1510    0.4810   22.0800 C.2   615  HEM615      0.0000
     28  CBC       12.6680    0.8660   20.9050 C.2   615  HEM615      0.0000
     29  C1D       10.0260   -0.4940   25.9590 C.ar  615  HEM615      0.0000
     30  C2D        9.5990   -1.8310   26.2070 C.ar  615  HEM615      0.0000
     31  C3D        8.9890   -1.8190   27.6080 C.ar  615  HEM615      0.0000
     32  C4D        9.1180   -0.4400   28.0690 C.ar  615  HEM615      0.0000
     33  CMD        9.7670   -2.9890   25.2230 C.3   615  HEM615      0.0000
     34  CAD        8.3400   -3.0100   28.3490 C.3   615  HEM615      0.0000
     35  CBD        6.8190   -2.8150   28.2340 C.3   615  HEM615      0.0000
     36  CGD        6.0730   -3.9970   28.8120 C.2   615  HEM615      0.0000
     37  O1D        6.1590   -5.1210   28.2510 O.co2 615  HEM615      0.0000
     38  O2D        5.3920   -3.8360   29.8520 O.co2 615  HEM615      0.0000
     39  NA         8.9990    2.4550   28.8940 N.2   615  HEM615      0.0000
     40  NB         9.9170    4.3820   26.9040 N.ar  615  HEM615      0.0000
     41  NC        10.5620    2.2690   25.0480 N.2   615  HEM615      0.0000
     42  ND         9.7360    0.2970   27.0640 N.ar  615  HEM615      0.0000
     43 FE          9.9650    2.3150   27.1170 Fe    615  HEM615      0.0000
@<TRIPOS>BOND
     1    28    27    2
     2    26    23    1
     3    27    24    1
     4    23    24    2
     5    23    22    1
     6    24    25    1
     7    22     3    2
     8    22    41    1
     9    25     4    1
    10    25    41    2
    11     3    18    1
    12     4    29    2
    13    41    43    1
    14    20    21    2
    15    20    17    1
    16    33    30    1
    17    18    17   ar
    18    18    40   ar
    19    29    30   ar
    20    29    42   ar
    21    17    16   ar
    22    30    31   ar
    23    40    43    1
    24    40    15   ar
    25    42    43    1
    26    42    32   ar
    27    43    39    1
    28    16    15   ar
    29    16    19    1
    30    31    32   ar
    31    31    34    1
    32    15     2    1
    33    32     1    2
    34    35    34    1
    35    35    36    1
    36    37    36   ar
    37    36    38   ar
    38    39     8    1
    39    39     5    2
    40     2     8    2
    41     1     5    1
    42     8     7    1
    43     5     6    1
    44     7     6    2
    45     7     9    1
    46     6    10    1
    47    10    11    1
    48    11    12    1
    49    12    14   ar
    50    12    13   ar
