@<TRIPOS>MOLECULE
3fnl_SHA_A_1.pdb
 11 11 0 0 0
SMALL
GASTEIGER

@<TRIPOS>ATOM
      1  C1         5.0390    3.0340   29.1320 C.ar  617  SHA617      0.0616
      2  C2         4.4700    4.1110   29.7890 C.ar  617  SHA617      0.0051
      3  C3         3.6740    3.9170   30.9280 C.ar  617  SHA617      0.0003
      4  C4         3.4340    2.6290   31.4270 C.ar  617  SHA617      0.0033
      5  C5         3.9720    1.5000   30.8020 C.ar  617  SHA617      0.0421
      6  C6         4.7740    1.6690   29.6630 C.ar  617  SHA617      0.1975
      7  O6         5.2970    0.5830   29.0450 O.3   617  SHA617     -0.2865
      8  C7         5.8860    3.2620   27.9020 C.2   617  SHA617      0.1132
      9  O7         5.9470    4.3870   27.4130 O.2   617  SHA617     -0.5359
     10  N8         6.5500    2.2470   27.3220 N.am  617  SHA617     -0.1983
     11  O9         7.4010    2.5110   26.2420 O.3   617  SHA617     -0.4024
@<TRIPOS>BOND
     1    11    10    1
     2    10     8   am
     3     9     8    2
     4     8     1    1
     5     7     6    1
     6     1     6   ar
     7     1     2   ar
     8     6     5   ar
     9     2     3   ar
    10     5     4   ar
    11     3     4   ar
