@<TRIPOS>MOLECULE
3fnm_AVN_B_1.pdb
 10 10 0 0 0
SMALL
GASTEIGER

@<TRIPOS>ATOM
      1  C1        45.0830   -1.4820   39.1060 C.2     1  AVN1        0.3844
      2  O1        44.6650   -2.3250   39.8460 O.co2   1  AVN1       -0.2440
      3  O2        44.5320   -0.4360   38.8630 O.co2   1  AVN1       -0.2440
      4  C2        46.3900   -1.7600   38.4730 C.3     1  AVN1        0.2233
      5  N1        47.1520   -2.6210   39.3430 N.3     1  AVN1       -0.1181
      6  C3        46.0370   -2.5610   37.2640 C.3     1  AVN1        0.1692
      7  O3        45.3550   -1.7940   36.3640 O.3     1  AVN1       -0.2667
      8  N2        45.5240   -2.3000   35.1240 N.4     1  AVN1       -0.0836
      9  C4        46.5110   -3.0600   35.0710 C.3     1  AVN1        0.1241
     10  C5        47.1900   -3.0340   36.4170 C.3     1  AVN1        0.0553
@<TRIPOS>BOND
     1     9     8    1
     2     9    10    1
     3     8     7    1
     4     7     6    1
     5    10     6    1
     6     6     4    1
     7     4     1    1
     8     4     5    1
     9     3     1   ar
    10     1     2   ar
