@<TRIPOS>MOLECULE
3fnq_HPA_A_1.pdb
 10 11 0 0 0
SMALL
GASTEIGER

@<TRIPOS>ATOM
      1  N1         8.1970   -3.9220   30.4190 N.2   981  HPA981     -0.1726
      2  C2         6.9490   -4.3330   29.8210 C.3   981  HPA981      0.2725
      3  N3         6.1060   -3.4100   29.3380 N.2   981  HPA981     -0.1902
      4  C4         6.4270   -2.1060   29.4100 C.1   981  HPA981      0.0598
      5  C5         7.6490   -1.7070   29.9940 C.2   981  HPA981      0.2226
      6  C6         8.5160   -2.6490   30.4800 C.1   981  HPA981      0.1796
      7  O6         9.7310   -2.2580   31.0400 O.2   981  HPA981     -0.2200
      8  N7         7.7360   -0.2660   29.9400 N.2   981  HPA981     -0.2230
      9  C8         6.5400    0.2380   29.2630 C.3   981  HPA981      0.2622
     10  N9         5.7020   -0.9060   28.9990 N.2   981  HPA981     -0.1910
@<TRIPOS>BOND
     1    10     9    1
     2    10     4    2
     3     9     8    1
     4     3     4    2
     5     3     2    1
     6     4     5    1
     7     2     1    1
     8     8     5    2
     9     5     6    1
    10     1     6    2
    11     6     7    2
