@<TRIPOS>MOLECULE
3fnt_III_I_1.pdb
 48 47 0 0 0
SMALL
GASTEIGER

@<TRIPOS>ATOM
      1  CA       -21.5230   -2.1420   20.1090 C.3     1  IVA1        0.0868
      2  CB       -21.1100   -0.6800   20.1520 C.3     1  IVA1        0.0091
      3  CG1      -21.0070   -0.2160   21.6240 C.3     1  IVA1        0.0005
      4  CG2      -19.9080   -0.3970   19.2250 C.3     1  IVA1        0.0005
      5  C        -22.5590   -2.1240   18.9880 C.2     1  IVA1        0.2418
      6  O        -22.4860   -2.9210   18.0660 O.2     1  IVA1       -0.2733
      7  N        -23.5080   -1.1830   19.0460 N.am    2  VAL2       -0.1978
      8  CA       -24.5860   -0.9840   18.0860 C.3     2  VAL2        0.1726
      9  C        -24.8140   -2.1710   17.2310 C.2     2  VAL2        0.2616
     10  O        -24.2250   -2.3050   16.1820 O.2     2  VAL2       -0.2715
     11  CB       -24.2720    0.2300   17.2270 C.3     2  VAL2        0.0290
     12  CG1      -25.5470    1.0300   17.1200 C.3     2  VAL2        0.0023
     13  CG2      -23.2000    1.1590   17.7810 C.3     2  VAL2        0.0023
     14  N        -25.6530   -3.0470   17.7250 N.am    3  VAL3       -0.1963
     15  CA       -26.0150   -4.2640   17.0220 C.3     3  VAL3        0.1727
     16  C        -27.4670   -4.0590   16.6750 C.2     3  VAL3        0.2612
     17  O        -28.2500   -3.6190   17.5100 O.2     3  VAL3       -0.2715
     18  CB       -25.6600   -5.4370   17.9610 C.3     3  VAL3        0.0290
     19  CG1      -24.1710   -5.5110   18.1470 C.3     3  VAL3        0.0023
     20  CG2      -26.2390   -5.4820   19.3810 C.3     3  VAL3        0.0023
     21  N        -27.8720   -4.2670   15.5070 N.am    4  STA4       -0.2031
     22  CA       -29.2850   -4.0120   15.2740 C.3     4  STA4        0.1261
     23  CB       -29.4450   -2.5060   14.9450 C.3     4  STA4        0.0243
     24  CG       -29.0860   -1.4570   15.9930 C.3     4  STA4        0.0018
     25  CD1      -30.0230   -0.2660   16.0530 C.3     4  STA4        0.0001
     26  CD2      -27.7140   -0.9320   15.6820 C.3     4  STA4        0.0001
     27  CH       -29.7240   -4.8980   14.0830 C.3     4  STA4        0.1809
     28  OH       -29.1420   -4.3360   12.8950 O.3     4  STA4       -0.2208
     29  CM       -29.4090   -6.4210   14.0630 C.3     4  STA4        0.1214
     30  C        -30.5160   -7.3100   13.4400 C.2     4  STA4        0.2444
     31  O        -31.2850   -6.9380   12.5540 O.2     4  STA4       -0.2732
     32  N        -30.5870   -8.5550   13.9320 N.am    5  ALA5       -0.1977
     33  CA       -31.5610   -9.5860   13.5530 C.3     5  ALA5        0.1728
     34  C        -31.5650  -10.6000   14.6630 C.2     5  ALA5        0.2612
     35  O        -30.4290  -10.9340   15.0770 O.2     5  ALA5       -0.2715
     36  CB       -31.1680  -10.2790   12.2600 C.3     5  ALA5        0.0334
     37  N        -32.7730  -11.0380   15.1780 N.am    6  STA6       -0.2031
     38  CA       -32.9290  -12.0470   16.3030 C.3     6  STA6        0.1262
     39  CB       -33.5830  -11.4630   17.6280 C.3     6  STA6        0.0243
     40  CG       -33.1910  -12.1580   19.0000 C.3     6  STA6        0.0018
     41  CD1      -34.3070  -13.0980   19.5080 C.3     6  STA6        0.0001
     42  CD2      -32.8500  -11.1950   20.1590 C.3     6  STA6        0.0001
     43  CH       -33.7560  -13.2440   15.7550 C.3     6  STA6        0.1830
     44  OH       -33.5930  -13.3570   14.3210 O.3     6  STA6       -0.2207
     45  CM       -33.4110  -14.5860   16.4400 C.3     6  STA6        0.1486
     46  C        -34.7010  -15.3600   16.5160 C.2     6  STA6        0.3675
     47  O        -35.2850  -15.6160   15.4320 O.co2   6  STA6       -0.2456
     48  OXT      -35.1280  -15.6940   17.6450 O.co2   6  STA6       -0.2456
@<TRIPOS>BOND
     1    36    33    1
     2    31    30    2
     3    28    27    1
     4    30    32   am
     5    30    29    1
     6    33    32    1
     7    33    34    1
     8    29    27    1
     9    27    22    1
    10    44    43    1
    11    34    35    2
    12    34    37   am
    13    23    22    1
    14    23    24    1
    15    37    38    1
    16    22    21    1
    17    47    46   ar
    18    21    16   am
    19    26    24    1
    20    43    38    1
    21    43    45    1
    22    24    25    1
    23    10     9    2
    24    38    39    1
    25    45    46    1
    26    46    48   ar
    27    16    15    1
    28    16    17    2
    29    15    14    1
    30    15    18    1
    31    12    11    1
    32    11    13    1
    33    11     8    1
    34     9    14   am
    35     9     8    1
    36    39    40    1
    37    18    19    1
    38    18    20    1
    39     6     5    2
    40     8     7    1
    41     5     7   am
    42     5     1    1
    43    40    41    1
    44    40    42    1
    45     4     2    1
    46     1     2    1
    47     2     3    1
