@<TRIPOS>MOLECULE
3fnu_006_A_1.pdb
 45 49 0 0 0
SMALL
GASTEIGER

@<TRIPOS>ATOM
      1  N2        -8.5860  -50.7910  -75.4880 N.am  329  006329     -0.2006
      2  C20       -7.6890  -51.8220  -74.9520 C.3   329  006329      0.1390
      3  O20       -6.2370  -51.1770  -73.1030 O.3   329  006329     -0.2114
      4  C21       -7.5060  -52.8560  -76.0630 C.3   329  006329      0.0511
      5  O21       -6.7460  -48.9360  -75.0650 O.2   329  006329     -0.2720
      6  C22       -8.6680  -53.8260  -76.1000 C.ar  329  006329     -0.0204
      7  C23       -8.7340  -54.8810  -75.1810 C.ar  329  006329     -0.0042
      8  C24       -9.8060  -55.7730  -75.2190 C.ar  329  006329     -0.0003
      9  C25      -10.8070  -55.6080  -76.1780 C.ar  329  006329     -0.0000
     10  C26      -10.7400  -54.5580  -77.0970 C.ar  329  006329     -0.0003
     11  C27       -9.6700  -53.6650  -77.0590 C.ar  329  006329     -0.0042
     12  C28       -6.3260  -51.2310  -74.5380 C.3   329  006329      0.2475
     13  C29       -5.9670  -49.8820  -75.1390 C.2   329  006329      0.2589
     14  N30       -5.0240  -46.8850  -78.1420 N.am  329  006329     -0.1986
     15  O30       -5.6530  -45.2570  -76.0960 O.3   329  006329     -0.2206
     16  C31       -4.0930  -45.7730  -77.9360 C.3   329  006329      0.1478
     17  C32       -4.2370  -44.8150  -79.0500 C.ar  329  006329     -0.0040
     18  C33       -4.2320  -45.1250  -80.4110 C.ar  329  006329     -0.0029
     19  C34       -4.3830  -44.0690  -81.3160 C.ar  329  006329     -0.0003
     20  C35       -4.3910  -44.9240  -76.6840 C.3   329  006329      0.1802
     21  C36       -4.3840  -43.5240  -78.6000 C.ar  329  006329     -0.0218
     22  C37       -4.5340  -42.4610  -79.4890 C.ar  329  006329     -0.0044
     23  C38       -4.5290  -42.7530  -80.8570 C.ar  329  006329     -0.0003
     24  C39       -4.3670  -43.4430  -77.0910 C.3   329  006329      0.0611
     25  C40      -14.4320  -48.6510  -78.9570 C.ar  329  006329     -0.0004
     26  O40      -10.2780  -51.2260  -74.0490 O.2   329  006329     -0.2693
     27  C41      -14.2790  -49.9660  -78.5130 C.ar  329  006329     -0.0013
     28  O41      -10.9510  -49.8420  -76.9670 O.3   329  006329     -0.4662
     29  C42      -13.1190  -50.3620  -77.8460 C.ar  329  006329      0.0118
     30  C43      -12.9960  -51.7970  -77.3870 C.3   329  006329      0.0342
     31  C44      -11.2010  -47.0630  -77.8660 C.3   329  006329      0.0342
     32  C45      -12.1010  -49.4320  -77.6170 C.ar  329  006329      0.1312
     33  C46      -12.2600  -48.1120  -78.0720 C.ar  329  006329      0.0118
     34  C47      -13.4220  -47.7240  -78.7360 C.ar  329  006329     -0.0013
     35  C48       -9.8100  -50.5900  -74.9820 C.2   329  006329      0.2859
     36  C49      -10.6480  -49.5050  -75.6120 C.3   329  006329      0.2911
     37  C50       -3.8070  -50.9200  -75.8190 C.3   329  006329      0.1527
     38  N50       -4.7560  -49.8050  -75.7310 N.am  329  006329     -0.2602
     39  O50       -5.9940  -48.8400  -77.9430 O.2   329  006329     -0.2715
     40  S50       -2.2200  -50.1990  -75.9760 S.3   329  006329     -0.1182
     41  C51       -2.6900  -48.6150  -76.5610 C.3   329  006329      0.0661
     42  C52       -2.2110  -48.5270  -78.0110 C.3   329  006329      0.0131
     43  C53       -1.9940  -47.5780  -75.6790 C.3   329  006329      0.0131
     44  C54       -4.2390  -48.5510  -76.3600 C.3   329  006329      0.1633
     45  C55       -5.1130  -48.0910  -77.5420 C.2   329  006329      0.2606
@<TRIPOS>BOND
     1    19    23   ar
     2    19    18   ar
     3    23    22   ar
     4    18    17   ar
     5    22    21   ar
     6    17    21   ar
     7    17    16    1
     8    25    34   ar
     9    25    27   ar
    10    34    33   ar
    11    21    24    1
    12    27    29   ar
    13    14    16    1
    14    14    45   am
    15    33    31    1
    16    33    32   ar
    17    42    41    1
    18    39    45    2
    19    16    20    1
    20    29    32   ar
    21    29    30    1
    22    32    28    1
    23    45    44    1
    24    10    11   ar
    25    10     9   ar
    26    24    20    1
    27    11     6   ar
    28    28    36    1
    29    20    15    1
    30    41    44    1
    31    41    40    1
    32    41    43    1
    33    44    38    1
    34     9     8   ar
    35     6     4    1
    36     6     7   ar
    37     4     2    1
    38    40    37    1
    39    37    38    1
    40    38    13   am
    41    36    35    1
    42     1    35   am
    43     1     2    1
    44     8     7   ar
    45    13     5    2
    46    13    12    1
    47    35    26    2
    48     2    12    1
    49    12     3    1
