@<TRIPOS>MOLECULE
3fo0_BZH_H_1.pdb
 19 20 0 0 0
SMALL
GASTEIGER

@<TRIPOS>ATOM
      1  C8        19.1860    4.2640  -35.6020 C.3   401  BZH401      0.1052
      2  C9        19.4250    3.4190  -34.5340 C.2   401  BZH401      0.1548
      3  N1        19.5860    2.1000  -34.4590 N.2   401  BZH401     -0.3276
      4  C2        19.7910    1.8200  -33.1800 C.1   401  BZH401      0.2410
      5  N10       19.9880    0.5920  -32.7370 N.pl3 401  BZH401     -0.0232
      6  N3        19.7640    2.9120  -32.4190 N.2   401  BZH401     -0.3276
      7  C4        19.5280    3.9360  -33.2430 C.2   401  BZH401      0.1535
      8  C5        19.3950    5.3170  -33.0430 C.3   401  BZH401      0.0894
      9  C6        19.1490    6.1620  -34.1300 C.2   401  BZH401     -0.0059
     10  C7        19.0370    5.6320  -35.4130 C.2   401  BZH401      0.0544
     11  N11       18.8050    6.3810  -36.5070 N.am  401  BZH401     -0.1835
     12  C12       18.9470    7.7090  -36.6170 C.2   401  BZH401      0.2453
     13  O19       19.2910    8.4820  -35.7230 O.2   401  BZH401     -0.2730
     14  C13       18.6310    8.2530  -38.0030 C.3   401  BZH401      0.0877
     15  C14       19.4110    9.5200  -38.3300 C.3   401  BZH401      0.0214
     16  C15       19.1400    9.8620  -39.7810 C.3   401  BZH401      0.1146
     17  C16       19.9380   11.0870  -40.2280 C.2   401  BZH401      0.3649
     18  O18       19.3440   12.1900  -40.1040 O.co2 401  BZH401     -0.2457
     19  O17       21.1020   10.8880  -40.6800 O.co2 401  BZH401     -0.2457
@<TRIPOS>BOND
     1    19    17   ar
     2    17    18   ar
     3    17    16    1
     4    16    15    1
     5    15    14    1
     6    14    12    1
     7    12    11   am
     8    12    13    2
     9    11    10    1
    10     1    10    1
    11     1     2    1
    12    10     9    2
    13     2     3    2
    14     2     7    1
    15     3     4    2
    16     9     8    1
    17     7     8    1
    18     7     6    2
    19     4     5    1
    20     4     6    2
