@<TRIPOS>MOLECULE
3fo1_BZH_B_1.pdb
 19 20 0 0 0
SMALL
GASTEIGER

@<TRIPOS>ATOM
      1  C8        35.7650   -5.7480    1.9140 C.3   401  BZH401      0.1052
      2  C9        34.6730   -4.9210    1.6980 C.2   401  BZH401      0.1548
      3  N1        34.5350   -3.5940    1.5410 N.2   401  BZH401     -0.3276
      4  C2        33.2050   -3.3810    1.3650 C.1   401  BZH401      0.2410
      5  N10       32.6440   -2.2130    1.1580 N.pl3 401  BZH401     -0.0232
      6  N3        32.5200   -4.5000    1.3660 N.2   401  BZH401     -0.3276
      7  C4        33.4050   -5.4870    1.5810 C.2   401  BZH401      0.1535
      8  C5        33.2350   -6.8680    1.6880 C.3   401  BZH401      0.0894
      9  C6        34.3320   -7.6860    1.9210 C.2   401  BZH401     -0.0059
     10  C7        35.6040   -7.1230    2.0160 C.2   401  BZH401      0.0544
     11  N11       36.7140   -7.8820    2.2550 N.am  401  BZH401     -0.1835
     12  C12       36.8630   -9.2060    2.0190 C.2   401  BZH401      0.2453
     13  O19       36.0180   -9.9400    1.5340 O.2   401  BZH401     -0.2730
     14  C13       38.2290   -9.7800    2.4190 C.3   401  BZH401      0.0877
     15  C14       38.4960  -11.1660    1.8770 C.3   401  BZH401      0.0214
     16  C15       39.9280  -11.6200    2.2310 C.3   401  BZH401      0.1146
     17  C16       40.3790  -12.6860    1.2140 C.2   401  BZH401      0.3649
     18  O18       39.8130  -13.8050    1.3260 O.co2 401  BZH401     -0.2457
     19  O17       41.2470  -12.3570    0.3550 O.co2 401  BZH401     -0.2457
@<TRIPOS>BOND
     1    19    17   ar
     2     5     4    1
     3    17    18   ar
     4    17    16    1
     5     4     6    2
     6     4     3    2
     7     6     7    2
     8    13    12    2
     9     3     2    2
    10     7     8    1
    11     7     2    1
    12     8     9    1
    13     2     1    1
    14    15    16    1
    15    15    14    1
    16     1    10    1
    17     9    10    2
    18    10    11    1
    19    12    11   am
    20    12    14    1
