@<TRIPOS>MOLECULE
3fo2_BZH_A_1.pdb
 19 20 0 0 0
SMALL
GASTEIGER

@<TRIPOS>ATOM
      1  C8        -1.8520   -2.6330   34.6690 C.ar  401  BZH401      0.0523
      2  C9        -1.6140   -1.8310   33.5760 C.ar  401  BZH401      0.1767
      3  N1        -1.4430   -0.5270   33.4540 N.2   401  BZH401     -0.3231
      4  C2        -1.2520   -0.2880   32.1740 C.1   401  BZH401      0.2416
      5  N10       -1.0560    0.9240   31.6780 N.pl3 401  BZH401     -0.0232
      6  N3        -1.3000   -1.4170   31.4750 N.2   401  BZH401     -0.3232
      7  C4        -1.5300   -2.4070   32.3100 C.ar  401  BZH401      0.1755
      8  C5        -1.6740   -3.7910   32.1490 C.ar  401  BZH401      0.0371
      9  C6        -1.9240   -4.5940   33.2670 C.ar  401  BZH401      0.0194
     10  C7        -2.0020   -4.0080   34.5360 C.ar  401  BZH401      0.0761
     11  N11       -2.2310   -4.6680   35.6820 N.am  401  BZH401     -0.1791
     12  C12       -2.0450   -5.9550   35.9430 C.2   401  BZH401      0.2456
     13  O19       -1.6330   -6.7870   35.1560 O.2   401  BZH401     -0.2730
     14  C13       -2.4130   -6.3460   37.3790 C.3   401  BZH401      0.0878
     15  C14       -2.2360   -7.8330   37.6580 C.3   401  BZH401      0.0214
     16  C15       -2.3140   -8.0790   39.1610 C.3   401  BZH401      0.1146
     17  C16       -1.7830   -9.4630   39.5260 C.2   401  BZH401      0.3649
     18  O18       -2.4240  -10.4460   39.0720 O.co2 401  BZH401     -0.2457
     19  O17       -0.7520   -9.4990   40.2460 O.co2 401  BZH401     -0.2457
@<TRIPOS>BOND
     1     6     4    2
     2     6     7    2
     3     5     4    1
     4     8     7   ar
     5     8     9   ar
     6     4     3    2
     7     7     2   ar
     8     9    10   ar
     9     3     2    2
    10     2     1   ar
    11    10     1   ar
    12    10    11    1
    13    13    12    2
    14    11    12   am
    15    12    14    1
    16    14    15    1
    17    15    16    1
    18    18    17   ar
    19    16    17    1
    20    17    19   ar
