@<TRIPOS>MOLECULE
3fo5_TCE_A_1.pdb
 16 15 0 0 0
SMALL
GASTEIGER

@<TRIPOS>ATOM
      1  O16       29.6790   39.9820   65.7780 O.co2 596  TCE596     -0.2456
      2  C14       29.6560   40.1750   67.0140 C.2   596  TCE596      0.3652
      3  O15       28.7510   39.7860   67.7940 O.co2 596  TCE596     -0.2456
      4  C5        30.8550   40.9260   67.6420 C.3   596  TCE596      0.1187
      5  C2        31.3020   42.1620   66.8290 C.3   596  TCE596      0.0333
      6  P         31.4630   43.6850   67.8530 P.3   596  TCE596     -0.0779
      7  C3        31.4870   44.8780   66.4680 C.3   596  TCE596      0.0333
      8  C6        32.0520   44.1840   65.2190 C.3   596  TCE596      0.1187
      9  C8        32.6070   45.1660   64.1650 C.2   596  TCE596      0.3652
     10  O10       33.7970   45.5530   64.3010 O.co2 596  TCE596     -0.2456
     11  O9        31.8380   45.4830   63.2290 O.co2 596  TCE596     -0.2456
     12  C1        29.8330   43.7660   68.6540 C.3   596  TCE596      0.0333
     13  C4        29.9310   43.7810   70.1900 C.3   596  TCE596      0.1187
     14  C11       29.6060   42.4230   70.8330 C.2   596  TCE596      0.3652
     15  O12       29.5400   42.3880   72.0830 O.co2 596  TCE596     -0.2456
     16  O13       29.4610   41.4470   70.0700 O.co2 596  TCE596     -0.2456
@<TRIPOS>BOND
     1    11     9   ar
     2     9    10   ar
     3     9     8    1
     4     8     7    1
     5     1     2   ar
     6     7     6    1
     7     5     4    1
     8     5     6    1
     9     2     4    1
    10     2     3   ar
    11     6    12    1
    12    12    13    1
    13    16    14   ar
    14    13    14    1
    15    14    15   ar
