@<TRIPOS>MOLECULE
3fo7_IMN_A_1.pdb
 25 27 0 0 0
SMALL
GASTEIGER

@<TRIPOS>ATOM
      1  C         52.3780   40.1290    8.5890 C.ar  301  IMN301      0.0664
      2  C1        52.8480   38.9440    7.8220 C.ar  301  IMN301      0.0169
      3  C2        54.1530   38.8880    7.3670 C.ar  301  IMN301      0.0381
      4  C3        55.0430   39.9260    7.6030 C.ar  301  IMN301      0.1388
      5  C4        54.6210   41.0400    8.3190 C.ar  301  IMN301      0.0384
      6  C5        53.3120   41.1460    8.8050 C.ar  301  IMN301      0.0207
      7  C6        57.1030   40.9140    6.6390 C.3   301  IMN301      0.2525
      8  C7        51.7120   37.9890    7.6990 C.ar  301  IMN301      0.0027
      9  C8        50.6060   38.6650    8.4200 C.ar  301  IMN301      0.0411
     10  C9        50.1540   40.7730    9.3300 C.2   301  IMN301      0.2644
     11  C10       50.2690   41.9760   10.2340 C.ar  301  IMN301      0.0565
     12  C11       49.1080   42.7480   10.2360 C.ar  301  IMN301      0.0056
     13  C12       49.0090   43.9030   10.9920 C.ar  301  IMN301      0.0115
     14  C13       50.0840   44.3060   11.7650 C.ar  301  IMN301      0.0577
     15  C14       51.2480   43.5500   11.7760 C.ar  301  IMN301      0.0115
     16  C15       51.3500   42.3870   11.0120 C.ar  301  IMN301      0.0056
     17  C16       49.1980   38.1740    8.6260 C.3   301  IMN301      0.0501
     18  C17       51.8600   36.6750    6.9480 C.3   301  IMN301      0.1415
     19  C18       50.7640   35.6270    6.7430 C.2   301  IMN301      0.3693
     20  N         51.0840   39.8470    8.8730 N.ar  301  IMN301     -0.2785
     21  O         56.3340   39.8130    7.1280 O.3   301  IMN301     -0.4714
     22  O1        49.0630   40.7300    8.8100 O.2   301  IMN301     -0.2666
     23  O2        49.9640   35.2160    7.5720 O.co2 301  IMN301     -0.2453
     24  O3        50.7050   35.0770    5.5270 O.co2 301  IMN301     -0.2453
     25 CL         49.9570   45.8000   12.7470 Cl    301  IMN301     -0.0822
@<TRIPOS>BOND
     1    24    19   ar
     2     7    21    1
     3    19    18    1
     4    19    23   ar
     5    18     8    1
     6    21     4    1
     7     3     4   ar
     8     3     2   ar
     9     4     5   ar
    10     8     2   ar
    11     8     9   ar
    12     2     1   ar
    13     5     6   ar
    14     9    17    1
    15     9    20   ar
    16     1     6   ar
    17     1    20   ar
    18    22    10    2
    19    20    10   am
    20    10    11    1
    21    11    12   ar
    22    11    16   ar
    23    12    13   ar
    24    13    14   ar
    25    16    15   ar
    26    14    15   ar
    27    14    25    1
