@<TRIPOS>MOLECULE
3fo9_DIK_B_1.pdb
 22 22 0 0 0
SMALL
GASTEIGER

@<TRIPOS>ATOM
      1  C1        15.3260   61.5460   63.1390 C.3   500  DIK500      0.0308
      2  C2        15.6570   62.9450   63.5580 C.2   500  DIK500     -0.0229
      3  C3        15.6520   63.2400   64.8670 C.2   500  DIK500      0.0329
      4  C4        15.9640   64.6090   65.3140 C.2   500  DIK500      0.1731
      5  O1        16.2270   65.4670   64.4930 O.2   500  DIK500     -0.2913
      6  C5        15.9530   64.9560   66.7800 C.3   500  DIK500      0.0738
      7  C6        14.5870   65.5360   67.1630 C.3   500  DIK500      0.0345
      8  C7        14.7150   66.9660   67.6570 C.ar  500  DIK500     -0.0217
      9  C8        13.5720   67.7540   67.8580 C.ar  500  DIK500     -0.0029
     10  C9        13.6920   69.0730   68.3120 C.ar  500  DIK500      0.0163
     11  C10       15.9770   67.5050   67.9150 C.ar  500  DIK500     -0.0029
     12  C11       16.0980   68.8150   68.3640 C.ar  500  DIK500      0.0163
     13  C12       14.9620   69.6000   68.5580 C.ar  500  DIK500      0.0733
     14  N1        15.1560   70.9080   69.0190 N.am  500  DIK500     -0.1792
     15  C13       14.9880   71.9970   68.2690 C.2   500  DIK500      0.2456
     16  O2        14.6290   71.9660   67.1040 O.2   500  DIK500     -0.2730
     17  C14       15.2720   73.3250   68.9420 C.3   500  DIK500      0.0878
     18  C15       14.8760   73.2910   70.4170 C.3   500  DIK500      0.0214
     19  C16       16.0330   73.4800   71.3970 C.3   500  DIK500      0.1146
     20  C17       16.0190   72.3790   72.4420 C.2   500  DIK500      0.3649
     21  O3        15.3430   72.5600   73.4790 O.co2 500  DIK500     -0.2457
     22  O4        16.6790   71.3290   72.2400 O.co2 500  DIK500     -0.2457
@<TRIPOS>BOND
     1     1     2    1
     2     2     3    2
     3     5     4    2
     4     3     4    1
     5     4     6    1
     6     6     7    1
     7    16    15    2
     8     7     8    1
     9     8     9   ar
    10     8    11   ar
    11     9    10   ar
    12    11    12   ar
    13    15    17    1
    14    15    14   am
    15    10    13   ar
    16    12    13   ar
    17    13    14    1
    18    17    18    1
    19    18    19    1
    20    19    20    1
    21    22    20   ar
    22    20    21   ar
