@<TRIPOS>MOLECULE
3foe_NFX_F_1.pdb
 38 41 0 0 0
SMALL
GASTEIGER

@<TRIPOS>ATOM
      1  F        -38.9060   52.3890  -36.4730 F       0  NFX0       -0.2035
      2 CL        -37.6220   57.5090  -36.2630 Cl      0  NFX0       -0.0794
      3  O02      -37.9210   53.1740  -31.4430 O.2     0  NFX0       -0.2863
      4  O03      -36.1770   54.5580  -29.1180 O.co2   0  NFX0       -0.2404
      5  O        -38.0600   55.2690  -28.7540 O.co2   0  NFX0       -0.2404
      6  N01      -38.4930   55.0080  -37.7820 N.pl3   0  NFX0       -0.3246
      7  N        -37.2590   56.9060  -33.0160 N.ar    0  NFX0       -0.3414
      8  C01      -37.8350   55.1660  -40.0260 C.3     0  NFX0        0.0640
      9  C02      -39.2730   55.1420  -39.8980 C.3     0  NFX0        0.0004
     10  C03      -37.8490   55.8980  -38.7490 C.3     0  NFX0        0.0311
     11  C04      -39.4920   54.3960  -38.6000 C.3     0  NFX0        0.0171
     12  N05      -37.0790   55.3550  -41.1560 N.3     0  NFX0       -0.1379
     13  C06      -37.0410   58.2490  -33.5410 C.3     0  NFX0        0.0347
     14  C08      -36.1130   59.1600  -32.7280 C.3     0  NFX0       -0.0302
     15  C09      -35.6250   58.5610  -34.0360 C.3     0  NFX0       -0.0302
     16  C11      -38.2850   54.8460  -36.3300 C.ar    0  NFX0        0.0860
     17  C12      -37.7040   55.6950  -33.9430 C.ar    0  NFX0        0.0735
     18  C13      -37.9020   55.9070  -35.5340 C.ar    0  NFX0        0.0889
     19  C14      -37.9140   54.4930  -33.4160 C.ar    0  NFX0        0.0503
     20  C15      -38.5270   53.4480  -35.6900 C.ar    0  NFX0        0.1465
     21  C16      -37.0880   56.6300  -31.4900 C.ar    0  NFX0        0.0233
     22  C17      -38.3550   53.2720  -34.3270 C.ar    0  NFX0       -0.0117
     23  C18      -37.3100   55.3950  -30.9870 C.ar    0  NFX0        0.1263
     24  C19      -37.7320   54.2540  -31.8990 C.ar    0  NFX0        0.2036
     25  C20      -37.1360   55.1300  -29.4920 C.2     0  NFX0        0.3916
     26  H01      -37.9670   54.3690  -39.3090 H       0  NFX0        0.0511
     27  H02      -40.0170   55.5570  -40.5700 H       0  NFX0        0.0336
     28  H03      -36.8340   56.1190  -38.4350 H       0  NFX0        0.0480
     29 H03A      -38.4180   56.8150  -38.8490 H       0  NFX0        0.0480
     30  H04      -39.3010   53.3360  -38.7210 H       0  NFX0        0.0467
     31 H04A      -40.4810   54.5760  -38.2090 H       0  NFX0        0.0467
     32  H06      -37.8370   58.7500  -34.0650 H       0  NFX0        0.0528
     33  H08      -35.6990   58.7230  -31.8250 H       0  NFX0        0.0286
     34 H08A      -36.3540   60.2200  -32.7540 H       0  NFX0        0.0286
     35  H09      -35.5620   59.2480  -34.8800 H       0  NFX0        0.0286
     36 H09A      -34.9070   57.7500  -33.9440 H       0  NFX0        0.0286
     37  H16      -36.7880   57.4350  -30.8260 H       0  NFX0        0.0819
     38  H17      -38.5210   52.2950  -33.8800 H       0  NFX0        0.0654
@<TRIPOS>BOND
     1    12     8    1
     2    27     9    1
     3     8     9    1
     4     8    26    1
     5     8    10    1
     6     9    11    1
     7    29    10    1
     8    10    28    1
     9    10     6    1
    10    30    11    1
    11    11    31    1
    12    11     6    1
    13     6    16    1
    14     1    20    1
    15    16    20   ar
    16    16    18   ar
    17     2    18    1
    18    20    22   ar
    19    18    17   ar
    20    35    15    1
    21    22    38    1
    22    22    19   ar
    23    32    13    1
    24    15    36    1
    25    15    13    1
    26    15    14    1
    27    17    19   ar
    28    17     7   ar
    29    13     7    1
    30    13    14    1
    31    19    24   ar
    32     7    21   ar
    33    34    14    1
    34    14    33    1
    35    24     3    2
    36    24    23   ar
    37    21    23   ar
    38    21    37    1
    39    23    25    1
    40    25     4   ar
    41    25     5   ar
