@<TRIPOS>MOLECULE
3foo_PXX_A_1.pdb
 18 20 0 0 0
SMALL
GASTEIGER

@<TRIPOS>ATOM
      1  CAA      -18.1130   11.6830   -8.2420 C.3   151  PXX151      0.0968
      2  CAM      -18.7150   12.4640   -9.3940 C.2   151  PXX151      0.2461
      3  OAB      -19.7880   12.0840   -9.8680 O.2   151  PXX151     -0.2730
      4  NAL      -18.0230   13.5300   -9.8520 N.am  151  PXX151     -0.1791
      5  CAN      -18.5570   14.1920  -10.8980 C.ar  151  PXX151      0.0749
      6  CAP      -18.1520   13.8850  -12.2050 C.ar  151  PXX151      0.0345
      7  CAH      -17.1620   12.9330  -12.4420 C.ar  151  PXX151      0.0044
      8  CAD      -16.7990   12.6800  -13.7640 C.ar  151  PXX151      0.0207
      9  CAF      -17.4140   13.3750  -14.8090 C.ar  151  PXX151      0.0989
     10  NAK      -18.3560   14.2760  -14.5660 N.ar  151  PXX151     -0.2423
     11  CAR      -18.7350   14.5490  -13.2980 C.ar  151  PXX151      0.1001
     12  CAQ      -19.7300   15.5040  -13.0790 C.ar  151  PXX151      0.0989
     13  NAJ      -20.2860   16.1500  -14.1250 N.ar  151  PXX151     -0.2423
     14  CAE      -21.2440   17.0560  -13.9430 C.ar  151  PXX151      0.0989
     15  CAC      -21.6950   17.3920  -12.6670 C.ar  151  PXX151      0.0207
     16  CAG      -21.1410   16.7550  -11.5590 C.ar  151  PXX151      0.0032
     17  CAO      -20.1480   15.7930  -11.7700 C.ar  151  PXX151      0.0205
     18  CAI      -19.5680   15.1380  -10.6900 C.ar  151  PXX151      0.0182
@<TRIPOS>BOND
     1     9    10   ar
     2     9     8   ar
     3    10    11   ar
     4    13    14   ar
     5    13    12   ar
     6    14    15   ar
     7     8     7   ar
     8    11    12   ar
     9    11     6   ar
    10    12    17   ar
    11    15    16   ar
    12     7     6   ar
    13     6     5   ar
    14    17    16   ar
    15    17    18   ar
    16     5    18   ar
    17     5     4    1
    18     3     2    2
    19     4     2   am
    20     2     1    1
