@<TRIPOS>MOLECULE
3foo_HEM_A_1.pdb
 43 50 0 0 0
SMALL
GASTEIGER

@<TRIPOS>ATOM
      1  CHA      -32.2760   25.7570   -8.6070 C.2   150  HEM150      0.0000
      2  CHB      -36.2080   23.1320   -7.5360 C.2   150  HEM150      0.0000
      3  CHC      -33.4380   19.3850   -6.1810 C.2   150  HEM150      0.0000
      4  CHD      -29.4380   21.9680   -7.1490 C.2   150  HEM150      0.0000
      5  C1A      -33.5990   25.3840   -8.4800 C.ar  150  HEM150      0.0000
      6  C2A      -34.7780   26.1390   -8.8940 C.ar  150  HEM150      0.0000
      7  C3A      -35.8610   25.3990   -8.5830 C.ar  150  HEM150      0.0000
      8  C4A      -35.4010   24.1560   -7.9810 C.ar  150  HEM150      0.0000
      9  CMA      -37.3580   25.7620   -8.8170 C.3   150  HEM150      0.0000
     10  CAA      -34.7870   27.5550   -9.5360 C.3   150  HEM150      0.0000
     11  CBA      -35.0130   27.5700  -11.0520 C.3   150  HEM150      0.0000
     12  CGA      -34.8710   28.9900  -11.5840 C.2   150  HEM150      0.0000
     13  O1A      -35.9200   29.6580  -11.8140 O.co2 150  HEM150      0.0000
     14  O2A      -33.7150   29.4650  -11.7840 O.co2 150  HEM150      0.0000
     15  C1B      -35.8110   21.8910   -7.0920 C.2   150  HEM150      0.0000
     16  C2B      -36.6920   20.8040   -6.7020 C.2   150  HEM150      0.0000
     17  C3B      -35.9310   19.7610   -6.3420 C.2   150  HEM150      0.0000
     18  C4B      -34.5420   20.1620   -6.4720 C.2   150  HEM150      0.0000
     19  CMB      -38.2350   20.8720   -6.7300 C.3   150  HEM150      0.0000
     20  CAB      -36.3950   18.3650   -5.8410 C.2   150  HEM150      0.0000
     21  CBB      -37.4680   17.7170   -6.3140 C.2   150  HEM150      0.0000
     22  C1C      -32.1120   19.7370   -6.3450 C.ar  150  HEM150      0.0000
     23  C2C      -30.9760   18.8590   -6.1450 C.ar  150  HEM150      0.0000
     24  C3C      -29.8550   19.5610   -6.4220 C.ar  150  HEM150      0.0000
     25  C4C      -30.2570   20.9140   -6.7960 C.ar  150  HEM150      0.0000
     26  CMC      -31.0970   17.3750   -5.7120 C.3   150  HEM150      0.0000
     27  CAC      -28.3790   19.0600   -6.3600 C.2   150  HEM150      0.0000
     28  CBC      -28.0130   17.8240   -5.9860 C.2   150  HEM150      0.0000
     29  C1D      -29.8210   23.2040   -7.6650 C.2   150  HEM150      0.0000
     30  C2D      -28.9090   24.2090   -8.1810 C.2   150  HEM150      0.0000
     31  C3D      -29.7790   25.3820   -8.6400 C.2   150  HEM150      0.0000
     32  C4D      -31.1470   24.9840   -8.3550 C.2   150  HEM150      0.0000
     33  CMD      -27.3690   24.1260   -8.2540 C.3   150  HEM150      0.0000
     34  CAD      -29.2650   26.7060   -9.2520 C.3   150  HEM150      0.0000
     35  CBD      -29.5640   26.7970  -10.7480 C.3   150  HEM150      0.0000
     36  CGD      -28.9550   28.0590  -11.3320 C.2   150  HEM150      0.0000
     37  O1D      -28.6860   29.0400  -10.5780 O.co2 150  HEM150      0.0000
     38  O2D      -28.7420   28.0810  -12.5730 O.co2 150  HEM150      0.0000
     39  NA       -34.0240   24.1870   -7.9300 N.ar  150  HEM150      0.0000
     40  NB       -34.5020   21.4650   -6.9380 N.2   150  HEM150      0.0000
     41  NC       -31.6350   20.9790   -6.7380 N.ar  150  HEM150      0.0000
     42  ND       -31.1220   23.7030   -7.7900 N.2   150  HEM150      0.0000
     43 FE        -32.7900   22.6070   -7.3540 Fe    150  HEM150      0.0000
@<TRIPOS>BOND
     1    38    36   ar
     2    13    12   ar
     3    14    12   ar
     4    12    11    1
     5    36    35    1
     6    36    37   ar
     7    11    10    1
     8    35    34    1
     9    10     6    1
    10    34    31    1
    11     6     7   ar
    12     6     5   ar
    13     9     7    1
    14    31    32    1
    15    31    30    2
    16     1     5    2
    17     1    32    1
    18     7     8   ar
    19     5    39   ar
    20    32    42    2
    21    33    30    1
    22    30    29    1
    23     8    39   ar
    24     8     2    2
    25    39    43    1
    26    42    29    1
    27    42    43    1
    28    29     4    2
    29     2    15    1
    30    43    40    1
    31    43    41    1
    32     4    25    1
    33    15    40    2
    34    15    16    1
    35    40    18    1
    36    25    41   ar
    37    25    24   ar
    38    41    22   ar
    39    19    16    1
    40    16    17    2
    41    18    17    1
    42    18     3    2
    43    24    27    1
    44    24    23   ar
    45    27    28    2
    46    22     3    1
    47    22    23   ar
    48    17    20    1
    49    21    20    2
    50    23    26    1
