@<TRIPOS>MOLECULE
3fop_HEM_A_1.pdb
 43 50 0 0 0
SMALL
GASTEIGER

@<TRIPOS>ATOM
      1 FE        -55.6110    6.6300   15.2510 Fe    150  HEM150      0.0000
      2  CHA      -57.9770    4.4990   14.3070 C.2   150  HEM150      0.0000
      3  CHB      -53.1700    4.3910   14.0370 C.2   150  HEM150      0.0000
      4  CHC      -53.1210    8.8360   16.0410 C.2   150  HEM150      0.0000
      5  CHD      -57.9020    8.7130   16.7280 C.2   150  HEM150      0.0000
      6  NA       -55.5440    4.7970   14.3100 N.ar  150  HEM150      0.0000
      7  C1A      -56.6920    4.0590   14.0690 C.ar  150  HEM150      0.0000
      8  C2A      -56.3290    2.7520   13.5170 C.ar  150  HEM150      0.0000
      9  C3A      -54.9900    2.7270   13.4400 C.ar  150  HEM150      0.0000
     10  C4A      -54.4800    4.0020   13.9330 C.ar  150  HEM150      0.0000
     11  CMA      -54.1410    1.5490   12.9210 C.3   150  HEM150      0.0000
     12  CAA      -57.3150    1.6150   13.0940 C.3   150  HEM150      0.0000
     13  CBA      -58.1000    2.0560   11.8490 C.3   150  HEM150      0.0000
     14  CGA      -59.3500    1.2620   11.5070 C.2   150  HEM150      0.0000
     15  O1A      -59.6780    1.1660   10.2870 O.co2 150  HEM150      0.0000
     16  O2A      -60.0470    0.7380   12.4230 O.co2 150  HEM150      0.0000
     17  NB       -53.5790    6.6380   15.0340 N.2   150  HEM150      0.0000
     18  C1B      -52.7640    5.5930   14.5950 C.2   150  HEM150      0.0000
     19  C2B      -51.3790    5.9800   14.8120 C.2   150  HEM150      0.0000
     20  C3B      -51.3630    7.1970   15.3620 C.2   150  HEM150      0.0000
     21  C4B      -52.7350    7.6350   15.5070 C.2   150  HEM150      0.0000
     22  CMB      -50.1580    5.1050   14.4630 C.3   150  HEM150      0.0000
     23  CAB      -50.1080    7.9890   15.7770 C.2   150  HEM150      0.0000
     24  CBB      -49.3400    8.5130   14.8170 C.2   150  HEM150      0.0000
     25  NC       -55.5530    8.4370   16.1610 N.ar  150  HEM150      0.0000
     26  C1C      -54.3980    9.1460   16.4610 C.ar  150  HEM150      0.0000
     27  C2C      -54.7560   10.2830   17.2950 C.ar  150  HEM150      0.0000
     28  C3C      -56.0790   10.2580   17.4860 C.ar  150  HEM150      0.0000
     29  C4C      -56.5940    9.0960   16.7810 C.ar  150  HEM150      0.0000
     30  CMC      -53.7720   11.3230   17.8550 C.3   150  HEM150      0.0000
     31  CAC      -56.9060   11.2650   18.3300 C.2   150  HEM150      0.0000
     32  CBC      -56.5710   12.5640   18.2970 C.2   150  HEM150      0.0000
     33  ND       -57.6010    6.6430   15.4680 N.2   150  HEM150      0.0000
     34  C1D      -58.3630    7.5690   16.1450 C.2   150  HEM150      0.0000
     35  C2D      -59.7390    7.1600   16.1580 C.2   150  HEM150      0.0000
     36  C3D      -59.7800    5.8380   15.3930 C.2   150  HEM150      0.0000
     37  C4D      -58.3990    5.6020   15.0180 C.2   150  HEM150      0.0000
     38  CMD      -60.9270    7.9060   16.8050 C.3   150  HEM150      0.0000
     39  CAD      -61.0350    4.9560   15.1220 C.3   150  HEM150      0.0000
     40  CBD      -61.2940    4.6160   13.6480 C.3   150  HEM150      0.0000
     41  CGD      -62.7760    4.5920   13.3360 C.2   150  HEM150      0.0000
     42  O1D      -63.6060    4.3140   14.2390 O.co2 150  HEM150      0.0000
     43  O2D      -63.1550    4.8540   12.1660 O.co2 150  HEM150      0.0000
@<TRIPOS>BOND
     1    15    14   ar
     2    14    13    1
     3    14    16   ar
     4    13    12    1
     5    43    41   ar
     6    11     9    1
     7    12     8    1
     8    41    40    1
     9    41    42   ar
    10     9     8   ar
    11     9    10   ar
    12     8     7   ar
    13    40    39    1
    14    10     3    2
    15    10     6   ar
    16     3    18    1
    17     7     2    2
    18     7     6   ar
    19     2    37    1
    20     6     1    1
    21    22    19    1
    22    18    19    1
    23    18    17    2
    24    19    20    2
    25    24    23    2
    26    37    36    1
    27    37    33    2
    28    17     1    1
    29    17    21    1
    30    39    36    1
    31     1    33    1
    32     1    25    1
    33    20    21    1
    34    20    23    1
    35    36    35    2
    36    33    34    1
    37    21     4    2
    38     4    26    1
    39    34    35    1
    40    34     5    2
    41    35    38    1
    42    25    26   ar
    43    25    29   ar
    44    26    27   ar
    45     5    29    1
    46    29    28   ar
    47    27    28   ar
    48    27    30    1
    49    28    31    1
    50    32    31    2
