@<TRIPOS>MOLECULE
3fop_PXX_A_1.pdb
 18 20 0 0 0
SMALL
GASTEIGER

@<TRIPOS>ATOM
      1  CAA      -62.7380   23.2490   20.4990 C.3   151  PXX151      0.0968
      2  CAM      -62.9650   22.2530   19.3980 C.2   151  PXX151      0.2461
      3  OAB      -62.5250   21.1380   19.4820 O.2   151  PXX151     -0.2730
      4  NAL      -63.6740   22.5890   18.3250 N.am  151  PXX151     -0.1791
      5  CAN      -63.9460   21.7270   17.2820 C.ar  151  PXX151      0.0749
      6  CAP      -64.6780   22.1950   16.1740 C.ar  151  PXX151      0.0345
      7  CAH      -65.1290   23.5010   16.1330 C.ar  151  PXX151      0.0044
      8  CAD      -65.8540   23.9080   15.0270 C.ar  151  PXX151      0.0207
      9  CAF      -66.1100   23.0260   13.9780 C.ar  151  PXX151      0.0989
     10  NAK      -65.6700   21.7740   14.0300 N.ar  151  PXX151     -0.2423
     11  CAR      -64.9720   21.3580   15.0970 C.ar  151  PXX151      0.1001
     12  CAQ      -64.5340   20.0570   15.0960 C.ar  151  PXX151      0.0989
     13  NAJ      -64.8400   19.2980   14.0230 N.ar  151  PXX151     -0.2423
     14  CAE      -64.4290   18.0210   13.9940 C.ar  151  PXX151      0.0989
     15  CAC      -63.6860   17.4810   15.0550 C.ar  151  PXX151      0.0207
     16  CAG      -63.3640   18.2550   16.1700 C.ar  151  PXX151      0.0032
     17  CAO      -63.7980   19.5660   16.1870 C.ar  151  PXX151      0.0205
     18  CAI      -63.5080   20.3880   17.2770 C.ar  151  PXX151      0.0182
@<TRIPOS>BOND
     1     9    10   ar
     2     9     8   ar
     3    14    13   ar
     4    14    15   ar
     5    13    12   ar
     6    10    11   ar
     7     8     7   ar
     8    15    16   ar
     9    12    11   ar
    10    12    17   ar
    11    11     6   ar
    12     7     6   ar
    13    16    17   ar
    14     6     5   ar
    15    17    18   ar
    16    18     5   ar
    17     5     4    1
    18     4     2   am
    19     2     3    2
    20     2     1    1
