@<TRIPOS>MOLECULE
3for_ZNP_A_1.pdb
 15 15 0 0 0
SMALL
GASTEIGER

@<TRIPOS>ATOM
      1  CAF       -9.6770  -37.6180   -2.7560 C.ar  317  ZNP317     -0.0043
      2  CAG       -9.1900  -36.6720   -1.8610 C.ar  317  ZNP317     -0.0003
      3  CAH       -9.0310  -37.0040   -0.5210 C.ar  317  ZNP317     -0.0000
      4  CAI       -9.3600  -38.2790   -0.0750 C.ar  317  ZNP317     -0.0003
      5  CAJ       -9.8480  -39.2250   -0.9700 C.ar  317  ZNP317     -0.0043
      6  CAE      -10.0060  -38.8930   -2.3100 C.ar  317  ZNP317     -0.0216
      7  CAD      -10.5600  -39.9190   -3.3000 C.3   317  ZNP317      0.0377
      8  CAB       -9.4650  -40.4450   -4.2310 C.3   317  ZNP317      0.1137
      9  CAA       -9.9600  -40.3670   -5.6760 C.3   317  ZNP317      0.2028
     10  NAK      -10.1780  -38.9520   -6.0090 N.pl3 317  ZNP317      0.0350
     11  OAN       -9.1710  -38.0000   -5.6970 O.2   317  ZNP317     -0.1310
     12  OAM      -11.3890  -38.5360   -6.6240 O.2   317  ZNP317     -0.1310
     13  CAC       -9.0970  -41.8850   -3.8680 C.2   317  ZNP317      0.2627
     14  OAO       -8.8330  -42.2010   -2.7080 O.2   317  ZNP317     -0.2716
     15  NAL       -9.0810  -42.7360   -4.8900 N.am  317  ZNP317     -0.0877
@<TRIPOS>BOND
     1    12    10    2
     2    10    11    2
     3    10     9    1
     4     9     8    1
     5    15    13   am
     6     8    13    1
     7     8     7    1
     8    13    14    2
     9     7     6    1
    10     1     6   ar
    11     1     2   ar
    12     6     5   ar
    13     2     3   ar
    14     5     4   ar
    15     3     4   ar
