@<TRIPOS>MOLECULE
3fow_IMH_A_1.pdb
 19 21 0 0 0
SMALL
GASTEIGER

@<TRIPOS>ATOM
      1  O5'       -0.8800   37.1560   20.8330 O.3   278  IMH278     -0.2188
      2  C5'       -1.4580   36.0690   20.1140 C.3   278  IMH278      0.2020
      3  C4'       -2.0350   36.5160   18.7840 C.3   278  IMH278      0.1389
      4  N4'       -1.3770   37.7090   18.3230 N.3   278  IMH278     -0.2083
      5  C3'       -1.7100   35.4860   17.7220 C.3   278  IMH278      0.2023
      6  O3'       -2.7340   35.4910   16.7200 O.3   278  IMH278     -0.2188
      7  C2'       -0.4270   35.9530   17.0770 C.3   278  IMH278      0.2036
      8  O2'       -0.4550   35.6380   15.6790 O.3   278  IMH278     -0.2185
      9  C1'       -0.3640   37.4530   17.3210 C.3   278  IMH278      0.1309
     10  C9         0.9170   37.9150   17.8780 C.2   278  IMH278      0.0348
     11  C8         1.1750   39.2560   18.0620 C.2   278  IMH278      0.0984
     12  N7         2.4300   39.3080   18.5960 N.2   278  IMH278     -0.2310
     13  C5         2.9730   38.0790   18.7690 C.2   278  IMH278      0.1804
     14  C6         4.1860   37.6270   19.2660 C.1   278  IMH278      0.1716
     15  O6         5.1230   38.5200   19.6920 O.2   278  IMH278     -0.2206
     16  N1         4.4160   36.2830   19.3090 N.2   278  IMH278     -0.1739
     17  C2         3.5030   35.3820   18.8680 C.3   278  IMH278      0.2626
     18  N3         2.3180   35.7820   18.3710 N.2   278  IMH278     -0.2415
     19  C4         2.0700   37.1190   18.3390 C.2   278  IMH278      0.1059
@<TRIPOS>BOND
     1     8     7    1
     2     6     5    1
     3     7     9    1
     4     7     5    1
     5     9    10    1
     6     9     4    1
     7     5     3    1
     8    10    11    2
     9    10    19    1
    10    11    12    1
    11     4     3    1
    12    19    18    2
    13    19    13    1
    14    18    17    1
    15    12    13    2
    16    13    14    1
    17     3     2    1
    18    17    16    1
    19    14    16    2
    20    14    15    2
    21     2     1    1
