@<TRIPOS>MOLECULE
3fp0_FP0_A_1.pdb
 22 25 0 0 0
SMALL
GASTEIGER

@<TRIPOS>ATOM
      1  C2        16.8970    4.5570  -31.6810 C.3   520  FP0520      0.1823
      2  C6        15.6610    5.6940  -29.2550 C.3   520  FP0520      0.0622
      3  C5        15.5440    6.3300  -30.6860 C.3   520  FP0520      0.0361
      4  C4        16.8630    6.9730  -31.1380 C.3   520  FP0520      0.0489
      5  C3        17.6890    5.8640  -31.8490 C.3   520  FP0520      0.1982
      6  C11       16.8720    4.7320  -29.1800 C.3   520  FP0520      0.1391
      7  C10       16.7680    3.7830  -27.9680 C.2   520  FP0520     -0.0056
      8  C9        15.6150    3.5830  -27.2660 C.2   520  FP0520     -0.0459
      9  C8        14.3440    4.3490  -27.5390 C.3   520  FP0520      0.0220
     10  C12       15.5160    5.1850  -31.7220 C.3   520  FP0520      0.1484
     11  C13       14.3020    4.3490  -31.9990 C.3   520  FP0520      0.1716
     12  O4        19.6940    7.6780  -32.1000 O.2   520  FP0520     -0.2501
     13  C17       19.9770    6.6820  -31.4400 C.2   520  FP0520      0.3175
     14  C18       21.2710    6.3990  -30.7210 C.3   520  FP0520      0.1212
     15  O3        18.9940    5.6740  -31.3110 O.3   520  FP0520     -0.4496
     16  O2        14.8330    5.2990  -32.9680 O.3   520  FP0520     -0.3510
     17  O1        17.0960    3.9490  -30.3840 O.3   520  FP0520     -0.3481
     18  C14       14.4250    7.3890  -30.8160 C.3   520  FP0520      0.0028
     19  C7        14.3760    4.8880  -28.9600 C.3   520  FP0520      0.0096
     20  C15       15.9380    6.8120  -28.2450 C.3   520  FP0520      0.1847
     21  O12       14.7570    7.4490  -27.7250 O.3   520  FP0520     -0.2203
     22  C16       15.5620    2.5860  -26.1490 C.3   520  FP0520      0.0261
@<TRIPOS>BOND
     1    16    11    1
     2    16    10    1
     3    12    13    2
     4    11    10    1
     5     5     1    1
     6     5    15    1
     7     5     4    1
     8    10     1    1
     9    10     3    1
    10     1    17    1
    11    13    15    1
    12    13    14    1
    13     4     3    1
    14    18     3    1
    15     3     2    1
    16    17     6    1
    17     2     6    1
    18     2    19    1
    19     2    20    1
    20     6     7    1
    21    19     9    1
    22    20    21    1
    23     7     8    2
    24     9     8    1
    25     8    22    1
