@<TRIPOS>MOLECULE
3fp2_III_Q_1.pdb
 42 41 0 0 0
SMALL
GASTEIGER

@<TRIPOS>ATOM
      1  N          0.8450   20.3760   50.9090 N.3   705  MET705     -0.1230
      2  CA         0.7960   21.8720   51.0030 C.3   705  MET705      0.1702
      3  C         -0.6310   22.3790   51.2210 C.2   705  MET705      0.2592
      4  O         -0.8140   23.4960   51.7210 O.2   705  MET705     -0.2718
      5  CB         1.4330   22.5440   49.7810 C.3   705  MET705      0.0401
      6  CG         2.9150   22.2250   49.5790 C.3   705  MET705      0.0596
      7  SD         4.0270   23.0690   50.7430 S.3   705  MET705     -0.1393
      8  CE         4.1540   21.8760   52.0700 C.3   705  MET705      0.0692
      9  N         -1.6180   21.5500   50.8520 N.am  706  GLU706     -0.1966
     10  CA        -3.0550   21.7960   51.1000 C.3   706  GLU706      0.1733
     11  C         -3.5650   21.1020   52.3980 C.2   706  GLU706      0.2616
     12  O         -4.7570   21.0910   52.6920 O.2   706  GLU706     -0.2715
     13  CB        -3.8830   21.3090   49.8970 C.3   706  GLU706      0.0429
     14  CG        -5.2950   21.9270   49.8060 C.3   706  GLU706      0.1163
     15  CD        -6.4200   20.9020   49.5070 C.2   706  GLU706      0.3649
     16  OE1       -6.3020   20.1320   48.5170 O.co2 706  GLU706     -0.2457
     17  OE2       -7.4290   20.8820   50.2690 O.co2 706  GLU706     -0.2457
     18  N         -2.6550   20.5110   53.1600 N.am  707  GLU707     -0.1963
     19  CA        -3.0180   19.7700   54.3800 C.3   707  GLU707      0.1733
     20  C         -2.7290   20.6160   55.6280 C.2   707  GLU707      0.2616
     21  O         -1.6950   21.2860   55.6960 O.2   707  GLU707     -0.2715
     22  CB        -2.2190   18.4570   54.4630 C.3   707  GLU707      0.0429
     23  CG        -2.6490   17.3630   53.4630 C.3   707  GLU707      0.1163
     24  CD        -1.7240   16.1270   53.5000 C.2   707  GLU707      0.3649
     25  OE1       -0.6590   16.1770   54.1710 O.co2 707  GLU707     -0.2457
     26  OE2       -2.0670   15.0970   52.8770 O.co2 707  GLU707     -0.2457
     27  N         -3.6260   20.5620   56.6100 N.am  708  VAL708     -0.1963
     28  CA        -3.3580   21.1420   57.9370 C.3   708  VAL708      0.1727
     29  C         -2.3000   20.3190   58.6920 C.2   708  VAL708      0.2617
     30  O         -2.0860   19.1570   58.3750 O.2   708  VAL708     -0.2715
     31  CB        -4.6450   21.2930   58.7630 C.3   708  VAL708      0.0290
     32  CG1       -5.5630   22.3210   58.1070 C.3   708  VAL708      0.0023
     33  CG2       -5.3550   19.9490   58.8930 C.3   708  VAL708      0.0023
     34  N         -1.6160   20.9430   59.6490 N.am  709  ASP709     -0.1936
     35  CA        -0.5780   20.2890   60.4600 C.3   709  ASP709      0.2090
     36  C         -0.9760   20.1520   61.9410 C.2   709  ASP709      0.3848
     37  O         -1.9740   20.7120   62.3870 O.co2 709  ASP709     -0.2437
     38  CB         0.6970   21.1100   60.4330 C.3   709  ASP709      0.1472
     39  CG         1.1750   21.3980   59.0400 C.2   709  ASP709      0.3672
     40  OD1        1.3780   20.4140   58.2700 O.co2 709  ASP709     -0.2456
     41  OD2        1.3700   22.6060   58.7460 O.co2 709  ASP709     -0.2456
     42  OXT       -0.2590   19.5230   62.7370 O.co2 709  ASP709     -0.2437
@<TRIPOS>BOND
     1    16    15   ar
     2    15    14    1
     3    15    17   ar
     4     6     5    1
     5     6     7    1
     6     5     2    1
     7    14    13    1
     8    13    10    1
     9     7     8    1
    10     9    10    1
    11     9     3   am
    12     1     2    1
    13     2     3    1
    14    10    11    1
    15     3     4    2
    16    11    12    2
    17    11    18   am
    18    26    24   ar
    19    18    19    1
    20    23    24    1
    21    23    22    1
    22    24    25   ar
    23    19    22    1
    24    19    20    1
    25    20    21    2
    26    20    27   am
    27    27    28    1
    28    28    29    1
    29    28    31    1
    30    32    31    1
    31    40    39   ar
    32    30    29    2
    33    29    34   am
    34    41    39   ar
    35    31    33    1
    36    39    38    1
    37    34    35    1
    38    38    35    1
    39    35    36    1
    40    36    37   ar
    41    36    42   ar
