@<TRIPOS>MOLECULE
3fpa_DTB_A_1.pdb
 15 15 0 0 0
SMALL
GASTEIGER

@<TRIPOS>ATOM
      1  CN        -7.6090   22.7970  -43.5580 C.1   803  DTB803      0.2386
      2  O         -7.9940   23.9040  -43.8800 O.2   803  DTB803     -0.2023
      3  N2        -7.6400   22.3170  -42.3290 N.2   803  DTB803     -0.1869
      4  CR        -7.6530   20.8600  -42.3210 C.3   803  DTB803      0.1393
      5  CS        -7.2530   20.5460  -43.7700 C.3   803  DTB803      0.1394
      6  N1        -7.1390   21.8770  -44.3800 N.2   803  DTB803     -0.1869
      7  CT        -5.9570   19.7470  -43.8650 C.3   803  DTB803      0.0293
      8  CE        -6.6250   20.4130  -41.2990 C.3   803  DTB803      0.0272
      9  CD        -7.2790   19.5240  -40.2550 C.3   803  DTB803      0.0021
     10  CG        -7.6330   20.3230  -39.0120 C.3   803  DTB803      0.0006
     11  CB        -8.7700   19.6520  -38.2520 C.3   803  DTB803      0.0118
     12  CA        -9.5220   20.6580  -37.3830 C.3   803  DTB803      0.1141
     13  C         -9.4580   20.2090  -35.9270 C.2   803  DTB803      0.3649
     14  OI1      -10.3760   20.6100  -35.1630 O.co2 803  DTB803     -0.2457
     15  OI2       -8.5080   19.4520  -35.5610 O.co2 803  DTB803     -0.2457
@<TRIPOS>BOND
     1     6     5    1
     2     6     1    2
     3     2     1    2
     4     7     5    1
     5     5     4    1
     6     1     3    2
     7     3     4    1
     8     4     8    1
     9     8     9    1
    10     9    10    1
    11    10    11    1
    12    11    12    1
    13    12    13    1
    14    13    15   ar
    15    13    14   ar
