@<TRIPOS>MOLECULE
3fpb_CZA_A_1.pdb
 25 29 0 0 0
SMALL
GASTEIGER

@<TRIPOS>ATOM
      1  O2        33.9470   11.3450   13.4000 O.2   1001  CZA1001    -0.2934
      2  C6        33.9630   11.5930   12.1700 C.2   1001  CZA1001     0.1841
      3  C3        34.9430   11.3810   11.0830 C.3   1001  CZA1001     0.1926
      4  C2        36.1700   10.5730   11.1260 C.2   1001  CZA1001     0.1665
      5  O1        36.7290   10.4620   12.1960 O.2   1001  CZA1001    -0.2951
      6  C1        37.0080   10.3810    9.8210 C.3   1001  CZA1001     0.0732
      7  C5        32.7050   11.9500   11.4050 C.3   1001  CZA1001     0.1376
      8  C7        31.6910   10.8250   11.2520 C.3   1001  CZA1001     0.0511
      9  C15       30.6960   10.6360   12.3700 C.2   1001  CZA1001    -0.0005
     10  C16       30.5440    9.7760   13.4040 C.2   1001  CZA1001     0.0942
     11  N2        29.3490   10.0690   14.0690 N.2   1001  CZA1001    -0.2482
     12  C17       28.6930   11.1470   13.4880 C.2   1001  CZA1001     0.0628
     13  C14       29.5510   11.4720   12.4150 C.2   1001  CZA1001     0.0075
     14  C18       27.4830   11.8800   13.6480 C.3   1001  CZA1001     0.0717
     15  C19       27.1740   12.9770   12.7800 C.2   1001  CZA1001    -0.0201
     16  C20       28.0740   13.2890   11.7350 C.2   1001  CZA1001    -0.0084
     17  C13       29.2390   12.5050   11.5460 C.2   1001  CZA1001    -0.0215
     18  C12       30.2750   12.7540   10.4780 C.3   1001  CZA1001     0.0283
     19  C8        31.0080   11.4370    9.9900 C.3   1001  CZA1001     0.0272
     20  C9        32.1950   11.7210    8.9960 C.3   1001  CZA1001     0.0614
     21  C10       32.6090   10.5410    8.1180 C.3   1001  CZA1001     0.0199
     22  C11       32.0080   12.9280    8.0940 C.3   1001  CZA1001     0.0199
     23  N1        33.1800   12.0460   10.0340 N.am  1001  CZA1001    -0.2766
     24  C4        34.5110   12.0800   10.0130 C.2   1001  CZA1001     0.2396
     25  O3        35.1800   12.2580    8.8420 O.2   1001  CZA1001    -0.2740
@<TRIPOS>BOND
     1    22    20    1
     2    21    20    1
     3    25    24    2
     4    20    19    1
     5    20    23    1
     6     6     4    1
     7    19    18    1
     8    19     8    1
     9    24    23   am
    10    24     3    1
    11    23     7    1
    12    18    17    1
    13     3     4    1
    14     3     2    1
    15     4     5    2
    16     8     7    1
    17     8     9    1
    18     7     2    1
    19    17    16    1
    20    17    13    2
    21    16    15    2
    22     2     1    2
    23     9    13    1
    24     9    10    2
    25    13    12    1
    26    15    14    1
    27    10    11    1
    28    12    14    1
    29    12    11    2
