@<TRIPOS>MOLECULE
3fpb_ATP_A_1.pdb
 31 33 0 0 0
SMALL
GASTEIGER

@<TRIPOS>ATOM
      1  PG        40.5020   10.4520   64.3280 P.3   1002  ATP1002     0.5373
      2  O1G       40.8570   11.0550   62.8190 O.2   1002  ATP1002    -0.2221
      3  O2G       41.4770    9.1660   64.5940 O.3   1002  ATP1002    -0.1143
      4  O3G       39.1440    9.9020   64.4090 O.3   1002  ATP1002    -0.1143
      5  PB        41.4630   11.9550   66.8430 P.3   1002  ATP1002     0.2277
      6  O1B       40.6380   11.5120   68.2090 O.3   1002  ATP1002    -0.4368
      7  O2B       41.6510   13.4030   66.9660 O.2   1002  ATP1002    -0.5168
      8  O3B       40.5910   11.7160   65.4190 O.3   1002  ATP1002    -0.2258
      9  PA        44.1300   11.3780   67.9840 P.3   1002  ATP1002     0.2189
     10  O1A       43.4210   11.3300   69.4840 O.3   1002  ATP1002    -0.4371
     11  O2A       44.9260   10.1390   67.8880 O.2   1002  ATP1002    -0.5170
     12  O3A       42.9770   11.2680   66.7680 O.3   1002  ATP1002    -0.2700
     13  O5'       45.0740   12.7830   67.6800 O.3   1002  ATP1002    -0.3112
     14  C5'       45.5650   13.7300   68.6300 C.3   1002  ATP1002     0.1813
     15  C4'       44.6540   14.3890   69.7440 C.3   1002  ATP1002     0.1821
     16  O4'       45.2420   15.0310   70.9320 O.3   1002  ATP1002    -0.3135
     17  C3'       43.5380   15.4150   69.3700 C.3   1002  ATP1002     0.2184
     18  O3'       42.6590   15.2280   68.2610 O.3   1002  ATP1002    -0.2174
     19  C2'       44.3270   16.7480   69.4980 C.3   1002  ATP1002     0.2570
     20  O2'       43.7220   18.0120   69.4310 O.3   1002  ATP1002    -0.2130
     21  C1'       45.4670   16.3970   70.4850 C.3   1002  ATP1002     0.3186
     22  N9        46.8210   16.6230   69.8790 N.pl3 1002  ATP1002    -0.1439
     23  C8        47.4070   15.9690   68.8660 C.3   1002  ATP1002     0.3377
     24  N7        48.7260   16.4580   68.6150 N.2   1002  ATP1002    -0.2095
     25  C5        48.9380   17.4700   69.5810 C.2   1002  ATP1002     0.2526
     26  C6        50.0380   18.3720   69.8910 C.2   1002  ATP1002     0.4393
     27  N6        51.2720   18.3060   69.1600 N.pl3 1002  ATP1002     0.2180
     28  N1        49.9480   19.3330   70.8350 N.2   1002  ATP1002     0.0021
     29  C2        48.8460   19.4140   71.5740 C.3   1002  ATP1002     0.5254
     30  N3        47.7910   18.5390   71.2840 N.2   1002  ATP1002    -0.0055
     31  C4        47.8080   17.5970   70.3110 C.2   1002  ATP1002     0.3518
@<TRIPOS>BOND
     1     2     1    2
     2     1     4    1
     3     1     3    1
     4     1     8    1
     5     8     5    1
     6    12     5    1
     7    12     9    1
     8     5     7    2
     9     5     6    1
    10    13     9    1
    11    13    14    1
    12    11     9    2
    13     9    10    1
    14    18    17    1
    15    24    23    1
    16    24    25    2
    17    14    15    1
    18    23    22    1
    19    27    26    1
    20    17    19    1
    21    17    15    1
    22    20    19    1
    23    19    21    1
    24    25    26    1
    25    25    31    1
    26    15    16    1
    27    22    31    1
    28    22    21    1
    29    26    28    2
    30    31    30    2
    31    21    16    1
    32    28    29    1
    33    30    29    1
