@<TRIPOS>MOLECULE
3fpd_Q4A_A_1.pdb
 36 40 0 0 0
SMALL
GASTEIGER

@<TRIPOS>ATOM
      1  C2         1.8990  -29.1890   46.6310 C.1     1  Q4A1        0.2035
      2  C5         0.0320  -27.4210   47.5100 C.3     1  Q4A1        0.1475
      3  C4        -0.2820  -28.3580   46.5330 C.2     1  Q4A1        0.1376
      4  CAO        4.1570  -30.0370   46.7880 C.3     1  Q4A1        0.1046
      5  CAP        4.2220  -30.9210   48.0360 C.3     1  Q4A1        0.0396
      6  CAQ        3.2190  -32.0780   47.9980 C.3     1  Q4A1        0.0740
      7  NAR        3.2680  -32.8060   46.7210 N.3     1  Q4A1       -0.2700
      8  CAU        3.1900  -34.2520   46.9800 C.3     1  Q4A1        0.0897
      9  CAS        2.1260  -32.4060   45.8850 C.3     1  Q4A1        0.0947
     10  CAT        2.4050  -31.0640   45.2060 C.3     1  Q4A1        0.1204
     11  NAN        2.8030  -30.0740   46.2170 N.pl3   1  Q4A1       -0.2327
     12  N1         2.2270  -28.2860   47.5670 N.2     1  Q4A1       -0.3152
     13  N3         0.6610  -29.2180   46.1170 N.2     1  Q4A1       -0.3317
     14  CAC       -1.5760  -28.4240   46.0270 C.2     1  Q4A1        0.0693
     15  CAD       -2.5560  -27.5640   46.5130 C.2     1  Q4A1        0.1744
     16  OAL       -3.8120  -27.5720   45.9890 O.2     1  Q4A1       -0.4683
     17  CBI       -4.1880  -28.8640   45.5020 C.3     1  Q4A1        0.2526
     18  CAE       -2.2460  -26.6430   47.5100 C.2     1  Q4A1        0.1691
     19  OAK       -3.2440  -25.8940   48.0530 O.2     1  Q4A1       -0.4687
     20  CBJ       -2.7860  -24.6450   48.5800 C.3     1  Q4A1        0.2526
     21  CAF       -0.9470  -26.5650   48.0030 C.2     1  Q4A1        0.0292
     22  C6         1.3280  -27.3950   48.0120 C.2     1  Q4A1        0.2000
     23  NAM        1.6880  -26.4360   48.8610 N.pl3   1  Q4A1       -0.2137
     24  CAV        3.0780  -26.3330   49.3300 C.3     1  Q4A1        0.0975
     25  CBA        3.5670  -24.8860   49.2370 C.3     1  Q4A1        0.0390
     26  CAZ        4.9520  -24.7390   49.8730 C.3     1  Q4A1        0.0741
     27  CAW        3.1450  -26.8070   50.7840 C.3     1  Q4A1        0.0390
     28  CAX        4.5520  -26.5950   51.3450 C.3     1  Q4A1        0.0741
     29  NAY        4.8890  -25.1650   51.2790 N.3     1  Q4A1       -0.2688
     30  CBB        6.1780  -24.9280   51.9470 C.3     1  Q4A1        0.0991
     31  CBC        6.0320  -25.2140   53.4440 C.ar    1  Q4A1       -0.0061
     32  CBD        5.6540  -24.1930   54.3110 C.ar    1  Q4A1       -0.0029
     33  CBE        5.4690  -24.4630   55.6630 C.ar    1  Q4A1       -0.0003
     34  CBF        5.6610  -25.7520   56.1510 C.ar    1  Q4A1       -0.0000
     35  CBG        6.0420  -26.7740   55.2890 C.ar    1  Q4A1       -0.0003
     36  CBH        6.2280  -26.5010   53.9370 C.ar    1  Q4A1       -0.0029
@<TRIPOS>BOND
     1    10     9    1
     2    10    11    1
     3    17    16    1
     4     9     7    1
     5    16    15    1
     6    14    15    2
     7    14     3    1
     8    13     3    2
     9    13     1    2
    10    11     1    1
    11    11     4    1
    12    15    18    1
    13     3     2    1
    14     1    12    2
    15     7     8    1
    16     7     6    1
    17     4     5    1
    18     2    21    1
    19     2    22    1
    20    18    21    2
    21    18    19    1
    22    12    22    2
    23     6     5    1
    24    22    23    1
    25    19    20    1
    26    23    24    1
    27    25    24    1
    28    25    26    1
    29    24    27    1
    30    26    29    1
    31    27    28    1
    32    29    28    1
    33    29    30    1
    34    30    31    1
    35    31    36   ar
    36    31    32   ar
    37    36    35   ar
    38    32    33   ar
    39    35    34   ar
    40    33    34   ar
