@<TRIPOS>MOLECULE
3fpd_SAH_A_1.pdb
 26 28 0 0 0
SMALL
GASTEIGER

@<TRIPOS>ATOM
      1  N        -10.6440  -15.4940   44.2870 N.3   101  SAH101     -0.1208
      2  CA        -9.1840  -15.5860   43.8490 C.3   101  SAH101      0.1952
      3  CB        -8.7980  -16.5330   42.7560 C.3   101  SAH101      0.0422
      4  CG        -9.0850  -18.0120   42.8840 C.3   101  SAH101      0.0597
      5  SD        -7.5980  -18.6750   43.5610 S.3   101  SAH101     -0.1375
      6  C         -8.7100  -14.1120   43.5160 C.2   101  SAH101      0.3819
      7  O         -9.4930  -13.1500   43.6580 O.co2 101  SAH101     -0.2441
      8  OXT       -7.4840  -14.0030   43.1210 O.co2 101  SAH101     -0.2441
      9  C5'       -8.1050  -19.3540   45.0830 C.3   101  SAH101      0.0899
     10  C4'       -8.0480  -18.3600   46.3230 C.3   101  SAH101      0.1630
     11  O4'       -9.3150  -17.6950   46.3400 O.3   101  SAH101     -0.3153
     12  C3'       -7.9320  -18.9690   47.6860 C.3   101  SAH101      0.2168
     13  O3'       -6.5900  -18.9320   48.1730 O.3   101  SAH101     -0.2175
     14  C2'       -8.9690  -18.1280   48.5300 C.3   101  SAH101      0.2569
     15  O2'       -8.3920  -16.9490   49.0860 O.3   101  SAH101     -0.2130
     16  C1'      -10.1290  -17.8280   47.5610 C.3   101  SAH101      0.3185
     17  N9       -11.0840  -18.7700   47.4680 N.pl3 101  SAH101     -0.1439
     18  C8       -11.4340  -19.7280   46.5330 C.3   101  SAH101      0.3377
     19  N7       -12.4600  -20.4700   46.8210 N.2   101  SAH101     -0.2095
     20  C5       -12.8800  -19.9860   48.0920 C.2   101  SAH101      0.2526
     21  C6       -13.9640  -20.3760   48.9750 C.2   101  SAH101      0.4393
     22  N6       -14.8360  -21.3550   48.7060 N.pl3 101  SAH101      0.2180
     23  N1       -14.0550  -19.6660   50.1490 N.2   101  SAH101      0.0021
     24  C2       -13.2080  -18.6490   50.4860 C.3   101  SAH101      0.5254
     25  N3       -12.1730  -18.2500   49.6700 N.2   101  SAH101     -0.0055
     26  C4       -12.0590  -18.9520   48.4990 C.2   101  SAH101      0.3518
@<TRIPOS>BOND
     1     3     4    1
     2     3     2    1
     3     4     5    1
     4     8     6   ar
     5     6     7   ar
     6     6     2    1
     7     5     9    1
     8     2     1    1
     9     9    10    1
    10    10    11    1
    11    10    12    1
    12    11    16    1
    13    18    19    1
    14    18    17    1
    15    19    20    2
    16    17    16    1
    17    17    26    1
    18    16    14    1
    19    12    13    1
    20    12    14    1
    21    20    26    1
    22    20    21    1
    23    26    25    2
    24    14    15    1
    25    22    21    1
    26    21    23    2
    27    25    24    1
    28    23    24    1
