@<TRIPOS>MOLECULE
3fpe_TNA_A_1.pdb
 24 23 0 0 0
SMALL
GASTEIGER

@<TRIPOS>ATOM
      1  O8         0.0680    1.5760   -1.9290 O.co2 299  TNA299     -0.2457
      2  C12       -0.4810    2.4240   -1.1880 C.2   299  TNA299      0.3649
      3  O7        -0.9010    2.1100   -0.0480 O.co2 299  TNA299     -0.2457
      4  C10       -0.6330    3.8700   -1.6220 C.3   299  TNA299      0.1161
      5  C9         0.0170    4.2570   -2.9600 C.3   299  TNA299      0.0407
      6  C8         1.5420    4.0990   -3.0540 C.3   299  TNA299      0.1763
      7  C11        2.2780    4.5810   -1.8350 C.2   299  TNA299      0.3803
      8  O6         3.2260    3.8870   -1.4460 O.co2 299  TNA299     -0.2441
      9  O5         1.9380    5.6350   -1.2540 O.co2 299  TNA299     -0.2441
     10  N3         1.9120    2.7140   -3.3690 N.3   299  TNA299     -0.2083
     11  C7         1.9340    2.2150   -4.7540 C.3   299  TNA299      0.0913
     12  C6         1.3830    0.7930   -4.8510 C.3   299  TNA299      0.0477
     13  C4         1.4590    0.1730   -6.2460 C.3   299  TNA299      0.1772
     14  C5         2.5000   -0.9190   -6.1630 C.2   299  TNA299      0.3803
     15  O3         2.0970   -2.0750   -5.8820 O.co2 299  TNA299     -0.2441
     16  O4         3.6990   -0.6050   -6.3940 O.co2 299  TNA299     -0.2441
     17  N2         0.1550   -0.3170   -6.6940 N.3   299  TNA299     -0.2083
     18  C3        -0.0030   -1.1700   -7.8710 C.3   299  TNA299      0.0913
     19  C2         0.8800   -0.7160   -9.0480 C.3   299  TNA299      0.0494
     20  C1         0.2750    0.5700   -9.6390 C.3   299  TNA299      0.1958
     21  N1        -0.7910    0.1960  -10.5740 N.3   299  TNA299     -0.1208
     22  C          1.3600    1.4040  -10.2850 C.2   299  TNA299      0.3819
     23  O2         2.3850    1.6620   -9.6160 O.co2 299  TNA299     -0.2441
     24  O1         1.1870    1.8280  -11.4410 O.co2 299  TNA299     -0.2441
@<TRIPOS>BOND
     1    24    22   ar
     2    21    20    1
     3    22    20    1
     4    22    23   ar
     5    20    19    1
     6    19    18    1
     7    18    17    1
     8    17    13    1
     9    16    14   ar
    10    13    14    1
    11    13    12    1
    12    14    15   ar
    13    12    11    1
    14    11    10    1
    15    10     6    1
    16     6     5    1
    17     6     7    1
    18     5     4    1
    19     1     2   ar
    20     7     8   ar
    21     7     9   ar
    22     4     2    1
    23     2     3   ar
