@<TRIPOS>MOLECULE
3fpf_TNA_A_1.pdb
 24 23 0 0 0
SMALL
GASTEIGER

@<TRIPOS>ATOM
      1  O8       -32.0790    1.6980   -1.9890 O.co2 300  TNA300     -0.2457
      2  C12      -32.6840    2.4410   -1.2330 C.2   300  TNA300      0.3649
      3  O7       -33.2040    2.1210   -0.1730 O.co2 300  TNA300     -0.2457
      4  C10      -32.7550    3.9000   -1.5890 C.3   300  TNA300      0.1161
      5  C9       -32.0440    4.4030   -2.8320 C.3   300  TNA300      0.0407
      6  C8       -30.5410    4.1910   -2.8460 C.3   300  TNA300      0.1763
      7  C11      -29.8440    4.6490   -1.6180 C.2   300  TNA300      0.3803
      8  O6       -28.9090    3.9890   -1.2360 O.co2 300  TNA300     -0.2441
      9  O5       -30.2570    5.6290   -1.0580 O.co2 300  TNA300     -0.2441
     10  N3       -30.1110    2.8770   -3.2760 N.3   300  TNA300     -0.2083
     11  C7       -30.3390    2.4420   -4.6160 C.3   300  TNA300      0.0913
     12  C6       -29.8570    1.0160   -4.7100 C.3   300  TNA300      0.0477
     13  C4       -30.2370    0.3790   -6.0200 C.3   300  TNA300      0.1772
     14  C5       -29.3920   -0.8370   -6.1420 C.2   300  TNA300      0.3803
     15  O3       -29.9140   -1.9070   -5.9360 O.co2 300  TNA300     -0.2441
     16  O4       -28.2710   -0.6370   -6.4870 O.co2 300  TNA300     -0.2441
     17  N2       -31.6380    0.1510   -6.2490 N.3   300  TNA300     -0.2083
     18  C3       -32.1060   -0.7260   -7.3160 C.3   300  TNA300      0.0913
     19  C2       -31.4790   -0.5180   -8.7340 C.3   300  TNA300      0.0494
     20  C1       -31.9800    0.7450   -9.4570 C.3   300  TNA300      0.1958
     21  N1       -33.0430    0.5010  -10.4160 N.3   300  TNA300     -0.1208
     22  C        -30.8450    1.5710  -10.0830 C.2   300  TNA300      0.3819
     23  O2       -29.8580    1.8010   -9.4450 O.co2 300  TNA300     -0.2441
     24  O1       -31.0410    1.9110  -11.2060 O.co2 300  TNA300     -0.2441
@<TRIPOS>BOND
     1    24    22   ar
     2    21    20    1
     3    22    20    1
     4    22    23   ar
     5    20    19    1
     6    19    18    1
     7    18    17    1
     8    16    14   ar
     9    17    13    1
    10    14    13    1
    11    14    15   ar
    12    13    12    1
    13    12    11    1
    14    11    10    1
    15    10     6    1
    16     6     5    1
    17     6     7    1
    18     5     4    1
    19     1     2   ar
    20     7     8   ar
    21     7     9   ar
    22     4     2    1
    23     2     3   ar
