@<TRIPOS>MOLECULE
3fpf_MTA_A_1.pdb
 20 22 0 0 0
SMALL
GASTEIGER

@<TRIPOS>ATOM
      1  CS       -35.4100   -4.0670   -8.6640 C.3   301  MTA301      0.0693
      2  S5'      -33.7700   -3.4760   -8.8720 S.3   301  MTA301     -0.1367
      3  C5'      -32.7560   -4.9230   -8.9390 C.3   301  MTA301      0.0899
      4  C4'      -32.8800   -5.6980  -10.2580 C.3   301  MTA301      0.1630
      5  O4'      -31.7220   -6.5420  -10.4280 O.3   301  MTA301     -0.3153
      6  C2'      -33.5020   -8.0290  -10.6620 C.3   301  MTA301      0.2569
      7  O2'      -34.2300   -8.8370  -11.5990 O.3   301  MTA301     -0.2130
      8  C3'      -34.0940   -6.6470  -10.3850 C.3   301  MTA301      0.2168
      9  O3'      -34.9590   -6.2580  -11.4670 O.3   301  MTA301     -0.2175
     10  C1'      -32.1090   -7.6970  -11.1690 C.3   301  MTA301      0.3185
     11  N9       -31.0400   -8.6830  -10.8770 N.pl3 301  MTA301     -0.1439
     12  C8       -30.7970   -9.2610   -9.6780 C.3   301  MTA301      0.3377
     13  N7       -29.7190  -10.0650   -9.7700 N.2   301  MTA301     -0.2095
     14  C5       -29.2590   -9.9860  -11.0440 C.2   301  MTA301      0.2526
     15  C6       -28.1470  -10.5760  -11.8000 C.2   301  MTA301      0.4393
     16  N6       -27.3180  -11.4380  -11.1700 N.pl3 301  MTA301      0.2180
     17  N1       -27.9900  -10.2310  -13.1140 N.2   301  MTA301      0.0021
     18  C2       -28.8370   -9.3570  -13.7260 C.3   301  MTA301      0.5254
     19  N3       -29.8800   -8.7870  -13.0820 N.2   301  MTA301     -0.0055
     20  C4       -30.1280   -9.0560  -11.7690 C.2   301  MTA301      0.3518
@<TRIPOS>BOND
     1    18    17    1
     2    18    19    1
     3    17    15    2
     4    19    20    2
     5    15    16    1
     6    15    14    1
     7    20    14    1
     8    20    11    1
     9     7     6    1
    10     9     8    1
    11    10    11    1
    12    10     6    1
    13    10     5    1
    14    14    13    2
    15    11    12    1
    16     6     8    1
    17     5     4    1
    18     8     4    1
    19     4     3    1
    20    13    12    1
    21     3     2    1
    22     2     1    1
