@<TRIPOS>MOLECULE
3fph_GLU_A_1.pdb
 10 9 0 0 0
SMALL
GASTEIGER

@<TRIPOS>ATOM
      1  N         15.1520  -18.9140   10.5020 N.3   302  GLU302     -0.1208
      2  CA        13.7860  -18.9840    9.9610 C.3   302  GLU302      0.1949
      3  C         13.3980  -17.7580    9.1860 C.2   302  GLU302      0.3819
      4  O         12.3650  -17.1490    9.4870 O.co2 302  GLU302     -0.2441
      5  CB        12.7380  -19.2720   11.0310 C.3   302  GLU302      0.0424
      6  CG        12.8650  -20.6000   11.5980 C.3   302  GLU302      0.1161
      7  CD        14.0410  -20.6780   12.5080 C.2   302  GLU302      0.3649
      8  OE1       14.3510  -19.6700   13.1940 O.co2 302  GLU302     -0.2457
      9  OE2       14.6610  -21.7460   12.5130 O.co2 302  GLU302     -0.2457
     10  OXT       14.1370  -17.3910    8.2600 O.co2 302  GLU302     -0.2441
@<TRIPOS>BOND
     1    10     3   ar
     2     3     4   ar
     3     3     2    1
     4     2     1    1
     5     2     5    1
     6     5     6    1
     7     6     7    1
     8     7     9   ar
     9     7     8   ar
