@<TRIPOS>MOLECULE
3fpi_CTP_A_1.pdb
 29 30 0 0 0
SMALL
GASTEIGER

@<TRIPOS>ATOM
      1  N1        24.3370    5.5600   27.9160 N.am  163  CTP163     -0.1778
      2  C2        23.5630    5.3590   29.0720 C.1   163  CTP163      0.2756
      3  N3        23.1080    6.4110   29.8100 N.2   163  CTP163     -0.3024
      4  C4        23.3850    7.6800   29.4310 C.2   163  CTP163      0.2346
      5  C5        24.1340    7.9130   28.2710 C.2   163  CTP163      0.0687
      6  C6        24.6410    6.8450   27.5480 C.2   163  CTP163      0.0836
      7  O2        23.2590    4.2580   29.5180 O.2   163  CTP163     -0.1925
      8  N4        22.9090    8.6460   30.2110 N.pl3 163  CTP163     -0.0921
      9  C1'       24.8560    4.3860   27.1000 C.3   163  CTP163      0.2400
     10  C2'       23.8910    3.9270   25.9890 C.3   163  CTP163      0.2319
     11  O2'       23.5300    2.5610   26.1280 O.3   163  CTP163     -0.2157
     12  C3'       24.6260    4.2030   24.6690 C.3   163  CTP163      0.2158
     13  C4'       26.1030    4.3870   25.0440 C.3   163  CTP163      0.1799
     14  O4'       26.1370    4.5790   26.4630 O.3   163  CTP163     -0.3320
     15  O3'       24.3970    3.2200   23.6690 O.3   163  CTP163     -0.2175
     16  C5'       26.7050    5.5720   24.2770 C.3   163  CTP163      0.1813
     17  O5'       27.1680    6.5460   25.1830 O.3   163  CTP163     -0.3112
     18  PA        28.1070    7.6360   24.5680 P.3   163  CTP163      0.2189
     19  O1A       29.2420    7.9470   25.5030 O.3   163  CTP163     -0.4371
     20  O2A       27.2580    8.8240   24.2670 O.2   163  CTP163     -0.5170
     21  O3A       28.5710    6.7730   23.2700 O.3   163  CTP163     -0.2700
     22  PB        29.2830    7.2940   21.9020 P.3   163  CTP163      0.2277
     23  O1B       29.1390    8.8120   21.8220 O.3   163  CTP163     -0.4368
     24  O2B       28.6560    6.6560   20.6760 O.2   163  CTP163     -0.5168
     25  O3B       30.8590    6.8530   22.0660 O.3   163  CTP163     -0.2258
     26  PG        31.9120    6.3360   20.9090 P.3   163  CTP163      0.5373
     27  O1G       31.2440    5.3980   19.9180 O.2   163  CTP163     -0.2221
     28  O2G       33.0870    5.6470   21.5460 O.3   163  CTP163     -0.1143
     29  O3G       32.5400    7.4930   20.1940 O.3   163  CTP163     -0.1143
@<TRIPOS>BOND
     1    27    26    2
     2    29    26    1
     3    24    22    2
     4    26    28    1
     5    26    25    1
     6    23    22    1
     7    22    25    1
     8    22    21    1
     9    21    18    1
    10    15    12    1
    11    20    18    2
    12    16    13    1
    13    16    17    1
    14    18    17    1
    15    18    19    1
    16    12    13    1
    17    12    10    1
    18    13    14    1
    19    10    11    1
    20    10     9    1
    21    14     9    1
    22     9     1    1
    23     6     1    1
    24     6     5    2
    25     1     2   am
    26     5     4    1
    27     2     7    2
    28     2     3    2
    29     4     3    2
    30     4     8    1
