@<TRIPOS>MOLECULE
3fpj_SAM_A_1.pdb
 27 29 0 0 0
SMALL
GASTEIGER

@<TRIPOS>ATOM
      1  N         -0.2430   -0.3320   -8.0160 N.3   301  SAM301     -0.1208
      2  CA        -1.2010   -0.1560   -9.1190 C.3   301  SAM301      0.1952
      3  C         -1.0600   -1.2960  -10.1310 C.2   301  SAM301      0.3819
      4  O         -0.0370   -1.1430  -10.8480 O.co2 301  SAM301     -0.2441
      5  OXT       -1.8370   -2.3160  -10.2310 O.co2 301  SAM301     -0.2441
      6  CB        -0.9170    1.2350   -9.7470 C.3   301  SAM301      0.0414
      7  CG         0.5310    1.8130   -9.7960 C.3   301  SAM301      0.0503
      8  SD         0.6660    3.2200   -8.8900 S.3   301  SAM301     -0.1761
      9  CE        -0.9350    3.7330   -8.7180 C.3   301  SAM301      0.0590
     10  C5'        1.4660    4.5930   -9.3530 C.3   301  SAM301      0.0806
     11  C4'        0.9210    5.3700  -10.5830 C.3   301  SAM301      0.1622
     12  O4'       -0.3970    5.9890  -10.7080 O.3   301  SAM301     -0.3153
     13  C3'        1.9030    6.4780  -10.6290 C.3   301  SAM301      0.2168
     14  O3'        2.8700    5.9290  -11.5340 O.3   301  SAM301     -0.2175
     15  C2'        1.1450    7.7440  -11.0790 C.3   301  SAM301      0.2569
     16  O2'        1.9700    8.3760  -12.0470 O.3   301  SAM301     -0.2130
     17  C1'       -0.2540    7.2320  -11.4960 C.3   301  SAM301      0.3185
     18  N9        -1.3730    8.2000  -11.2340 N.pl3 301  SAM301     -0.1439
     19  C8        -1.7230    8.8150   -9.9170 C.3   301  SAM301      0.3377
     20  N7        -2.9050    9.6680  -10.1530 N.2   301  SAM301     -0.2095
     21  C5        -3.2910    9.5860  -11.5670 C.2   301  SAM301      0.2526
     22  C6        -4.4220   10.1740  -12.4230 C.2   301  SAM301      0.4393
     23  N6        -5.4010   11.0910  -11.9090 N.pl3 301  SAM301      0.2180
     24  N1        -4.4520    9.8030  -13.8460 N.2   301  SAM301      0.0021
     25  C2        -3.4970    8.9030  -14.5000 C.3   301  SAM301      0.5254
     26  N3        -2.4050    8.3020  -13.6600 N.2   301  SAM301     -0.0055
     27  C4        -2.3320    8.6340  -12.2440 C.2   301  SAM301      0.3518
@<TRIPOS>BOND
     1    25    24    1
     2    25    26    1
     3    24    22    2
     4    26    27    2
     5    22    23    1
     6    22    21    1
     7    27    21    1
     8    27    18    1
     9    16    15    1
    10    21    20    2
    11    14    13    1
    12    17    18    1
    13    17    15    1
    14    17    12    1
    15    18    19    1
    16    15    13    1
    17     4     3   ar
    18    12    11    1
    19    13    11    1
    20    11    10    1
    21     5     3   ar
    22    20    19    1
    23     3     2    1
    24     7     6    1
    25     7     8    1
    26     6     2    1
    27    10     8    1
    28     2     1    1
    29     8     9    1
