@<TRIPOS>MOLECULE
3fpm_793_A_1.pdb
 22 24 0 0 0
SMALL
GASTEIGER

@<TRIPOS>ATOM
      1  C1       232.7380   76.9440  187.1310 C.3     1  7931        0.0282
      2  C2       232.0570   77.8620  186.1110 C.3     1  7931        0.1148
      3  C3       231.3810   77.1050  184.9760 C.ar    1  7931       -0.0027
      4  C4       229.9790   77.0030  184.8990 C.ar    1  7931       -0.0026
      5  C5       229.3670   76.3040  183.8510 C.ar    1  7931       -0.0003
      6  C6       230.1460   75.6990  182.8620 C.ar    1  7931       -0.0000
      7  C11      232.1270   81.6970  184.1110 C.2     1  7931        0.2520
      8  C12      231.4240   80.5540  184.6870 C.2     1  7931        0.2516
      9  C13      235.1630   82.6740  183.7030 C.ar    1  7931        0.0737
     10  C14      234.4520   83.8650  183.4950 C.ar    1  7931        0.0372
     11  C15      235.1200   84.9720  182.9800 C.ar    1  7931        0.1002
     12  C16      237.1120   83.8260  182.8700 C.ar    1  7931        0.1002
     13  C17      236.5320   82.6690  183.3790 C.ar    1  7931        0.0372
     14  C7       231.5400   75.7910  182.9210 C.ar    1  7931       -0.0003
     15  C8       232.1540   76.4890  183.9700 C.ar    1  7931       -0.0026
     16  N1       233.0240   78.8160  185.5670 N.pl3   1  7931       -0.2303
     17  C9       232.7350   79.9590  184.9900 C.2     1  7931        0.1262
     18  C10      233.3990   81.0330  184.4480 C.2     1  7931        0.1306
     19  O1       231.6850   82.6960  183.6080 O.2     1  7931       -0.2816
     20  O2       230.2450   80.3470  184.7860 O.2     1  7931       -0.2817
     21  N2       234.6190   81.4720  184.2250 N.pl3   1  7931       -0.2076
     22  N3       236.4350   84.9790  182.6640 N.ar    1  7931       -0.2422
@<TRIPOS>BOND
     1    22    12   ar
     2    22    11   ar
     3     6    14   ar
     4     6     5   ar
     5    12    13   ar
     6    14    15   ar
     7    11    10   ar
     8    13     9   ar
     9    10     9   ar
    10    19     7    2
    11     9    21    1
    12     5     4   ar
    13    15     3   ar
    14     7    18    1
    15     7     8    1
    16    21    18    1
    17    18    17    2
    18     8    20    2
    19     8    17    1
    20     4     3   ar
    21     3     2    1
    22    17    16    1
    23    16     2    1
    24     2     1    1
