@<TRIPOS>MOLECULE
3fps_CZA_A_1.pdb
 25 29 0 0 0
SMALL
GASTEIGER

@<TRIPOS>ATOM
      1  O2        25.7780  -15.5300   15.6820 O.2   1001  CZA1001    -0.2934
      2  C6        25.7950  -15.2690   14.4730 C.2   1001  CZA1001     0.1841
      3  C3        26.9550  -15.0230   13.6110 C.3   1001  CZA1001     0.1926
      4  C2        28.3150  -15.5280   13.9130 C.2   1001  CZA1001     0.1665
      5  O1        28.7260  -15.7750   15.0520 O.2   1001  CZA1001    -0.2951
      6  C1        29.2300  -15.8510   12.7300 C.3   1001  CZA1001     0.0732
      7  C5        24.5770  -14.8570   13.6570 C.3   1001  CZA1001     0.1376
      8  C7        23.5490  -15.8900   13.1910 C.3   1001  CZA1001     0.0511
      9  C15       22.4860  -16.3230   14.1590 C.2   1001  CZA1001    -0.0004
     10  C16       22.4110  -17.2720   15.1240 C.2   1001  CZA1001     0.0946
     11  N2        21.1650  -17.1670   15.7420 N.2   1001  CZA1001    -0.2442
     12  C17       20.4220  -16.1090   15.2380 C.2   1001  CZA1001     0.0801
     13  C14       21.2710  -15.5940   14.2310 C.2   1001  CZA1001     0.0077
     14  C18       19.1400  -15.5670   15.4390 C.2   1001  CZA1001     0.0148
     15  C19       18.7500  -14.4630   14.6500 C.2   1001  CZA1001    -0.0202
     16  C20       19.6330  -13.9190   13.6860 C.3   1001  CZA1001     0.0481
     17  C13       20.8880  -14.5160   13.4390 C.2   1001  CZA1001    -0.0386
     18  C12       21.8540  -14.0370   12.3620 C.3   1001  CZA1001     0.0244
     19  C8        22.9520  -15.1020   11.9670 C.3   1001  CZA1001     0.0269
     20  C9        24.2250  -14.5490   11.2630 C.3   1001  CZA1001     0.0614
     21  C10       24.6460  -15.4870   10.1220 C.3   1001  CZA1001     0.0199
     22  C11       24.1070  -13.1220   10.7530 C.3   1001  CZA1001     0.0199
     23  N1        25.1690  -14.5310   12.3780 N.am  1001  CZA1001    -0.2766
     24  C4        26.5170  -14.4860   12.4430 C.2   1001  CZA1001     0.2396
     25  O3        27.2980  -14.0360   11.4080 O.2   1001  CZA1001    -0.2740
@<TRIPOS>BOND
     1    21    20    1
     2    22    20    1
     3    20    19    1
     4    20    23    1
     5    25    24    2
     6    19    18    1
     7    19     8    1
     8    18    17    1
     9    23    24   am
    10    23     7    1
    11    24     3    1
    12     6     4    1
    13     8     7    1
    14     8     9    1
    15    17    16    1
    16    17    13    2
    17     3     4    1
    18     3     2    1
    19     7     2    1
    20    16    15    1
    21     4     5    2
    22     9    13    1
    23     9    10    2
    24    13    12    1
    25     2     1    2
    26    15    14    2
    27    10    11    1
    28    12    14    1
    29    12    11    2
