@<TRIPOS>MOLECULE
3fps_ADP_A_1.pdb
 27 29 0 0 0
SMALL
GASTEIGER

@<TRIPOS>ATOM
      1  PB        25.8420   -3.7780   56.5090 P.3   1002  ADP1002     0.5373
      2  O1B       25.5690   -5.2810   56.1080 O.3   1002  ADP1002    -0.1143
      3  O2B       24.6960   -2.9070   55.8840 O.2   1002  ADP1002    -0.2221
      4  O3B       27.2430   -3.2470   56.2300 O.3   1002  ADP1002    -0.1143
      5  PA        24.4320   -2.8310   58.6240 P.3   1002  ADP1002     0.2231
      6  O1A       23.1180   -3.2090   57.8660 O.2   1002  ADP1002    -0.5169
      7  O2A       24.9470   -1.4220   58.6760 O.3   1002  ADP1002    -0.4370
      8  O3A       25.4020   -3.7980   57.9680 O.3   1002  ADP1002    -0.2261
      9  O5'       24.4670   -3.6370   60.0130 O.3   1002  ADP1002    -0.3111
     10  C5'       24.3230   -2.8950   61.1980 C.3   1002  ADP1002     0.1813
     11  C4'       24.9190   -3.6610   62.3630 C.3   1002  ADP1002     0.1821
     12  O4'       24.2130   -4.8590   62.5700 O.3   1002  ADP1002    -0.3135
     13  C3'       26.3500   -4.1310   62.0660 C.3   1002  ADP1002     0.2184
     14  O3'       27.1650   -3.0840   62.4460 O.3   1002  ADP1002    -0.2174
     15  C2'       26.5340   -5.2690   63.0750 C.3   1002  ADP1002     0.2570
     16  O2'       27.0070   -4.6200   64.2340 O.3   1002  ADP1002    -0.2130
     17  C1'       25.0470   -5.7470   63.2900 C.3   1002  ADP1002     0.3186
     18  N9        24.8070   -7.1000   62.7790 N.pl3 1002  ADP1002    -0.1439
     19  C8        25.0050   -7.4650   61.4340 C.3   1002  ADP1002     0.3377
     20  N7        24.5690   -8.7060   61.2050 N.2   1002  ADP1002    -0.2095
     21  C5        24.3080   -9.2470   62.4660 C.2   1002  ADP1002     0.2526
     22  C6        23.9270  -10.5370   62.8580 C.2   1002  ADP1002     0.4393
     23  N6        23.7900  -11.5010   61.9160 N.pl3 1002  ADP1002     0.2180
     24  N1        23.7390  -10.8360   64.2010 N.2   1002  ADP1002     0.0021
     25  C2        23.8290   -9.7650   65.0470 C.3   1002  ADP1002     0.5254
     26  N3        24.0800   -8.4480   64.7800 N.2   1002  ADP1002    -0.0055
     27  C4        24.4330   -8.2600   63.4660 C.2   1002  ADP1002     0.3518
@<TRIPOS>BOND
     1     3     1    2
     2     2     1    1
     3     4     1    1
     4     1     8    1
     5     6     5    2
     6     8     5    1
     7     5     7    1
     8     5     9    1
     9     9    10    1
    10    10    11    1
    11    20    19    1
    12    20    21    2
    13    19    18    1
    14    23    22    1
    15    13    11    1
    16    13    14    1
    17    13    15    1
    18    11    12    1
    19    21    22    1
    20    21    27    1
    21    12    17    1
    22    18    17    1
    23    18    27    1
    24    22    24    2
    25    15    17    1
    26    15    16    1
    27    27    26    2
    28    24    25    1
    29    26    25    1
