@<TRIPOS>MOLECULE
3fpx_MAN_A_1.pdb
 11 11 0 0 0
SMALL
GASTEIGER

@<TRIPOS>ATOM
      1  C1        18.5320    6.7610   37.4700 C.3   1513  MAN1513     0.1777
      2  C2        19.7870    7.4910   37.9180 C.3   1513  MAN1513     0.2141
      3  C3        20.6730    6.5510   38.7550 C.3   1513  MAN1513     0.2173
      4  C4        19.8970    5.9660   39.9540 C.3   1513  MAN1513     0.2142
      5  C5        18.5900    5.3180   39.4410 C.3   1513  MAN1513     0.1810
      6  C6        17.5690    4.8140   40.4740 C.3   1513  MAN1513     0.2141
      7  O2        19.5310    8.6630   38.7000 O.3   1513  MAN1513    -0.2176
      8  O3        21.8110    7.2800   39.2040 O.3   1513  MAN1513    -0.2175
      9  O4        20.7790    4.9890   40.4950 O.3   1513  MAN1513    -0.2176
     10  O5        17.8660    6.2350   38.6160 O.3   1513  MAN1513    -0.3481
     11  O6        17.5330    5.6570   41.6110 O.3   1513  MAN1513    -0.2176
@<TRIPOS>BOND
     1     1     2    1
     2     1    10    1
     3     2     7    1
     4     2     3    1
     5    10     5    1
     6     3     8    1
     7     3     4    1
     8     5     4    1
     9     5     6    1
    10     4     9    1
    11     6    11    1
