@<TRIPOS>MOLECULE
3fpz_AHZ_A_1.pdb
 38 41 0 0 0
SMALL
GASTEIGER

@<TRIPOS>ATOM
      1  O2'       53.7000   57.4220  -24.4910 O.3   1100  AHZ1100    -0.2130
      2  C2'       53.6720   56.8490  -23.1670 C.3   1100  AHZ1100     0.2570
      3  C3'       53.3680   55.3340  -23.1990 C.3   1100  AHZ1100     0.2184
      4  O3'       52.5450   54.9640  -24.3460 O.3   1100  AHZ1100    -0.2174
      5  C1'       52.5000   57.4010  -22.3330 C.3   1100  AHZ1100     0.3186
      6  N9        52.6750   58.7180  -21.5970 N.pl3 1100  AHZ1100    -0.1439
      7  C8        53.7500   59.0390  -20.8630 C.3   1100  AHZ1100     0.3377
      8  N7        53.6010   60.2580  -20.3290 N.2   1100  AHZ1100    -0.2095
      9  C5        52.3960   60.7230  -20.7130 C.2   1100  AHZ1100     0.2526
     10  C6        51.7080   61.9180  -20.4780 C.2   1100  AHZ1100     0.4393
     11  N1        50.4930   62.0880  -21.0360 N.2   1100  AHZ1100     0.0021
     12  C2        49.9450   61.1190  -21.7930 C.3   1100  AHZ1100     0.5254
     13  N6        52.2270   62.8820  -19.6980 N.pl3 1100  AHZ1100     0.2180
     14  C4        51.8040   59.7420  -21.5200 C.2   1100  AHZ1100     0.3518
     15  N3        50.5660   59.9720  -22.0490 N.2   1100  AHZ1100    -0.0055
     16  O4'       52.4490   56.4160  -21.2540 O.3   1100  AHZ1100    -0.3135
     17  C4'       52.6150   55.0840  -21.8650 C.3   1100  AHZ1100     0.1821
     18  C5'       53.4610   54.2260  -20.8780 C.3   1100  AHZ1100     0.1813
     19  O5'       53.7900   52.9540  -21.4480 O.3   1100  AHZ1100    -0.3112
     20  PA        54.9800   52.0100  -20.9680 P.3   1100  AHZ1100     0.2189
     21  O2A       54.9450   50.7960  -21.7910 O.2   1100  AHZ1100    -0.5170
     22  O1A       56.2270   52.8120  -20.8920 O.3   1100  AHZ1100    -0.4371
     23  O3A       54.5570   51.7520  -19.3870 O.3   1100  AHZ1100    -0.2703
     24  PB        54.0220   50.3980  -18.6330 P.3   1100  AHZ1100     0.2188
     25  O1B       52.6340   50.0720  -19.0230 O.2   1100  AHZ1100    -0.5170
     26  O2B       54.3180   50.6700  -17.1920 O.3   1100  AHZ1100    -0.4371
     27  O3B       54.9840   49.2300  -19.1580 O.3   1100  AHZ1100    -0.3139
     28  C7T       56.3820   49.3040  -18.9340 C.3   1100  AHZ1100     0.1505
     29  C6T       57.1200   48.3120  -19.8210 C.3   1100  AHZ1100     0.0505
     30  C5T       58.4230   47.9470  -19.1280 C.3   1100  AHZ1100     0.1049
     31  S1T       59.7200   49.0340  -18.9300 S.3   1100  AHZ1100    -0.0698
     32  C2T       60.6770   47.8990  -18.1090 C.2   1100  AHZ1100     0.2359
     33  C1R       62.0820   48.1200  -17.5730 C.2   1100  AHZ1100     0.4227
     34  O1R       62.3760   47.5400  -16.5040 O.co2 1100  AHZ1100    -0.2371
     35  O2R       62.8530   48.8410  -18.2460 O.co2 1100  AHZ1100    -0.2371
     36  N3T       60.0240   46.7420  -17.9840 N.2   1100  AHZ1100    -0.3967
     37  C4T       58.7980   46.7450  -18.5280 C.2   1100  AHZ1100     0.0981
     38  C1M       57.9140   45.4940  -18.4940 C.3   1100  AHZ1100     0.0624
@<TRIPOS>BOND
     1     1     2    1
     2     4     3    1
     3     3     2    1
     4     3    17    1
     5     2     5    1
     6     5     6    1
     7     5    16    1
     8    15    12    1
     9    15    14    2
    10    17    16    1
    11    17    18    1
    12    12    11    1
    13    21    20    2
    14     6    14    1
    15     6     7    1
    16    14     9    1
    17    19    20    1
    18    19    18    1
    19    11    10    2
    20    20    22    1
    21    20    23    1
    22     7     8    1
    23     9    10    1
    24     9     8    2
    25    10    13    1
    26    29    30    1
    27    29    28    1
    28    23    24    1
    29    27    28    1
    30    27    24    1
    31    30    31    1
    32    30    37    1
    33    25    24    2
    34    31    32    1
    35    24    26    1
    36    37    38    1
    37    37    36    2
    38    35    33   ar
    39    32    36    2
    40    32    33    1
    41    33    34   ar
