@<TRIPOS>MOLECULE
3fq0_NAP_A_1.pdb
 48 52 0 0 0
SMALL
GASTEIGER

@<TRIPOS>ATOM
      1  PA       -24.0100  -21.5790   42.4680 P.3   207  NAP207      0.2189
      2  O1A      -22.8410  -21.1250   41.6890 O.2   207  NAP207     -0.5170
      3  O2A      -25.2380  -20.7770   42.3150 O.3   207  NAP207     -0.4371
      4  O5B      -24.3340  -23.1070   42.1150 O.3   207  NAP207     -0.3112
      5  C5B      -23.3300  -24.0810   42.2420 C.3   207  NAP207      0.1813
      6  C4B      -23.8400  -25.2780   41.4780 C.3   207  NAP207      0.1820
      7  O4B      -23.8630  -24.9930   40.0920 O.3   207  NAP207     -0.3136
      8  C3B      -22.9580  -26.5030   41.6210 C.3   207  NAP207      0.2157
      9  O3B      -23.1550  -27.1500   42.8620 O.3   207  NAP207     -0.2175
     10  C2B      -23.4240  -27.2750   40.4040 C.3   207  NAP207      0.2314
     11  O2B      -24.7280  -27.7500   40.6300 O.3   207  NAP207     -0.2630
     12  C1B      -23.5750  -26.1650   39.3660 C.3   207  NAP207      0.3158
     13  N9A      -22.3390  -26.0260   38.5780 N.pl3 207  NAP207     -0.1439
     14  C8A      -21.3940  -25.0320   38.6790 C.3   207  NAP207      0.3377
     15  N7A      -20.4120  -25.2830   37.7830 N.2   207  NAP207     -0.2095
     16  C5A      -20.7120  -26.4240   37.1170 C.2   207  NAP207      0.2526
     17  C6A      -20.0680  -27.1310   36.1040 C.2   207  NAP207      0.4393
     18  N6A      -18.9060  -26.7110   35.6020 N.pl3 207  NAP207      0.2180
     19  N1A      -20.6390  -28.2960   35.6120 N.2   207  NAP207      0.0021
     20  C2A      -21.8430  -28.7410   36.1160 C.3   207  NAP207      0.5254
     21  N3A      -22.4780  -28.0430   37.1250 N.2   207  NAP207     -0.0055
     22  C4A      -21.9230  -26.8980   37.6130 C.2   207  NAP207      0.3518
     23  O3       -23.6780  -21.7160   44.0340 O.3   207  NAP207     -0.2703
     24  PN       -22.6980  -20.9650   45.0520 P.3   207  NAP207      0.2189
     25  O1N      -22.8680  -21.5680   46.4050 O.3   207  NAP207     -0.4371
     26  O2N      -21.3690  -20.9030   44.4160 O.2   207  NAP207     -0.5170
     27  O5D      -23.3400  -19.4800   45.1240 O.3   207  NAP207     -0.3112
     28  C5D      -24.6060  -19.2030   45.7040 C.3   207  NAP207      0.1813
     29  C4D      -24.6150  -17.8680   46.4590 C.3   207  NAP207      0.1799
     30  O4D      -24.4160  -16.7760   45.5650 O.3   207  NAP207     -0.3327
     31  C3D      -25.9490  -17.5970   47.1450 C.3   207  NAP207      0.2158
     32  O3D      -25.7170  -17.0580   48.4340 O.3   207  NAP207     -0.2175
     33  C2D      -26.6300  -16.5300   46.3180 C.3   207  NAP207      0.2309
     34  O2D      -27.3730  -15.6660   47.1430 O.3   207  NAP207     -0.2158
     35  C1D      -25.4130  -15.8040   45.7760 C.3   207  NAP207      0.2263
     36  N1N      -25.6010  -15.0290   44.5410 N.pl3 207  NAP207     -0.2787
     37  C2N      -25.3560  -13.6980   44.6490 C.3   207  NAP207      0.1244
     38  C3N      -25.4800  -12.8790   43.5420 C.2   207  NAP207      0.0544
     39  C7N      -25.2300  -11.4120   43.6940 C.2   207  NAP207      0.2818
     40  O7N      -24.9400  -10.7030   42.5320 O.2   207  NAP207     -0.2670
     41  N7N      -25.2830  -10.8240   44.8980 N.am  207  NAP207     -0.0839
     42  C4N      -25.8260  -13.4320   42.3050 C.2   207  NAP207      0.0033
     43  C5N      -26.0690  -14.8040   42.2080 C.2   207  NAP207      0.0157
     44  C6N      -25.9390  -15.5980   43.3420 C.2   207  NAP207      0.0633
     45  P2B      -25.0180  -29.2800   41.0730 P.3   207  NAP207      0.5328
     46  O1X      -24.4200  -29.4690   42.4490 O.3   207  NAP207     -0.1145
     47  O2X      -26.5160  -29.4490   41.1220 O.3   207  NAP207     -0.1145
     48  O3X      -24.3280  -30.1440   40.0510 O.2   207  NAP207     -0.2224
@<TRIPOS>BOND
     1    18    17    1
     2    19    17    2
     3    19    20    1
     4    17    16    1
     5    20    21    1
     6    16    22    1
     7    16    15    2
     8    21    22    2
     9    22    13    1
    10    15    14    1
    11    13    14    1
    12    13    12    1
    13    12     7    1
    14    12    10    1
    15    48    45    2
    16     7     6    1
    17    10    11    1
    18    10     8    1
    19    11    45    1
    20    45    47    1
    21    45    46    1
    22     6     8    1
    23     6     5    1
    24     8     9    1
    25     2     1    2
    26     4     5    1
    27     4     1    1
    28    43    42    1
    29    43    44    2
    30    42    38    2
    31     3     1    1
    32     1    23    1
    33    40    39    2
    34    44    36    1
    35    38    39    1
    36    38    37    1
    37    39    41   am
    38    23    24    1
    39    26    24    2
    40    36    37    1
    41    36    35    1
    42    24    27    1
    43    24    25    1
    44    27    28    1
    45    30    35    1
    46    30    29    1
    47    28    29    1
    48    35    33    1
    49    33    34    1
    50    33    31    1
    51    29    31    1
    52    31    32    1
