@<TRIPOS>MOLECULE
3fq0_N22_A_1.pdb
 23 24 0 0 0
SMALL
GASTEIGER

@<TRIPOS>ATOM
      1  C8       -30.8900   -8.9080   42.2580 C.3   219  N22219      0.0076
      2  C7       -29.5140   -9.2540   42.8150 C.3   219  N22219      0.0569
      3  C5       -28.4570   -9.2640   41.7030 C.2   219  N22219      0.1203
      4  N4       -27.9680   -8.0830   41.3040 N.2   219  N22219     -0.3332
      5  C3       -27.0410   -8.0040   40.3400 C.1   219  N22219      0.2419
      6  N8       -26.6060   -6.8000   39.9970 N.pl3 219  N22219     -0.0232
      7  N2       -26.5730   -9.1110   39.7290 N.2   219  N22219     -0.3105
      8  C1       -27.0210  -10.3220   40.0790 C.2   219  N22219      0.2282
      9  N7       -26.5350  -11.4000   39.4820 N.pl3 219  N22219     -0.0955
     10  C6       -27.9850  -10.4140   41.0960 C.3   219  N22219      0.1831
     11  C9       -28.5090  -11.6700   41.5180 C.1   219  N22219     -0.0760
     12  C10      -28.9610  -12.7190   41.8780 C.1   219  N22219     -0.0853
     13  C11      -29.5110  -13.9990   42.3280 C.3   219  N22219      0.1054
     14  C13      -30.8600  -13.7950   43.0420 C.ar  219  N22219      0.0278
     15  C18      -31.7890  -12.8940   42.5040 C.ar  219  N22219      0.0366
     16  C17      -33.0340  -12.6820   43.1210 C.ar  219  N22219      0.1386
     17  O2       -33.9500  -11.8030   42.6190 O.3   219  N22219     -0.4714
     18  C4       -34.1270  -11.9690   41.2190 C.3   219  N22219      0.2525
     19  C16      -33.3510  -13.3680   44.2880 C.ar  219  N22219      0.0400
     20  C15      -32.4350  -14.2640   44.8260 C.ar  219  N22219      0.0397
     21  C14      -31.2000  -14.4780   44.2130 C.ar  219  N22219      0.1358
     22  O10      -30.3070  -15.3630   44.7420 O.3   219  N22219     -0.4717
     23  C2       -30.4430  -15.4990   46.1620 C.3   219  N22219      0.2525
@<TRIPOS>BOND
     1     9     8    1
     2     7     8    2
     3     7     5    2
     4     6     5    1
     5     8    10    1
     6     5     4    2
     7    10    11    1
     8    10     3    1
     9    18    17    1
    10     4     3    2
    11    11    12    3
    12     3     2    1
    13    12    13    1
    14     1     2    1
    15    13    14    1
    16    15    14   ar
    17    15    16   ar
    18    17    16    1
    19    14    21   ar
    20    16    19   ar
    21    21    22    1
    22    21    20   ar
    23    19    20   ar
    24    22    23    1
