@<TRIPOS>MOLECULE
3fq7_PXG_A_1.pdb
 25 26 0 0 0
SMALL
GASTEIGER

@<TRIPOS>ATOM
      1  N1         4.1940   15.9520  -34.3100 N.ar  1434  PXG1434    -0.2452
      2  C2         4.1130   17.0600  -35.1750 C.ar  1434  PXG1434     0.0978
      3  C2A        3.3250   16.9030  -36.4400 C.3   1434  PXG1434     0.0555
      4  C3         4.7690   18.3030  -34.8130 C.ar  1434  PXG1434     0.2065
      5  O3         4.6710   19.3800  -35.5850 O.3   1434  PXG1434    -0.2856
      6  C5         5.5520   17.3250  -32.7230 C.ar  1434  PXG1434     0.0278
      7  C6         4.9080   16.1100  -33.1100 C.ar  1434  PXG1434     0.0965
      8  C5A        6.0540   17.3840  -31.2860 C.3   1434  PXG1434     0.1816
      9  OP4        5.3640   18.0090  -30.0610 O.3   1434  PXG1434    -0.2653
     10  P          6.3180   18.8620  -29.1380 P.3   1434  PXG1434     0.5329
     11  OP1        5.2950   19.3930  -28.1470 O.3   1434  PXG1434    -0.1145
     12  OP2        7.3650   17.8460  -28.3030 O.3   1434  PXG1434    -0.1145
     13  OP3        7.1890   19.7850  -29.9230 O.2   1434  PXG1434    -0.2224
     14  C4         5.4890   18.4590  -33.6210 C.ar  1434  PXG1434     0.0394
     15  C4A        6.2020   19.8860  -33.3840 C.3   1434  PXG1434     0.1415
     16  C7        10.1570   23.1920  -31.7350 C.2   1434  PXG1434     0.3878
     17  C8         9.0610   23.1380  -32.8230 C.ar  1434  PXG1434     0.0810
     18  O2        10.8350   24.2040  -31.4890 O.co2 1434  PXG1434    -0.2406
     19  C9         7.9910   22.1430  -32.8490 C.ar  1434  PXG1434     0.0227
     20  C10        7.1290   21.9920  -34.0370 C.ar  1434  PXG1434     0.0659
     21  C11        7.3690   22.8000  -35.0930 C.ar  1434  PXG1434     0.0161
     22  C12        8.4010   23.8820  -35.0310 C.ar  1434  PXG1434     0.0015
     23  C13        9.1250   24.0940  -33.8150 C.ar  1434  PXG1434     0.0067
     24  O8        10.4490   22.2190  -31.0080 O.co2 1434  PXG1434    -0.2406
     25  N9         6.0750   21.1290  -34.1800 N.pl3 1434  PXG1434    -0.2327
@<TRIPOS>BOND
     1     3     2    1
     2     5     4    1
     3     2     4   ar
     4     2     1   ar
     5    21    22   ar
     6    21    20   ar
     7    22    23   ar
     8     4    14   ar
     9     1     7   ar
    10    25    20    1
    11    25    15    1
    12    20    19   ar
    13    23    17   ar
    14    14    15    1
    15    14     6   ar
    16     7     6   ar
    17    19    17   ar
    18    17    16    1
    19     6     8    1
    20    16    18   ar
    21    16    24   ar
    22     8     9    1
    23     9    10    1
    24    13    10    2
    25    10    12    1
    26    10    11    1
