@<TRIPOS>MOLECULE
3fq8_PMP_A_1.pdb
 16 16 0 0 0
SMALL
GASTEIGER

@<TRIPOS>ATOM
      1  N1         4.3410   37.9550   34.1800 N.ar  5000  PMP5000    -0.2452
      2  C2         4.4670   36.9620   35.1530 C.ar  5000  PMP5000     0.0978
      3  C2A        3.7400   37.0880   36.5080 C.3   5000  PMP5000     0.0555
      4  C3         5.2680   35.8580   34.8840 C.ar  5000  PMP5000     0.2063
      5  O3         5.4300   34.8530   35.8050 O.3   5000  PMP5000    -0.2856
      6  C4         5.9180   35.7560   33.6460 C.ar  5000  PMP5000     0.0369
      7  C4A        6.7800   34.5390   33.3940 C.3   5000  PMP5000     0.1386
      8  N4A        5.9650   33.6090   32.8030 N.3   5000  PMP5000    -0.1261
      9  C5         5.7780   36.7790   32.6570 C.ar  5000  PMP5000     0.0275
     10  C6         4.9840   37.8700   32.9380 C.ar  5000  PMP5000     0.0965
     11  C5A        6.4980   36.6360   31.2920 C.3   5000  PMP5000     0.1816
     12  O4P        5.8120   35.6640   30.5420 O.3   5000  PMP5000    -0.2653
     13  P          6.2390   35.1050   29.1330 P.3   5000  PMP5000     0.5329
     14  O1P        7.1450   33.9900   29.2280 O.3   5000  PMP5000    -0.1145
     15  O2P        4.9420   34.8010   28.5230 O.3   5000  PMP5000    -0.1145
     16  O3P        7.0310   36.2990   28.4970 O.2   5000  PMP5000    -0.2224
@<TRIPOS>BOND
     1    16    13    2
     2    15    13    1
     3    13    14    1
     4    13    12    1
     5    12    11    1
     6    11     9    1
     7     9    10   ar
     8     9     6   ar
     9     8     7    1
    10    10     1   ar
    11     7     6    1
    12     6     4   ar
    13     1     2   ar
    14     4     2   ar
    15     4     5    1
    16     2     3    1
