@<TRIPOS>MOLECULE
3fqa_PMP_A_1.pdb
 16 16 0 0 0
SMALL
GASTEIGER

@<TRIPOS>ATOM
      1  N1         4.3860   15.8610  -34.2900 N.ar  1434  PMP1434    -0.2452
      2  C2         4.3950   16.8970  -35.2380 C.ar  1434  PMP1434     0.0978
      3  C2A        3.6830   16.7370  -36.6050 C.3   1434  PMP1434     0.0555
      4  C3         5.0510   18.0780  -34.9320 C.ar  1434  PMP1434     0.2063
      5  O3         5.0810   19.1160  -35.8300 O.3   1434  PMP1434    -0.2856
      6  C4         5.6990   18.2230  -33.6900 C.ar  1434  PMP1434     0.0369
      7  C4A        6.4010   19.5420  -33.4100 C.3   1434  PMP1434     0.1386
      8  N4A        7.7490   19.3090  -33.5450 N.3   1434  PMP1434    -0.1261
      9  C5         5.6850   17.1520  -32.7270 C.ar  1434  PMP1434     0.0275
     10  C6         5.0230   15.9800  -33.0460 C.ar  1434  PMP1434     0.0965
     11  C5A        6.4020   17.2900  -31.3610 C.3   1434  PMP1434     0.1816
     12  O4P        5.8700   18.3900  -30.6660 O.3   1434  PMP1434    -0.2653
     13  P          6.3460   18.9310  -29.2760 P.3   1434  PMP1434     0.5329
     14  O1P        7.3170   19.9920  -29.3420 O.2   1434  PMP1434    -0.2224
     15  O2P        5.0600   19.3010  -28.6690 O.3   1434  PMP1434    -0.1145
     16  O3P        7.0690   17.6800  -28.6550 O.3   1434  PMP1434    -0.1145
@<TRIPOS>BOND
     1     3     2    1
     2     5     4    1
     3     2     4   ar
     4     2     1   ar
     5     4     6   ar
     6     1    10   ar
     7     6     7    1
     8     6     9   ar
     9     8     7    1
    10    10     9   ar
    11     9    11    1
    12    11    12    1
    13    12    13    1
    14    14    13    2
    15    13    15    1
    16    13    16    1
