@<TRIPOS>MOLECULE
3fqa_GAB_A_1.pdb
 10 10 0 0 0
SMALL
GASTEIGER

@<TRIPOS>ATOM
      1  C1'        9.9040   25.4340  -30.7060 C.2   2000  GAB2000     0.3878
      2  O1'       10.7560   25.4560  -29.8170 O.co2 2000  GAB2000    -0.2406
      3  O2'        9.3240   26.6300  -30.6540 O.co2 2000  GAB2000    -0.2406
      4  C1         9.5350   24.3720  -31.6530 C.ar  2000  GAB2000     0.0811
      5  C2        10.2610   23.0100  -31.6460 C.ar  2000  GAB2000     0.0246
      6  C3         9.7860   22.0260  -32.6700 C.ar  2000  GAB2000     0.0893
      7  C4         8.7130   22.3450  -33.5860 C.ar  2000  GAB2000     0.0181
      8  C5         8.1030   23.5780  -33.5300 C.ar  2000  GAB2000     0.0016
      9  C6         8.5190   24.6010  -32.5600 C.ar  2000  GAB2000     0.0067
     10  N3        10.3720   20.8460  -32.7270 N.pl3 2000  GAB2000    -0.1281
@<TRIPOS>BOND
     1     7     8   ar
     2     7     6   ar
     3     8     9   ar
     4    10     6    1
     5     6     5   ar
     6     9     4   ar
     7     4     5   ar
     8     4     1    1
     9     1     3   ar
    10     1     2   ar
