@<TRIPOS>MOLECULE
3fqc_55V_A_1.pdb
 26 27 0 0 0
SMALL
GASTEIGER

@<TRIPOS>ATOM
      1  C1P      -31.9070   20.5770    7.6420 C.3   219  55V219      0.2526
      2  O1O      -32.6620   19.7770    8.6100 O.3   219  55V219     -0.4683
      3  C1N      -31.9080   18.9540    9.4110 C.ar  219  55V219      0.1752
      4  C1M      -30.5190   18.8670    9.2400 C.ar  219  55V219      0.0369
      5  C1Q      -32.5450   18.1960   10.4090 C.ar  219  55V219      0.2060
      6  O1V      -33.9260   18.2340   10.5770 O.3   219  55V219     -0.4654
      7  C1W      -34.4580   19.3420   11.3340 C.3   219  55V219      0.2528
      8  C1R      -31.7760   17.3590   11.2220 C.ar  219  55V219      0.1752
      9  O1T      -32.3960   16.6200   12.1860 O.3   219  55V219     -0.4683
     10  C1U      -31.5750   15.6020   12.7830 C.3   219  55V219      0.2526
     11  C1S      -30.3890   17.2890   11.0410 C.ar  219  55V219      0.0369
     12  C1L      -29.7510   18.0340   10.0510 C.ar  219  55V219     -0.0054
     13  C1J      -28.2160   17.9420    9.8740 C.3   219  55V219      0.0729
     14  C1K      -27.8470   17.7970    8.3840 C.3   219  55V219      0.0174
     15  C1X      -27.5820   19.1880   10.4820 C.3   219  55V219      0.0174
     16  C1I      -27.6430   16.7100   10.4540 C.1   219  55V219     -0.0880
     17  C1H      -27.2210   15.6260   10.8680 C.1   219  55V219     -0.0761
     18  C5       -26.8290   14.2990   11.2600 C.3   219  55V219      0.1831
     19  C4       -27.4730   13.2120   10.6600 C.2   219  55V219      0.1207
     20  C1Y      -28.5760   13.4040    9.6080 C.3   219  55V219      0.0641
     21  N3       -27.1180   11.9640   11.0000 N.2   219  55V219     -0.3332
     22  C2       -26.1700   11.7440   11.9110 C.1   219  55V219      0.2419
     23  N1Z      -25.8400   10.5010   12.2310 N.pl3 219  55V219     -0.0232
     24  N1       -25.5410   12.7720   12.4940 N.2   219  55V219     -0.3105
     25  C6       -25.8320   14.0410   12.2000 C.2   219  55V219      0.2282
     26  N1G      -25.1510   14.9930   12.8290 N.pl3 219  55V219     -0.0955
@<TRIPOS>BOND
     1     1     2    1
     2    14    13    1
     3     2     3    1
     4     4     3   ar
     5     4    12   ar
     6     3     5   ar
     7    20    19    1
     8    13    12    1
     9    13    16    1
    10    13    15    1
    11    12    11   ar
    12     5     6    1
    13     5     8   ar
    14    16    17    3
    15     6     7    1
    16    19    21    2
    17    19    18    1
    18    17    18    1
    19    21    22    2
    20    11     8   ar
    21     8     9    1
    22    18    25    1
    23    22    23    1
    24    22    24    2
    25     9    10    1
    26    25    24    2
    27    25    26    1
