@<TRIPOS>MOLECULE
3fqc_NAP_A_1.pdb
 48 52 0 0 0
SMALL
GASTEIGER

@<TRIPOS>ATOM
      1  PA       -20.3670   24.7910   10.4060 P.3   207  NAP207      0.2189
      2  O1A      -19.3620   23.9150   11.0200 O.3   207  NAP207     -0.4371
      3  O2A      -21.7470   24.3470   10.6340 O.2   207  NAP207     -0.5170
      4  O5B      -20.1470   26.2680   10.9620 O.3   207  NAP207     -0.3112
      5  C5B      -19.0460   27.0640   10.5920 C.3   207  NAP207      0.1813
      6  C4B      -19.2120   28.2720   11.4830 C.3   207  NAP207      0.1820
      7  O4B      -19.2300   27.8640   12.8370 O.3   207  NAP207     -0.3136
      8  C3B      -18.1110   29.3090   11.3930 C.3   207  NAP207      0.2157
      9  O3B      -18.3020   30.1450   10.2800 O.3   207  NAP207     -0.2175
     10  C2B      -18.3710   30.0240   12.6990 C.3   207  NAP207      0.2314
     11  O2B      -19.5190   30.8250   12.5250 O.3   207  NAP207     -0.2630
     12  C1B      -18.7510   28.9000   13.6530 C.3   207  NAP207      0.3158
     13  N9A      -17.5400   28.4590   14.3360 N.pl3 207  NAP207     -0.1439
     14  C8A      -16.8660   27.2950   14.1000 C.3   207  NAP207      0.3377
     15  N7A      -15.7900   27.2570   14.9040 N.2   207  NAP207     -0.2095
     16  C5A      -15.7650   28.3840   15.6410 C.2   207  NAP207      0.2526
     17  C6A      -14.8930   28.8380   16.6110 C.2   207  NAP207      0.4393
     18  N6A      -13.8430   28.0920   16.9420 N.pl3 207  NAP207      0.2180
     19  N1A      -15.1400   30.0660   17.2230 N.2   207  NAP207      0.0021
     20  C2A      -16.2370   30.8460   16.8750 C.3   207  NAP207      0.5254
     21  N3A      -17.0970   30.3750   15.9050 N.2   207  NAP207     -0.0055
     22  C4A      -16.8630   29.1640   15.2990 C.2   207  NAP207      0.3518
     23  O3       -20.1440   25.0040    8.8250 O.3   207  NAP207     -0.2703
     24  PN       -19.4720   24.1170    7.6570 P.3   207  NAP207      0.2189
     25  O1N      -19.6700   24.8680    6.3970 O.2   207  NAP207     -0.5170
     26  O2N      -18.1080   23.8040    8.1120 O.3   207  NAP207     -0.4371
     27  O5D      -20.4140   22.8070    7.6140 O.3   207  NAP207     -0.3112
     28  C5D      -21.7350   22.8840    7.1150 C.3   207  NAP207      0.1813
     29  C4D      -22.0490   21.6650    6.2400 C.3   207  NAP207      0.1799
     30  O4D      -21.9770   20.4680    7.0000 O.3   207  NAP207     -0.3327
     31  C3D      -23.4610   21.7140    5.6880 C.3   207  NAP207      0.2158
     32  O3D      -23.4020   21.3170    4.3480 O.3   207  NAP207     -0.2175
     33  C2D      -24.2410   20.6880    6.4930 C.3   207  NAP207      0.2309
     34  O2D      -25.2220   20.0400    5.7360 O.3   207  NAP207     -0.2158
     35  C1D      -23.1570   19.6960    6.8290 C.3   207  NAP207      0.2263
     36  N1N      -23.4580   18.8730    8.0130 N.pl3 207  NAP207     -0.2787
     37  C2N      -23.6280   17.5310    7.8090 C.3   207  NAP207      0.1244
     38  C3N      -23.8970   16.6760    8.8720 C.2   207  NAP207      0.0544
     39  C7N      -23.8040   15.1930    8.6710 C.2   207  NAP207      0.2818
     40  O7N      -23.6170   14.4370    9.8310 O.2   207  NAP207     -0.2670
     41  N7N      -23.9130   14.6310    7.4530 N.am  207  NAP207     -0.0839
     42  C4N      -23.9880   17.1980   10.1670 C.2   207  NAP207      0.0033
     43  C5N      -23.8170   18.5650   10.3670 C.2   207  NAP207      0.0157
     44  C6N      -23.5530   19.3970    9.2780 C.2   207  NAP207      0.0633
     45  P2B      -19.4090   32.4190   12.3630 P.3   207  NAP207      0.5328
     46  O1X      -18.8690   32.6890   10.9820 O.2   207  NAP207     -0.2224
     47  O2X      -20.8030   32.9840   12.4420 O.3   207  NAP207     -0.1145
     48  O3X      -18.4920   32.9660   13.4380 O.3   207  NAP207     -0.1145
@<TRIPOS>BOND
     1    32    31    1
     2    31    29    1
     3    31    33    1
     4    34    33    1
     5    29    30    1
     6    29    28    1
     7    25    24    2
     8    33    35    1
     9    35    30    1
    10    35    36    1
    11    28    27    1
    12    41    39   am
    13    27    24    1
    14    24    26    1
    15    24    23    1
    16    37    36    1
    17    37    38    1
    18    36    44    1
    19    39    38    1
    20    39    40    2
    21    23     1    1
    22    38    42    2
    23    44    43    2
    24    42    43    1
    25     9     8    1
    26     1     3    2
    27     1     4    1
    28     1     2    1
    29     5     4    1
    30     5     6    1
    31    46    45    2
    32     8     6    1
    33     8    10    1
    34     6     7    1
    35    45    47    1
    36    45    11    1
    37    45    48    1
    38    11    10    1
    39    10    12    1
    40     7    12    1
    41    12    13    1
    42    14    13    1
    43    14    15    1
    44    13    22    1
    45    15    16    2
    46    22    16    1
    47    22    21    2
    48    16    17    1
    49    21    20    1
    50    17    18    1
    51    17    19    2
    52    20    19    1
