@<TRIPOS>MOLECULE
3fqe_P5C_A_1.pdb
 25 27 0 0 0
SMALL
GASTEIGER

@<TRIPOS>ATOM
      1  C2         3.5330    2.6840   13.5050 C.1     1  P5C1        0.1665
      2  C3         5.3050    1.7830   14.7320 C.2     1  P5C1        0.1203
      3  N1         2.7880    1.5910   13.8060 N.2     1  P5C1       -0.3190
      4  C4         4.5500    0.6520   15.0570 C.2     1  P5C1        0.1231
      5  C6         3.2540    0.5640   14.5730 C.2     1  P5C1        0.2221
      6  C8         5.1530   -0.4330   15.9140 C.2     1  P5C1        0.2896
      7  C12        1.1870   -0.7550   14.5180 C.ar    1  P5C1        0.0728
      8  C13        0.5200   -0.0250   13.5260 C.ar    1  P5C1        0.0166
      9  C14       -1.4960   -1.3030   13.8770 C.ar    1  P5C1       -0.0042
     10  C15       -0.8390   -2.0390   14.8610 C.ar    1  P5C1       -0.0206
     11  C16       -0.8150   -0.2850   13.2020 C.ar    1  P5C1        0.0010
     12  C17        0.4910   -1.7640   15.1820 C.ar    1  P5C1        0.0123
     13  C18       -1.5670   -3.1500   15.5790 C.3     1  P5C1        0.0311
     14  O10        4.5090   -1.4290   16.2270 O.2     1  P5C1       -0.2665
     15  N9         6.4060   -0.2780   16.3260 N.am    1  P5C1       -0.0835
     16  N11        2.4880   -0.5280   14.8710 N.pl3   1  P5C1       -0.1826
     17  N5         4.7960    2.7720   13.9710 N.2     1  P5C1       -0.1684
     18  N7         3.0250    3.6840   12.7430 N.pl3   1  P5C1       -0.1624
     19  C19        1.6230    3.7360   12.3470 C.3     1  P5C1        0.1221
     20  C24        0.7330    4.3980   13.4230 C.3     1  P5C1        0.1124
     21  N25        1.1730    5.7590   13.7050 N.3     1  P5C1       -0.1311
     22  C23       -0.7270    4.4420   12.9710 C.3     1  P5C1        0.0208
     23  C22       -0.8880    5.1070   11.5950 C.3     1  P5C1        0.0016
     24  C21        0.0330    4.5180   10.5260 C.3     1  P5C1        0.0019
     25  C20        1.4930    4.4390   10.9860 C.3     1  P5C1        0.0239
@<TRIPOS>BOND
     1    24    25    1
     2    24    23    1
     3    25    19    1
     4    23    22    1
     5    19    18    1
     6    19    20    1
     7    18     1    1
     8    22    20    1
     9    11     8   ar
    10    11     9   ar
    11    20    21    1
    12     1     3    2
    13     1    17    2
    14     8     7   ar
    15     3     5    2
    16     9    10   ar
    17    17     2    1
    18     7    16    1
    19     7    12   ar
    20     5    16    1
    21     5     4    1
    22     2     4    2
    23    10    12   ar
    24    10    13    1
    25     4     6    1
    26     6    14    2
    27     6    15   am
