@<TRIPOS>MOLECULE
3fqf_NAP_A_1.pdb
 48 52 0 0 0
SMALL
GASTEIGER

@<TRIPOS>ATOM
      1  PA       -23.5750  -21.8090   42.6180 P.3   207  NAP207      0.2189
      2  O1A      -22.3780  -21.3860   41.8570 O.2   207  NAP207     -0.5170
      3  O2A      -24.7930  -21.0540   42.2590 O.3   207  NAP207     -0.4371
      4  O5B      -23.8730  -23.3800   42.4230 O.3   207  NAP207     -0.3112
      5  C5B      -22.8580  -24.3610   42.3900 C.3   207  NAP207      0.1813
      6  C4B      -23.4340  -25.5580   41.6720 C.3   207  NAP207      0.1820
      7  O4B      -23.5230  -25.3000   40.2770 O.3   207  NAP207     -0.3136
      8  C3B      -22.6020  -26.8190   41.8090 C.3   207  NAP207      0.2157
      9  O3B      -22.7910  -27.4810   43.0530 O.3   207  NAP207     -0.2175
     10  C2B      -23.0970  -27.5520   40.5800 C.3   207  NAP207      0.2314
     11  O2B      -24.4070  -28.0190   40.7650 O.3   207  NAP207     -0.2630
     12  C1B      -23.2040  -26.4560   39.5400 C.3   207  NAP207      0.3158
     13  N9A      -21.9610  -26.2700   38.7710 N.pl3 207  NAP207     -0.1439
     14  C8A      -21.0160  -25.2780   38.9030 C.3   207  NAP207      0.3377
     15  N7A      -20.0470  -25.4930   37.9770 N.2   207  NAP207     -0.2095
     16  C5A      -20.3670  -26.5960   37.2560 C.2   207  NAP207      0.2526
     17  C6A      -19.7560  -27.2660   36.1950 C.2   207  NAP207      0.4393
     18  N6A      -18.6070  -26.8430   35.6860 N.pl3 207  NAP207      0.2180
     19  N1A      -20.3530  -28.3970   35.6620 N.2   207  NAP207      0.0021
     20  C2A      -21.5500  -28.8570   36.1690 C.3   207  NAP207      0.5254
     21  N3A      -22.1560  -28.1970   37.2170 N.2   207  NAP207     -0.0055
     22  C4A      -21.5720  -27.0850   37.7480 C.2   207  NAP207      0.3518
     23  O3       -23.3330  -21.6440   44.1860 O.3   207  NAP207     -0.2703
     24  PN       -21.9910  -21.7370   45.0370 P.3   207  NAP207      0.2189
     25  O1N      -21.3640  -23.0600   44.7800 O.2   207  NAP207     -0.5170
     26  O2N      -21.2170  -20.5010   44.8180 O.3   207  NAP207     -0.4371
     27  O5D      -22.5710  -21.8380   46.5260 O.3   207  NAP207     -0.3112
     28  C5D      -22.4610  -20.8160   47.4740 C.3   207  NAP207      0.1813
     29  C4D      -23.7780  -20.0750   47.5220 C.3   207  NAP207      0.1799
     30  O4D      -24.1370  -19.5320   46.2590 O.3   207  NAP207     -0.3327
     31  C3D      -24.9480  -20.9720   47.9570 C.3   207  NAP207      0.2158
     32  O3D      -25.0850  -21.0140   49.3620 O.3   207  NAP207     -0.2175
     33  C2D      -26.1500  -20.3610   47.2650 C.3   207  NAP207      0.2309
     34  O2D      -27.0550  -19.7850   48.1670 O.3   207  NAP207     -0.2158
     35  C1D      -25.4580  -19.2680   46.5400 C.3   207  NAP207      0.2263
     36  N1N      -25.9420  -17.9210   46.5790 N.pl3 207  NAP207     -0.2787
     37  C2N      -25.6940  -17.0810   45.5480 C.3   207  NAP207      0.1244
     38  C3N      -26.1290  -15.7820   45.6770 C.2   207  NAP207      0.0544
     39  C7N      -25.5990  -14.7900   44.7080 C.2   207  NAP207      0.2818
     40  O7N      -25.1340  -15.2620   43.4690 O.2   207  NAP207     -0.2670
     41  N7N      -25.5800  -13.5150   45.0510 N.am  207  NAP207     -0.0839
     42  C4N      -26.7900  -15.3420   46.8180 C.2   207  NAP207      0.0033
     43  C5N      -27.0080  -16.2200   47.8560 C.2   207  NAP207      0.0157
     44  C6N      -26.5370  -17.5110   47.7460 C.2   207  NAP207      0.0633
     45  P2B      -24.7060  -29.5440   41.1920 P.3   207  NAP207      0.5328
     46  O1X      -24.1230  -29.7410   42.5720 O.3   207  NAP207     -0.1145
     47  O2X      -26.1980  -29.7140   41.2210 O.3   207  NAP207     -0.1145
     48  O3X      -24.0490  -30.4470   40.1810 O.2   207  NAP207     -0.2224
@<TRIPOS>BOND
     1    19    20    1
     2    19    17    2
     3    18    17    1
     4    20    21    1
     5    17    16    1
     6    21    22    2
     7    16    22    1
     8    16    15    2
     9    22    13    1
    10    15    14    1
    11    13    14    1
    12    13    12    1
    13    12     7    1
    14    12    10    1
    15    48    45    2
    16     7     6    1
    17    10    11    1
    18    10     8    1
    19    11    45    1
    20    45    47    1
    21    45    46    1
    22     6     8    1
    23     6     5    1
    24     8     9    1
    25     2     1    2
    26     3     1    1
    27     5     4    1
    28     4     1    1
    29     1    23    1
    30    40    39    2
    31    23    24    1
    32    39    41   am
    33    39    38    1
    34    25    24    2
    35    26    24    1
    36    24    27    1
    37    37    38    1
    38    37    36    1
    39    38    42    2
    40    30    35    1
    41    30    29    1
    42    27    28    1
    43    35    36    1
    44    35    33    1
    45    36    44    1
    46    42    43    1
    47    33    31    1
    48    33    34    1
    49    28    29    1
    50    29    31    1
    51    44    43    2
    52    31    32    1
