@<TRIPOS>MOLECULE
3fqf_55V_A_1.pdb
 26 27 0 0 0
SMALL
GASTEIGER

@<TRIPOS>ATOM
      1  C1P      -31.9510  -15.0600   47.4980 C.3   219  55V219      0.2526
      2  O1O      -32.8860  -14.1740   46.8470 O.3   219  55V219     -0.4683
      3  C1N      -32.5390  -13.7280   45.5830 C.ar  219  55V219      0.1752
      4  C1M      -31.3450  -14.1060   44.9580 C.ar  219  55V219      0.0369
      5  C1Q      -33.4150  -12.8630   44.9100 C.ar  219  55V219      0.2060
      6  O1V      -34.5920  -12.4720   45.4940 O.3   219  55V219     -0.4654
      7  C1W      -35.6170  -13.4550   45.1980 C.3   219  55V219      0.2528
      8  C1R      -33.1160  -12.3830   43.6370 C.ar  219  55V219      0.1752
      9  O1T      -34.0090  -11.5340   43.0330 O.3   219  55V219     -0.4683
     10  C1U      -33.7590  -11.2540   41.6410 C.3   219  55V219      0.2526
     11  C1S      -31.9240  -12.7620   43.0250 C.ar  219  55V219      0.0369
     12  C1L      -31.0360  -13.6250   43.6760 C.ar  219  55V219     -0.0054
     13  C1J      -29.7410  -14.0270   42.9670 C.3   219  55V219      0.0729
     14  C1K      -28.7620  -14.6710   43.9430 C.3   219  55V219      0.0174
     15  C1X      -30.0800  -15.0400   41.8720 C.3   219  55V219      0.0174
     16  C1I      -29.1200  -12.8060   42.4210 C.1   219  55V219     -0.0880
     17  C1H      -28.6370  -11.7570   41.9990 C.1   219  55V219     -0.0761
     18  C5       -28.1290  -10.4840   41.5540 C.3   219  55V219      0.1831
     19  C4       -28.6380   -9.3010   42.0940 C.2   219  55V219      0.1207
     20  C1Y      -29.7430   -9.3360   43.1490 C.3   219  55V219      0.0641
     21  N3       -28.1580   -8.1100   41.6890 N.2   219  55V219     -0.3332
     22  C2       -27.1910   -8.0490   40.7540 C.1   219  55V219      0.2419
     23  N1Z      -26.7450   -6.8590   40.3540 N.pl3 219  55V219     -0.0232
     24  N1       -26.6900   -9.1770   40.2100 N.2   219  55V219     -0.3105
     25  C6       -27.1300  -10.3940   40.5880 C.2   219  55V219      0.2282
     26  N1G      -26.6080  -11.4970   40.0540 N.pl3 219  55V219     -0.0955
@<TRIPOS>BOND
     1    26    25    1
     2    24    25    2
     3    24    22    2
     4    23    22    1
     5    25    18    1
     6    22    21    2
     7    18    17    1
     8    18    19    1
     9    10     9    1
    10    21    19    2
    11    15    13    1
    12    17    16    3
    13    19    20    1
    14    16    13    1
    15    13    12    1
    16    13    14    1
    17    11     8   ar
    18    11    12   ar
    19     9     8    1
    20     8     5   ar
    21    12     4   ar
    22     5     6    1
    23     5     3   ar
    24     4     3   ar
    25     7     6    1
    26     3     2    1
    27     2     1    1
