@<TRIPOS>MOLECULE
3fqh_057_A_1.pdb
 27 30 0 0 0
SMALL
GASTEIGER

@<TRIPOS>ATOM
      1  O21       -7.4760   -5.9830   10.0950 O.2     1  0571       -0.2684
      2  C20       -6.3320   -5.5830   10.3080 C.2     1  0571        0.2648
      3  N22       -5.2660   -6.1510    9.7190 N.am    1  0571       -0.2025
      4  C23       -5.3000   -7.2850    8.7720 C.3     1  0571        0.1095
      5  C26       -6.1700   -8.4520    9.2410 C.3     1  0571        0.0244
      6  C27       -5.8510   -6.8400    7.4120 C.3     1  0571        0.0244
      7  C24       -3.8720   -7.8080    8.5770 C.3     1  0571        0.2018
      8  O25       -3.7830   -8.9780    7.7340 O.3     1  0571       -0.2186
      9  C15       -6.1710   -4.4170   11.2640 C.ar    1  0571        0.0551
     10  C16       -7.3220   -3.9040   11.8780 C.ar    1  0571        0.0060
     11  C18       -7.2430   -2.8290   12.7660 C.ar    1  0571        0.0173
     12  C13       -6.0090   -2.2430   13.0620 C.ar    1  0571        0.0601
     13  N11       -5.6610   -1.2140   13.8750 N.ar    1  0571       -0.3240
     14  C19       -6.5910   -0.3970   14.6990 C.3     1  0571        0.1305
     15  C12       -4.3280   -1.0210   13.8240 C.ar    1  0571        0.0785
     16  C17       -4.9210   -3.8370   11.5570 C.ar    1  0571        0.0061
     17  C14       -4.8600   -2.7570   12.4470 C.ar    1  0571        0.0199
     18  C10       -3.8340   -1.9740   12.9510 C.ar    1  0571        0.0491
     19  C9        -2.4630   -2.0520   12.6570 C.2     1  0571        0.1446
     20  N5        -1.6660   -0.9760   12.8130 N.2     1  0571       -0.3506
     21  C8        -1.8280   -3.1940   12.2020 C.2     1  0571        0.0400
     22  C7        -0.4980   -2.6690   12.1010 C.2     1  0571        0.0588
     23  C3         0.6540   -3.3310   11.6690 C.3     1  0571        0.0653
     24  C2         1.8610   -2.6270   11.6320 C.2     1  0571        0.0008
     25  C6        -0.4200   -1.3350   12.4750 C.1     1  0571        0.0836
     26  N4         0.7610   -0.6660   12.4210 N.2     1  0571       -0.1829
     27  C1         1.8890   -1.2890   12.0190 C.2     1  0571        0.1063
@<TRIPOS>BOND
     1     6     4    1
     2     8     7    1
     3     7     4    1
     4     4     5    1
     5     4     3    1
     6     3     2   am
     7     1     2    2
     8     2     9    1
     9     9    16   ar
    10     9    10   ar
    11    16    17   ar
    12    24    23    1
    13    24    27    2
    14    23    22    1
    15    10    11   ar
    16    27    26    1
    17    22    21    2
    18    22    25    1
    19    21    19    1
    20    26    25    2
    21    17    18   ar
    22    17    12   ar
    23    25    20    2
    24    19    20    2
    25    19    18    1
    26    11    12   ar
    27    18    15   ar
    28    12    13   ar
    29    15    13   ar
    30    13    14    1
