@<TRIPOS>MOLECULE
3fqj_GDP_A_1.pdb
 28 30 0 0 0
SMALL
GASTEIGER

@<TRIPOS>ATOM
      1  PB        -5.3320  -22.5250   18.9950 P.3   1001  GDP1001     0.5373
      2  O1B       -5.5960  -21.2540   19.7680 O.3   1001  GDP1001    -0.1143
      3  O2B       -4.0790  -22.3200   18.1840 O.3   1001  GDP1001    -0.1143
      4  O3B       -6.5060  -22.8840   18.1170 O.2   1001  GDP1001    -0.2221
      5  O3A       -5.1120  -23.7970   19.9540 O.3   1001  GDP1001    -0.2261
      6  PA        -4.8560  -23.7210   21.5320 P.3   1001  GDP1001     0.2231
      7  O1A       -6.1780  -23.7300   22.2350 O.3   1001  GDP1001    -0.4370
      8  O2A       -3.9950  -22.5510   21.9140 O.2   1001  GDP1001    -0.5169
      9  O5'       -4.1170  -25.1150   21.7810 O.3   1001  GDP1001    -0.3111
     10  C5'       -3.8010  -25.5900   23.0830 C.3   1001  GDP1001     0.1813
     11  C4'       -3.1650  -26.9720   22.9560 C.3   1001  GDP1001     0.1799
     12  O4'       -4.0230  -27.8350   22.2150 O.3   1001  GDP1001    -0.3326
     13  C3'       -1.8280  -26.9520   22.2320 C.3   1001  GDP1001     0.2158
     14  O3'       -0.9480  -27.8520   22.9140 O.3   1001  GDP1001    -0.2175
     15  C2'       -2.1160  -27.4730   20.8400 C.3   1001  GDP1001     0.2310
     16  O2'       -1.0530  -28.2830   20.3240 O.3   1001  GDP1001    -0.2158
     17  C1'       -3.3820  -28.2900   21.0240 C.3   1001  GDP1001     0.2293
     18  N9        -4.3130  -28.0930   19.8930 N.pl3 1001  GDP1001    -0.2354
     19  C8        -4.8450  -26.9300   19.4650 C.3   1001  GDP1001     0.2246
     20  N7        -5.6690  -27.1310   18.4070 N.2   1001  GDP1001    -0.2322
     21  C5        -5.6770  -28.4560   18.1520 C.2   1001  GDP1001     0.2182
     22  C6        -6.3340  -29.3630   17.1700 C.1   1001  GDP1001     0.2372
     23  O6        -7.1130  -28.9080   16.2930 O.2   1001  GDP1001    -0.2069
     24  N1        -6.0590  -30.6830   17.2620 N.2   1001  GDP1001    -0.2485
     25  C2        -5.2240  -31.2000   18.1990 C.1   1001  GDP1001     0.2531
     26  N2        -4.9950  -32.5380   18.2240 N.pl3 1001  GDP1001    -0.0226
     27  N3        -4.5940  -30.4280   19.1240 N.2   1001  GDP1001    -0.3074
     28  C4        -4.7800  -29.0840   19.1410 C.2   1001  GDP1001     0.2300
@<TRIPOS>BOND
     1    23    22    2
     2    22    24    2
     3    22    21    1
     4    24    25    2
     5     4     1    2
     6    21    20    2
     7    21    28    1
     8     3     1    1
     9    25    26    1
    10    25    27    2
    11    20    19    1
    12     1     2    1
    13     1     5    1
    14    27    28    2
    15    28    18    1
    16    19    18    1
    17    18    17    1
    18     5     6    1
    19    16    15    1
    20    15    17    1
    21    15    13    1
    22    17    12    1
    23     6     9    1
    24     6     8    2
    25     6     7    1
    26     9    10    1
    27    12    11    1
    28    13    14    1
    29    13    11    1
    30    11    10    1
