@<TRIPOS>MOLECULE
3fqk_79Z_A_1.pdb
 31 34 0 0 0
SMALL
GASTEIGER

@<TRIPOS>ATOM
      1  C1       -50.2710    8.7310    9.1190 C.3   571  79Z571      0.0047
      2  C2       -49.6810    8.8100   10.5370 C.3   571  79Z571      0.0236
      3  C3       -48.9570    8.0160    9.4410 C.3   571  79Z571      0.0047
      4  C4       -45.8720   15.3300   11.0380 C.ar  571  79Z571      0.0349
      5  C5       -44.6290   15.3640   10.3860 C.ar  571  79Z571      0.0053
      6  C6       -43.8470   16.4900   10.4890 C.ar  571  79Z571      0.0297
      7  C7       -44.2750   17.5630   11.2610 C.ar  571  79Z571      0.1401
      8  C8       -45.4860   17.5330   11.9310 C.ar  571  79Z571      0.0297
      9  C9       -46.2810   16.4050   11.8390 C.ar  571  79Z571      0.0053
     10  C10      -49.1330   10.1460   11.0150 C.ar  571  79Z571     -0.0074
     11  C11      -49.5550   10.7340   12.2370 C.ar  571  79Z571      0.0676
     12  C12      -49.0370   11.9630   12.6310 C.ar  571  79Z571      0.0533
     13  C13      -48.2210   10.8500   10.2210 C.ar  571  79Z571      0.0003
     14  C14      -47.7060   12.0880   10.6340 C.ar  571  79Z571      0.0417
     15  C15      -48.1210   12.6470   11.8520 C.ar  571  79Z571      0.1467
     16  O16      -47.5020   13.8320   12.0340 O.2   571  79Z571     -0.4533
     17  C17      -46.6980   14.1150   11.0030 C.ar  571  79Z571      0.1496
     18  C18      -46.7430   13.0640   10.0750 C.ar  571  79Z571      0.0924
     19  C19      -46.0340   12.9020    8.8040 C.2   571  79Z571      0.2679
     20  O20      -45.2360   11.9890    8.7030 O.2   571  79Z571     -0.2683
     21  N21      -46.2930   13.7200    7.7640 N.am  571  79Z571     -0.1997
     22  C22      -45.6110   13.5910    6.4680 C.3   571  79Z571      0.1388
     23  N23      -50.4380   10.1750   13.1800 N.pl3 571  79Z571     -0.1918
     24  S24      -49.7620    9.3270   14.4520 S.O2  571  79Z571      0.0589
     25  O25      -50.5680    8.1660   14.6160 O.2   571  79Z571     -0.1542
     26  O26      -48.3820    9.1150   14.2150 O.2   571  79Z571     -0.1542
     27  C27      -49.9110   10.4510   15.8670 C.3   571  79Z571      0.1999
     28  F28      -43.4910   18.6420   11.3580 F     571  79Z571     -0.2042
     29  C29      -51.8880   10.4030   13.1610 C.3   571  79Z571      0.1509
     30  C30      -52.6020    9.8930   11.9150 C.3   571  79Z571      0.2054
     31  O31      -53.6790   10.8030   11.6810 O.3   571  79Z571     -0.2184
@<TRIPOS>BOND
     1    22    21    1
     2    21    19   am
     3    20    19    2
     4    19    18    1
     5     1     3    1
     6     1     2    1
     7     3     2    1
     8    18    14   ar
     9    18    17   ar
    10    13    14   ar
    11    13    10   ar
    12     5     6   ar
    13     5     4   ar
    14     6     7   ar
    15     2    10    1
    16    14    15   ar
    17    17     4    1
    18    17    16   ar
    19    10    11   ar
    20     4     9   ar
    21     7    28    1
    22     7     8   ar
    23    31    30    1
    24     9     8   ar
    25    15    16   ar
    26    15    12   ar
    27    30    29    1
    28    11    12   ar
    29    11    23    1
    30    29    23    1
    31    23    24    1
    32    26    24    2
    33    24    25    2
    34    24    27    1
