@<TRIPOS>MOLECULE
3fql_79Z_A_1.pdb
 31 34 0 0 0
SMALL
GASTEIGER

@<TRIPOS>ATOM
      1  C1       -14.2680   -9.6220   12.1590 C.3   571  79Z571      0.0047
      2  C2       -14.4440   -9.7210   10.6420 C.3   571  79Z571      0.0236
      3  C3       -13.1480  -10.1830   11.2940 C.3   571  79Z571      0.0047
      4  C4       -18.4190  -16.0240    9.0740 C.ar  571  79Z571      0.0349
      5  C5       -17.6810  -17.1960    9.1660 C.ar  571  79Z571      0.0053
      6  C6       -18.2820  -18.3960    8.8350 C.ar  571  79Z571      0.0297
      7  C7       -19.5960  -18.4120    8.3880 C.ar  571  79Z571      0.1401
      8  C8       -20.3120  -17.2320    8.2490 C.ar  571  79Z571      0.0297
      9  C9       -19.7190  -16.0230    8.5820 C.ar  571  79Z571      0.0053
     10  C10      -15.4080  -10.7340   10.1300 C.ar  571  79Z571     -0.0074
     11  C11      -16.4030  -10.3250    9.2180 C.ar  571  79Z571      0.0676
     12  C12      -17.3260  -11.2420    8.7130 C.ar  571  79Z571      0.0533
     13  C13      -15.3580  -12.0760   10.5580 C.ar  571  79Z571      0.0003
     14  C14      -16.2900  -12.9650   10.0380 C.ar  571  79Z571      0.0417
     15  C15      -17.2530  -12.5480    9.1340 C.ar  571  79Z571      0.1467
     16  O16      -18.1320  -13.5750    8.7270 O.2   571  79Z571     -0.4533
     17  C17      -17.7650  -14.7460    9.3480 C.ar  571  79Z571      0.1496
     18  C18      -16.5990  -14.4110   10.2110 C.ar  571  79Z571      0.0924
     19  C19      -15.7860  -15.3060   11.0950 C.2   571  79Z571      0.2679
     20  O20      -14.5900  -15.3970   10.8810 O.2   571  79Z571     -0.2683
     21  N21      -16.3400  -16.0160   12.0780 N.am  571  79Z571     -0.1997
     22  C22      -15.6070  -16.9150   12.9650 C.3   571  79Z571      0.1388
     23  N23      -16.5250   -9.0050    8.6980 N.pl3 571  79Z571     -0.1918
     24  S24      -15.9290   -8.7640    7.3020 S.O2  571  79Z571      0.0589
     25  O25      -15.1660   -7.5600    7.2420 O.2   571  79Z571     -0.1542
     26  O26      -15.0750   -9.8250    6.8270 O.2   571  79Z571     -0.1542
     27  C27      -17.2130   -8.6880    6.2330 C.3   571  79Z571      0.1999
     28  F28      -20.1480  -19.6000    8.0610 F     571  79Z571     -0.2042
     29  C29      -17.2530   -7.9290    9.3200 C.3   571  79Z571      0.1509
     30  C30      -17.5750   -8.2540   10.7640 C.3   571  79Z571      0.2054
     31  O31      -18.0160   -7.0550   11.3900 O.3   571  79Z571     -0.2184
@<TRIPOS>BOND
     1    27    24    1
     2    26    24    2
     3    25    24    2
     4    24    23    1
     5    28     7    1
     6     8     7   ar
     7     8     9   ar
     8     7     6   ar
     9     9     4   ar
    10    23    11    1
    11    23    29    1
    12    12    15   ar
    13    12    11   ar
    14    16    15   ar
    15    16    17   ar
    16     6     5   ar
    17     4     5   ar
    18     4    17    1
    19    15    14   ar
    20    11    10   ar
    21    29    30    1
    22    17    18   ar
    23    14    18   ar
    24    14    13   ar
    25    10    13   ar
    26    10     2    1
    27    18    19    1
    28     2     3    1
    29     2     1    1
    30    30    31    1
    31    20    19    2
    32    19    21   am
    33     3     1    1
    34    21    22    1
