@<TRIPOS>MOLECULE
3fqn_III_C_1.pdb
 34 34 0 0 0
SMALL
GASTEIGER

@<TRIPOS>ATOM
      1  N         -0.6530   -5.2650  -45.0740 N.3     1  TYR1       -0.1227
      2  CA        -1.1210   -6.2940  -46.0030 C.3     1  TYR1        0.1736
      3  C         -0.0380   -7.3630  -46.1240 C.2     1  TYR1        0.2595
      4  O          1.0440   -7.1040  -46.6530 O.2     1  TYR1       -0.2718
      5  CB        -1.4130   -5.6470  -47.3570 C.3     1  TYR1        0.0548
      6  CG        -2.1650   -6.4930  -48.3570 C.ar    1  TYR1       -0.0200
      7  CD1       -3.5550   -6.5320  -48.3570 C.ar    1  TYR1       -0.0009
      8  CD2       -1.4870   -7.2120  -49.3340 C.ar    1  TYR1       -0.0009
      9  CE1       -4.2510   -7.2830  -49.2970 C.ar    1  TYR1        0.0417
     10  CE2       -2.1730   -7.9650  -50.2730 C.ar    1  TYR1        0.0417
     11  CZ        -3.5490   -7.9950  -50.2470 C.ar    1  TYR1        0.1957
     12  OH        -4.2310   -8.7440  -51.1850 O.3     1  TYR1       -0.2866
     13  N         -0.3240   -8.5540  -45.6040 N.am    2  LEU2       -0.1966
     14  CA         0.6530   -9.6350  -45.5880 C.3     2  LEU2        0.1728
     15  C          0.9860  -10.1730  -46.9710 C.2     2  LEU2        0.2616
     16  O          0.1750  -10.1140  -47.8930 O.2     2  LEU2       -0.2715
     17  CB         0.1340  -10.8170  -44.7650 C.3     2  LEU2        0.0311
     18  CG         0.1430  -10.7160  -43.2440 C.3     2  LEU2        0.0022
     19  CD1       -0.7490  -11.8000  -42.6610 C.3     2  LEU2        0.0001
     20  CD2        1.5780  -10.8220  -42.7190 C.3     2  LEU2        0.0001
     21  N          2.2000  -10.6940  -47.0920 N.am    3  ASP3       -0.1957
     22  CA         2.5900  -11.4840  -48.2490 C.3     3  ASP3        0.1840
     23  C          1.6750  -12.7010  -48.3070 C.2     3  ASP3        0.2622
     24  O          1.2460  -13.2150  -47.2710 O.2     3  ASP3       -0.2715
     25  CB         4.0460  -11.9180  -48.0950 C.3     3  ASP3        0.1450
     26  CG         4.6620  -12.3900  -49.3960 C.2     3  ASP3        0.3671
     27  OD1        3.9180  -12.5760  -50.3760 O.co2   3  ASP3       -0.2456
     28  OD2        5.9000  -12.5650  -49.4300 O.co2   3  ASP3       -0.2456
     29  N          1.3620  -13.1500  -49.5180 N.am    4  SER4       -0.1950
     30  CA         0.5260  -14.3290  -49.6970 C.3     4  SER4        0.1924
     31  C          1.3290  -15.5990  -49.4510 C.2     4  SER4        0.2314
     32  O          1.3340  -16.5110  -50.2810 O.2     4  SER4       -0.2863
     33  CB        -0.0720  -14.3530  -51.1040 C.3     4  SER4        0.2116
     34  OG        -1.0890  -13.3790  -51.2440 O.3     4  SER4       -0.2180
@<TRIPOS>BOND
     1    34    33    1
     2    12    11    1
     3    33    30    1
     4    27    26   ar
     5    32    31    2
     6    10    11   ar
     7    10     8   ar
     8    11     9   ar
     9    30    29    1
    10    30    31    1
    11    29    23   am
    12    28    26   ar
    13    26    25    1
    14     8     6   ar
    15     9     7   ar
    16     6     7   ar
    17     6     5    1
    18    23    22    1
    19    23    24    2
    20    22    25    1
    21    22    21    1
    22    16    15    2
    23     5     2    1
    24    21    15   am
    25    15    14    1
    26     4     3    2
    27     3     2    1
    28     3    13   am
    29     2     1    1
    30    13    14    1
    31    14    17    1
    32    17    18    1
    33    18    20    1
    34    18    19    1
