@<TRIPOS>MOLECULE
3fqo_NAP_A_1.pdb
 48 52 0 0 0
SMALL
GASTEIGER

@<TRIPOS>ATOM
      1  PA       -23.6660  -21.4740   42.3610 P.3   207  NAP207      0.2189
      2  O1A      -22.4300  -21.0480   41.6680 O.2   207  NAP207     -0.5170
      3  O2A      -24.7820  -20.5380   42.1420 O.3   207  NAP207     -0.4371
      4  O5B      -24.0660  -22.9550   41.8890 O.3   207  NAP207     -0.3112
      5  C5B      -23.1850  -24.0260   42.1370 C.3   207  NAP207      0.1813
      6  C4B      -23.7300  -25.2200   41.3850 C.3   207  NAP207      0.1820
      7  O4B      -23.8140  -24.9280   40.0020 O.3   207  NAP207     -0.3136
      8  C3B      -22.8520  -26.4580   41.4730 C.3   207  NAP207      0.2157
      9  O3B      -23.0200  -27.1590   42.6850 O.3   207  NAP207     -0.2175
     10  C2B      -23.3240  -27.2100   40.2440 C.3   207  NAP207      0.2314
     11  O2B      -24.6260  -27.7200   40.4080 O.3   207  NAP207     -0.2630
     12  C1B      -23.4910  -26.0790   39.2470 C.3   207  NAP207      0.3158
     13  N9A      -22.2490  -25.9240   38.4650 N.pl3 207  NAP207     -0.1439
     14  C8A      -21.3010  -24.9360   38.5760 C.3   207  NAP207      0.3377
     15  N7A      -20.3240  -25.1720   37.6680 N.2   207  NAP207     -0.2095
     16  C5A      -20.6290  -26.3030   36.9860 C.2   207  NAP207      0.2526
     17  C6A      -19.9880  -26.9980   35.9610 C.2   207  NAP207      0.4393
     18  N6A      -18.8340  -26.5620   35.4700 N.pl3 207  NAP207      0.2180
     19  N1A      -20.5600  -28.1480   35.4470 N.2   207  NAP207      0.0021
     20  C2A      -21.7660  -28.6120   35.9470 C.3   207  NAP207      0.5254
     21  N3A      -22.3960  -27.9190   36.9650 N.2   207  NAP207     -0.0055
     22  C4A      -21.8400  -26.7840   37.4750 C.2   207  NAP207      0.3518
     23  O3       -23.4030  -21.6770   43.9410 O.3   207  NAP207     -0.2703
     24  PN       -22.5740  -20.8340   45.0300 P.3   207  NAP207      0.2189
     25  O1N      -22.8060  -21.4350   46.3640 O.3   207  NAP207     -0.4371
     26  O2N      -21.1950  -20.6970   44.5210 O.2   207  NAP207     -0.5170
     27  O5D      -23.3020  -19.3920   45.0450 O.3   207  NAP207     -0.3112
     28  C5D      -24.6730  -19.2530   45.3520 C.3   207  NAP207      0.1813
     29  C4D      -24.8830  -18.0000   46.1950 C.3   207  NAP207      0.1799
     30  O4D      -24.4440  -16.8260   45.5300 O.3   207  NAP207     -0.3327
     31  C3D      -26.3470  -17.7930   46.5540 C.3   207  NAP207      0.2158
     32  O3D      -26.4320  -17.8290   47.9550 O.3   207  NAP207     -0.2175
     33  C2D      -26.7110  -16.4120   46.0370 C.3   207  NAP207      0.2309
     34  O2D      -27.3600  -15.6380   47.0180 O.3   207  NAP207     -0.2158
     35  C1D      -25.3780  -15.7670   45.6960 C.3   207  NAP207      0.2263
     36  N1N      -25.4470  -14.9150   44.4880 N.pl3 207  NAP207     -0.2787
     37  C2N      -25.5370  -13.5510   44.6090 C.3   207  NAP207      0.1244
     38  C3N      -25.5810  -12.7260   43.4770 C.2   207  NAP207      0.0544
     39  C7N      -25.2050  -11.2700   43.5750 C.2   207  NAP207      0.2818
     40  O7N      -24.9200  -10.5570   42.3930 O.2   207  NAP207     -0.2670
     41  N7N      -25.1480  -10.6760   44.7650 N.am  207  NAP207     -0.0839
     42  C4N      -25.5410  -13.3210   42.2160 C.2   207  NAP207      0.0033
     43  C5N      -25.4600  -14.7020   42.1020 C.2   207  NAP207      0.0157
     44  C6N      -25.4090  -15.4910   43.2460 C.2   207  NAP207      0.0633
     45  P2B      -24.9220  -29.2510   40.8210 P.3   207  NAP207      0.5328
     46  O1X      -24.3720  -29.4590   42.2120 O.3   207  NAP207     -0.1145
     47  O2X      -26.4220  -29.4520   40.8170 O.3   207  NAP207     -0.1145
     48  O3X      -24.2530  -30.1700   39.8240 O.2   207  NAP207     -0.2224
@<TRIPOS>BOND
     1    19    20    1
     2    19    17    2
     3    18    17    1
     4    20    21    1
     5    17    16    1
     6    21    22    2
     7    16    22    1
     8    16    15    2
     9    22    13    1
    10    15    14    1
    11    13    14    1
    12    13    12    1
    13    12     7    1
    14    12    10    1
    15    48    45    2
    16     7     6    1
    17    10    11    1
    18    10     8    1
    19    11    45    1
    20    47    45    1
    21    45    46    1
    22     6     8    1
    23     6     5    1
    24     8     9    1
    25     2     1    2
    26     4     5    1
    27     4     1    1
    28    43    42    1
    29    43    44    2
    30     3     1    1
    31    42    38    2
    32     1    23    1
    33    40    39    2
    34    44    36    1
    35    38    39    1
    36    38    37    1
    37    39    41   am
    38    23    24    1
    39    36    37    1
    40    36    35    1
    41    26    24    2
    42    24    27    1
    43    24    25    1
    44    27    28    1
    45    28    29    1
    46    30    35    1
    47    30    29    1
    48    35    33    1
    49    33    31    1
    50    33    34    1
    51    29    31    1
    52    31    32    1
