@<TRIPOS>MOLECULE
3fqo_N22_A_1.pdb
 23 24 0 0 0
SMALL
GASTEIGER

@<TRIPOS>ATOM
      1  C8       -30.8220   -8.8180   42.1790 C.3   219  N22219      0.0076
      2  C7       -29.4770   -9.2740   42.7330 C.3   219  N22219      0.0569
      3  C5       -28.4140   -9.2900   41.6390 C.2   219  N22219      0.1203
      4  N4       -27.9640   -8.1080   41.1990 N.2   219  N22219     -0.3332
      5  C3       -27.0300   -8.0170   40.2420 C.1   219  N22219      0.2419
      6  N8       -26.6250   -6.8130   39.8520 N.pl3 219  N22219     -0.0232
      7  N2       -26.5220   -9.1260   39.6810 N.2   219  N22219     -0.3105
      8  C1       -26.9210  -10.3460   40.0760 C.2   219  N22219      0.2282
      9  N7       -26.3850  -11.4270   39.5110 N.pl3 219  N22219     -0.0955
     10  C6       -27.8890  -10.4500   41.0760 C.3   219  N22219      0.1831
     11  C9       -28.3730  -11.7130   41.5440 C.1   219  N22219     -0.0760
     12  C10      -28.8150  -12.7640   41.9750 C.1   219  N22219     -0.0853
     13  C11      -29.3840  -13.9970   42.5290 C.3   219  N22219      0.1054
     14  C13      -30.7730  -13.7030   43.0930 C.ar  219  N22219      0.0278
     15  C18      -31.6020  -12.8860   42.3150 C.ar  219  N22219      0.0366
     16  C17      -32.8890  -12.5560   42.7320 C.ar  219  N22219      0.1386
     17  O2       -33.6500  -11.7480   41.9280 O.3   219  N22219     -0.4714
     18  C4       -35.0740  -11.8050   42.2000 C.3   219  N22219      0.2525
     19  C16      -33.3560  -13.0410   43.9580 C.ar  219  N22219      0.0400
     20  C15      -32.5410  -13.8600   44.7440 C.ar  219  N22219      0.0397
     21  C14      -31.2500  -14.1900   44.3160 C.ar  219  N22219      0.1358
     22  O10      -30.4380  -14.9950   45.0720 O.3   219  N22219     -0.4717
     23  C2       -30.8450  -15.1180   46.4420 C.3   219  N22219      0.2525
@<TRIPOS>BOND
     1     9     8    1
     2     7     8    2
     3     7     5    2
     4     6     5    1
     5     8    10    1
     6     5     4    2
     7    10    11    1
     8    10     3    1
     9     4     3    2
    10    11    12    3
    11     3     2    1
    12    17    18    1
    13    17    16    1
    14    12    13    1
    15     1     2    1
    16    15    16   ar
    17    15    14   ar
    18    13    14    1
    19    16    19   ar
    20    14    21   ar
    21    19    20   ar
    22    21    20   ar
    23    21    22    1
    24    22    23    1
