@<TRIPOS>MOLECULE
3fqq_0BD_A_1.pdb
 22 22 0 0 0
SMALL
GASTEIGER

@<TRIPOS>ATOM
      1  C1        32.9170    7.1200    8.4200 C.3     2  0BD2        0.2404
      2  C2        33.4060    8.4100    9.0930 C.3     2  0BD2        0.2166
      3  C3        34.8570    8.7360    8.7000 C.3     2  0BD2        0.1779
      4  C4        34.9480    8.7470    7.1570 C.3     2  0BD2        0.1802
      5  O5        34.4490    7.5180    6.5830 O.3     2  0BD2       -0.3257
      6  C6        33.0840    7.2470    6.8920 C.3     2  0BD2        0.2694
      7  O7        35.2260   10.0030    9.2830 O.3     2  0BD2       -0.3483
      8  O16       32.7420    5.9910    6.2990 O.3     2  0BD2       -0.3311
      9  C18       32.3860    5.8960    4.9160 C.3     2  0BD2        0.1179
     10  C19       32.9480    4.5400    4.4580 C.3     2  0BD2        0.0296
     11  C22       34.4720    4.4380    4.6100 C.3     2  0BD2        0.0024
     12  O49       31.5540    6.8410    8.7840 O.3     2  0BD2       -0.2149
     13  O55       33.3660    8.2480   10.5040 O.3     2  0BD2       -0.2175
     14  C57       36.3840    8.9200    6.6800 C.3     2  0BD2        0.2141
     15  O61       36.2790    9.4930    5.3780 O.3     2  0BD2       -0.2176
     16  C10       36.4850    9.9810    9.9930 C.3     2  0BD2        0.1742
     17  C14       35.1910    5.3160    3.5690 C.3     2  0BD2        0.0001
     18  C13       34.8840    2.9660    4.4430 C.3     2  0BD2        0.0001
     19  C         30.8610    5.8340    4.7650 C.3     2  0BD2        0.0296
     20  C12       30.1440    6.7660    3.7670 C.3     2  0BD2        0.0024
     21  C16       28.8090    6.1010    3.4240 C.3     2  0BD2        0.0001
     22  C15       30.8770    7.1280    2.4670 C.3     2  0BD2        0.0001
@<TRIPOS>BOND
     1    22    20    1
     2    21    20    1
     3    17    11    1
     4    20    19    1
     5    18    11    1
     6    10    11    1
     7    10     9    1
     8    19     9    1
     9     9     8    1
    10    15    14    1
    11     8     6    1
    12     5     6    1
    13     5     4    1
    14    14     4    1
    15     6     1    1
    16     4     3    1
    17     1    12    1
    18     1     2    1
    19     3     2    1
    20     3     7    1
    21     2    13    1
    22     7    16    1
