@<TRIPOS>MOLECULE
3fqs_585_A_1.pdb
 34 37 0 0 0
SMALL
GASTEIGER

@<TRIPOS>ATOM
      1  N1         2.3230    4.8800   10.1750 N.2     1  5851       -0.2641
      2  N2         2.7780    0.2080   14.5220 N.2     1  5851       -0.3165
      3  C3         2.1900    3.5960   10.7240 C.1     1  5851        0.1856
      4  C4         3.9150    0.7920   14.1530 C.2     1  5851        0.2472
      5  C5         1.2540    5.4280    9.5410 C.1     1  5851        0.2260
      6  N6         3.0910    3.1620   11.5890 N.2     1  5851       -0.3240
      7  C7         2.7120   -0.5290   15.6230 C.1     1  5851        0.1711
      8  O8         0.1510    3.2330    9.4820 O.2     1  5851       -0.4556
      9  C9        -0.0440    4.6500    9.4320 C.3     1  5851        0.2360
     10  N10        4.0310    1.5900   13.0240 N.pl3   1  5851       -0.1536
     11  C11        5.0510    0.6010   14.9350 C.2     1  5851        0.2064
     12  C12       -2.3270   -0.4880   14.3850 C.ar    1  5851        0.2061
     13  C13        1.0940    2.8040   10.3670 C.2     1  5851        0.2220
     14  C14        3.0060    1.9600   12.1470 C.2     1  5851        0.1993
     15  C15       -2.0030   -1.6810   15.0590 C.ar    1  5851        0.1768
     16  C16       -1.3660    0.5310   14.2540 C.ar    1  5851        0.1768
     17  N17        3.7790   -0.7230   16.3820 N.2     1  5851       -0.1659
     18  C18        0.2540   -0.8560   15.4420 C.ar    1  5851        0.0888
     19  C19       -0.7180   -1.8510   15.5750 C.ar    1  5851        0.0576
     20  C20       -0.0750    0.3440   14.7850 C.ar    1  5851        0.0576
     21  N21        1.5190   -1.1250   16.0040 N.pl3   1  5851       -0.1355
     22  C22        4.9520   -0.1760   16.0800 C.2     1  5851        0.1454
     23  O23        1.3490    6.5430    9.0750 O.2     1  5851       -0.2100
     24  C24        0.9710    1.5310   10.9260 C.2     1  5851        0.0325
     25  F25        6.2000    1.2050   14.5850 F       1  5851       -0.1983
     26  C26        1.9440    1.1070   11.8240 C.3     1  5851        0.1076
     27  O27       -3.5940   -0.2900   13.8970 O.3     1  5851       -0.4654
     28  O28       -1.7420    1.6720   13.5910 O.3     1  5851       -0.4682
     29  O29       -2.9520   -2.6650   15.1940 O.3     1  5851       -0.4682
     30  C30       -1.0060    5.0790   10.5480 C.3     1  5851        0.0622
     31  C31       -0.6990    4.9680    8.0800 C.3     1  5851        0.0622
     32  C32       -3.7820   -0.8050   12.5770 C.3     1  5851        0.2528
     33  C33       -0.7190    2.6820   13.6160 C.3     1  5851        0.2526
     34  C34       -2.4020   -3.8060   15.8710 C.3     1  5851        0.2526
@<TRIPOS>BOND
     1    31     9    1
     2    23     5    2
     3     9     8    1
     4     9     5    1
     5     9    30    1
     6     8    13    1
     7     5     1    2
     8     1     3    2
     9    13     3    1
    10    13    24    2
    11     3     6    2
    12    24    26    1
    13     6    14    2
    14    26    14    1
    15    14    10    1
    16    32    27    1
    17    10     4    1
    18    28    33    1
    19    28    16    1
    20    27    12    1
    21     4     2    2
    22     4    11    1
    23    16    12   ar
    24    16    20   ar
    25    12    15   ar
    26     2     7    2
    27    25    11    1
    28    20    18   ar
    29    11    22    2
    30    15    29    1
    31    15    19   ar
    32    29    34    1
    33    18    19   ar
    34    18    21    1
    35     7    21    1
    36     7    17    2
    37    22    17    1
