@<TRIPOS>MOLECULE
3fqv_11F_A_1.pdb
 27 29 0 0 0
SMALL
GASTEIGER

@<TRIPOS>ATOM
      1  C1K      -32.5980  -12.8190   48.3250 C.ar  219  11F219      0.0001
      2  C1I      -33.3470  -12.8670   49.5010 C.ar  219  11F219      0.0000
      3  C1H      -34.0920  -14.0060   49.8110 C.ar  219  11F219      0.0000
      4  C1J      -34.0840  -15.1020   48.9490 C.ar  219  11F219      0.0000
      5  C1L      -33.3350  -15.0510   47.7730 C.ar  219  11F219      0.0001
      6  C1V      -32.5880  -13.9110   47.4570 C.ar  219  11F219      0.0029
      7  C1Z      -31.8530  -13.8930   46.2710 C.ar  219  11F219      0.0340
      8  C1Y      -32.1510  -12.9900   45.2380 C.ar  219  11F219      0.1384
      9  C1O      -31.3900  -13.0100   44.0600 C.ar  219  11F219      0.0336
     10  O1R      -33.1620  -12.0810   45.3940 O.3   219  11F219     -0.4714
     11  C1A      -33.6500  -11.4900   44.1680 C.3   219  11F219      0.2525
     12  C1N      -30.8150  -14.8120   46.1090 C.ar  219  11F219      0.0027
     13  C1M      -30.0750  -14.8240   44.9300 C.ar  219  11F219     -0.0031
     14  C1W      -30.3470  -13.9200   43.9030 C.ar  219  11F219     -0.0074
     15  C2A      -29.5340  -13.9520   42.5900 C.3   219  11F219      0.0864
     16  C1C      -28.3230  -14.8530   42.7270 C.3   219  11F219      0.0187
     17  C1G      -29.0480  -12.6400   42.1620 C.1   219  11F219     -0.0868
     18  C1F      -28.6090  -11.5820   41.7700 C.1   219  11F219     -0.0761
     19  C5       -28.0790  -10.3420   41.2950 C.3   219  11F219      0.1831
     20  C6       -28.5460   -9.1340   41.8020 C.2   219  11F219      0.1207
     21  C1B      -29.6270   -9.1000   42.8780 C.3   219  11F219      0.0641
     22  N1       -28.0310   -7.9840   41.3420 N.2   219  11F219     -0.3332
     23  C2       -27.0790   -7.9800   40.3940 C.1   219  11F219      0.2419
     24  N1D      -26.5950   -6.8220   39.9520 N.pl3 219  11F219     -0.0232
     25  N3       -26.6190   -9.1340   39.8830 N.2   219  11F219     -0.3105
     26  C4       -27.0910  -10.3160   40.3100 C.2   219  11F219      0.2282
     27  N1E      -26.6070  -11.4420   39.7890 N.pl3 219  11F219     -0.0955
@<TRIPOS>BOND
     1    27    26    1
     2    25    26    2
     3    25    23    2
     4    24    23    1
     5    26    19    1
     6    23    22    2
     7    19    18    1
     8    19    20    1
     9    22    20    2
    10    18    17    3
    11    20    21    1
    12    17    15    1
    13    15    16    1
    14    15    14    1
    15    14     9   ar
    16    14    13   ar
    17     9     8   ar
    18    11    10    1
    19    13    12   ar
    20     8    10    1
    21     8     7   ar
    22    12     7   ar
    23     7     6    1
    24     6     5   ar
    25     6     1   ar
    26     5     4   ar
    27     1     2   ar
    28     4     3   ar
    29     2     3   ar
