@<TRIPOS>MOLECULE
3fqv_NAP_A_1.pdb
 48 52 0 0 0
SMALL
GASTEIGER

@<TRIPOS>ATOM
      1  PA       -23.7230  -21.6530   42.6800 P.3   207  NAP207      0.2189
      2  O1A      -22.5340  -21.1620   41.9530 O.2   207  NAP207     -0.5170
      3  O2A      -24.9370  -20.8760   42.3580 O.3   207  NAP207     -0.4371
      4  O5B      -23.9770  -23.2100   42.3620 O.3   207  NAP207     -0.3112
      5  C5B      -22.9120  -24.1210   42.1970 C.3   207  NAP207      0.1813
      6  C4B      -23.4340  -25.2720   41.3540 C.3   207  NAP207      0.1820
      7  O4B      -23.3880  -24.9580   39.9730 O.3   207  NAP207     -0.3136
      8  C3B      -22.6300  -26.5520   41.4920 C.3   207  NAP207      0.2157
      9  O3B      -22.9760  -27.2780   42.6510 O.3   207  NAP207     -0.2175
     10  C2B      -22.9940  -27.2700   40.2080 C.3   207  NAP207      0.2314
     11  O2B      -24.2590  -27.8780   40.3120 O.3   207  NAP207     -0.2630
     12  C1B      -23.1570  -26.1330   39.2150 C.3   207  NAP207      0.3158
     13  N9A      -21.9630  -26.0090   38.3500 N.pl3 207  NAP207     -0.1439
     14  C8A      -20.9910  -25.0430   38.4320 C.3   207  NAP207      0.3377
     15  N7A      -20.0710  -25.2710   37.4670 N.2   207  NAP207     -0.2095
     16  C5A      -20.4380  -26.3680   36.7660 C.2   207  NAP207      0.2526
     17  C6A      -19.8700  -27.0280   35.6780 C.2   207  NAP207      0.4393
     18  N6A      -18.7320  -26.5960   35.1430 N.pl3 207  NAP207      0.2180
     19  N1A      -20.4870  -28.1520   35.1580 N.2   207  NAP207      0.0021
     20  C2A      -21.6670  -28.6110   35.7140 C.3   207  NAP207      0.5254
     21  N3A      -22.2310  -27.9450   36.7860 N.2   207  NAP207     -0.0055
     22  C4A      -21.6290  -26.8410   37.3080 C.2   207  NAP207      0.3518
     23  O3       -23.4660  -21.6320   44.2690 O.3   207  NAP207     -0.2703
     24  PN       -22.7530  -20.5580   45.2280 P.3   207  NAP207      0.2189
     25  O1N      -22.8920  -21.0380   46.6220 O.3   207  NAP207     -0.4371
     26  O2N      -21.4160  -20.2970   44.6560 O.2   207  NAP207     -0.5170
     27  O5D      -23.6570  -19.2340   45.0610 O.3   207  NAP207     -0.3112
     28  C5D      -24.8700  -19.0490   45.7580 C.3   207  NAP207      0.1813
     29  C4D      -24.8040  -17.7580   46.5800 C.3   207  NAP207      0.1799
     30  O4D      -24.4620  -16.6490   45.7620 O.3   207  NAP207     -0.3327
     31  C3D      -26.1430  -17.4330   47.2260 C.3   207  NAP207      0.2158
     32  O3D      -25.9100  -16.9610   48.5340 O.3   207  NAP207     -0.2175
     33  C2D      -26.6970  -16.3000   46.3870 C.3   207  NAP207      0.2309
     34  O2D      -27.4890  -15.4140   47.1420 O.3   207  NAP207     -0.2158
     35  C1D      -25.4220  -15.6160   45.9280 C.3   207  NAP207      0.2263
     36  N1N      -25.6020  -14.8090   44.7040 N.pl3 207  NAP207     -0.2787
     37  C2N      -25.5540  -13.4500   44.8380 C.3   207  NAP207      0.1244
     38  C3N      -25.6980  -12.6130   43.7380 C.2   207  NAP207      0.0544
     39  C7N      -25.2720  -11.1760   43.8570 C.2   207  NAP207      0.2818
     40  O7N      -24.9970  -10.4590   42.6860 O.2   207  NAP207     -0.2670
     41  N7N      -25.1610  -10.6130   45.0640 N.am  207  NAP207     -0.0839
     42  C4N      -25.9010  -13.1850   42.4820 C.2   207  NAP207      0.0033
     43  C5N      -25.9540  -14.5740   42.3530 C.2   207  NAP207      0.0157
     44  C6N      -25.7990  -15.3810   43.4740 C.2   207  NAP207      0.0633
     45  P2B      -24.4160  -29.4510   40.6160 P.3   207  NAP207      0.5328
     46  O1X      -23.9230  -29.7110   42.0170 O.3   207  NAP207     -0.1145
     47  O2X      -25.8660  -29.8450   40.5010 O.3   207  NAP207     -0.1145
     48  O3X      -23.5760  -30.2090   39.6280 O.2   207  NAP207     -0.2224
@<TRIPOS>BOND
     1    18    17    1
     2    19    17    2
     3    19    20    1
     4    17    16    1
     5    20    21    1
     6    16    22    1
     7    16    15    2
     8    21    22    2
     9    22    13    1
    10    15    14    1
    11    13    14    1
    12    13    12    1
    13    12     7    1
    14    12    10    1
    15    48    45    2
    16     7     6    1
    17    10    11    1
    18    10     8    1
    19    11    45    1
    20    47    45    1
    21    45    46    1
    22     6     8    1
    23     6     5    1
    24     8     9    1
    25     2     1    2
    26     5     4    1
    27    43    42    1
    28    43    44    2
    29     3     1    1
    30     4     1    1
    31    42    38    2
    32     1    23    1
    33    40    39    2
    34    44    36    1
    35    38    39    1
    36    38    37    1
    37    39    41   am
    38    23    24    1
    39    26    24    2
    40    36    37    1
    41    36    35    1
    42    27    24    1
    43    27    28    1
    44    24    25    1
    45    28    29    1
    46    30    35    1
    47    30    29    1
    48    35    33    1
    49    33    34    1
    50    33    31    1
    51    29    31    1
    52    31    32    1
