@<TRIPOS>MOLECULE
3fqz_11F_A_1.pdb
 27 29 0 0 0
SMALL
GASTEIGER

@<TRIPOS>ATOM
      1  C1K      -34.7730  -11.1450   45.8270 C.ar  219  11F219      0.0001
      2  C1I      -35.9580  -10.8200   46.4930 C.ar  219  11F219      0.0000
      3  C1H      -36.9320  -11.7980   46.6930 C.ar  219  11F219      0.0000
      4  C1J      -36.7250  -13.1000   46.2330 C.ar  219  11F219      0.0000
      5  C1L      -35.5420  -13.4260   45.5680 C.ar  219  11F219      0.0001
      6  C1V      -34.5630  -12.4480   45.3660 C.ar  219  11F219      0.0029
      7  C1Z      -33.3820  -12.7740   44.6960 C.ar  219  11F219      0.0340
      8  C1Y      -33.1980  -12.4040   43.3570 C.ar  219  11F219      0.1384
      9  C1O      -32.0090  -12.7310   42.7010 C.ar  219  11F219      0.0336
     10  O1R      -34.1650  -11.7100   42.6830 O.3   219  11F219     -0.4714
     11  C1A      -35.0670  -12.5930   41.9800 C.3   219  11F219      0.2525
     12  C1N      -32.3820  -13.4760   45.3670 C.ar  219  11F219      0.0027
     13  C1M      -31.1980  -13.8050   44.7090 C.ar  219  11F219     -0.0031
     14  C1W      -31.0070  -13.4320   43.3730 C.ar  219  11F219     -0.0074
     15  C2A      -29.7160  -13.8000   42.6280 C.3   219  11F219      0.0864
     16  C1C      -28.7550  -14.5130   43.5650 C.3   219  11F219      0.0187
     17  C1G      -29.0800  -12.5850   42.1130 C.1   219  11F219     -0.0868
     18  C1F      -28.5830  -11.5630   41.7100 C.1   219  11F219     -0.0761
     19  C5       -28.0330  -10.3190   41.2700 C.3   219  11F219      0.1831
     20  C6       -28.5040   -9.1230   41.8070 C.2   219  11F219      0.1207
     21  C1B      -29.6080   -9.1110   42.8670 C.3   219  11F219      0.0641
     22  N1       -27.9760   -7.9640   41.3890 N.2   219  11F219     -0.3332
     23  C2       -27.0070   -7.9400   40.4600 C.1   219  11F219      0.2419
     24  N1D      -26.5130   -6.7690   40.0630 N.pl3 219  11F219     -0.0232
     25  N3       -26.5430   -9.0810   39.9220 N.2   219  11F219     -0.3105
     26  C4       -27.0270  -10.2730   40.3060 C.2   219  11F219      0.2282
     27  N1E      -26.5430  -11.3900   39.7720 N.pl3 219  11F219     -0.0955
@<TRIPOS>BOND
     1    27    26    1
     2    25    26    2
     3    25    23    2
     4    24    23    1
     5    26    19    1
     6    23    22    2
     7    19    18    1
     8    19    20    1
     9    22    20    2
    10    18    17    3
    11    20    21    1
    12    11    10    1
    13    17    15    1
    14    15    14    1
    15    15    16    1
    16    10     8    1
    17     9     8   ar
    18     9    14   ar
    19     8     7   ar
    20    14    13   ar
    21     7     6    1
    22     7    12   ar
    23    13    12   ar
    24     6     5   ar
    25     6     1   ar
    26     5     4   ar
    27     1     2   ar
    28     4     3   ar
    29     2     3   ar
