@<TRIPOS>MOLECULE
3fqz_NAP_A_1.pdb
 48 52 0 0 0
SMALL
GASTEIGER

@<TRIPOS>ATOM
      1  PA       -23.6430  -21.6590   42.7640 P.3   207  NAP207      0.2189
      2  O1A      -22.4560  -21.1390   42.0510 O.2   207  NAP207     -0.5170
      3  O2A      -24.8550  -20.8640   42.4820 O.3   207  NAP207     -0.4371
      4  O5B      -23.9100  -23.1930   42.3710 O.3   207  NAP207     -0.3112
      5  C5B      -22.8500  -24.1070   42.2010 C.3   207  NAP207      0.1813
      6  C4B      -23.4190  -25.2530   41.3840 C.3   207  NAP207      0.1820
      7  O4B      -23.2980  -24.9990   39.9980 O.3   207  NAP207     -0.3136
      8  C3B      -22.7110  -26.5700   41.6310 C.3   207  NAP207      0.2157
      9  O3B      -23.2470  -27.2170   42.7640 O.3   207  NAP207     -0.2175
     10  C2B      -22.9810  -27.3160   40.3410 C.3   207  NAP207      0.2314
     11  O2B      -24.2280  -27.9630   40.4080 O.3   207  NAP207     -0.2630
     12  C1B      -23.1150  -26.2150   39.3010 C.3   207  NAP207      0.3158
     13  N9A      -21.9240  -26.1500   38.4320 N.pl3 207  NAP207     -0.1439
     14  C8A      -20.8960  -25.2440   38.5170 C.3   207  NAP207      0.3377
     15  N7A      -20.0020  -25.5130   37.5380 N.2   207  NAP207     -0.2095
     16  C5A      -20.4440  -26.5750   36.8280 C.2   207  NAP207      0.2526
     17  C6A      -19.9280  -27.2550   35.7290 C.2   207  NAP207      0.4393
     18  N6A      -18.7720  -26.8780   35.1930 N.pl3 207  NAP207      0.2180
     19  N1A      -20.6210  -28.3320   35.2000 N.2   207  NAP207      0.0021
     20  C2A      -21.8220  -28.7260   35.7610 C.3   207  NAP207      0.5254
     21  N3A      -22.3310  -28.0430   36.8500 N.2   207  NAP207     -0.0055
     22  C4A      -21.6550  -26.9850   37.3760 C.2   207  NAP207      0.3518
     23  O3       -23.3810  -21.7420   44.3490 O.3   207  NAP207     -0.2703
     24  PN       -22.5200  -20.8440   45.3640 P.3   207  NAP207      0.2189
     25  O1N      -22.7600  -21.3580   46.7310 O.3   207  NAP207     -0.4371
     26  O2N      -21.1380  -20.7550   44.8390 O.2   207  NAP207     -0.5170
     27  O5D      -23.2080  -19.3850   45.2420 O.3   207  NAP207     -0.3112
     28  C5D      -24.5290  -19.1260   45.6810 C.3   207  NAP207      0.1813
     29  C4D      -24.6200  -17.7210   46.2870 C.3   207  NAP207      0.1799
     30  O4D      -24.6380  -16.7030   45.2900 O.3   207  NAP207     -0.3327
     31  C3D      -25.8680  -17.5220   47.1460 C.3   207  NAP207      0.2158
     32  O3D      -25.4940  -17.0480   48.4170 O.3   207  NAP207     -0.2175
     33  C2D      -26.6420  -16.4380   46.4260 C.3   207  NAP207      0.2309
     34  O2D      -27.3490  -15.5800   47.2910 O.3   207  NAP207     -0.2158
     35  C1D      -25.5160  -15.6870   45.7430 C.3   207  NAP207      0.2263
     36  N1N      -26.0450  -14.7220   44.7520 N.pl3 207  NAP207     -0.2787
     37  C2N      -25.8750  -13.3990   45.0460 C.3   207  NAP207      0.1244
     38  C3N      -26.3290  -12.3900   44.2050 C.2   207  NAP207      0.0544
     39  C7N      -25.5280  -11.1150   44.1830 C.2   207  NAP207      0.2818
     40  O7N      -25.0780  -10.6150   42.9520 O.2   207  NAP207     -0.2670
     41  N7N      -25.2600  -10.4870   45.3350 N.am  207  NAP207     -0.0839
     42  C4N      -27.0230  -12.7640   43.0520 C.2   207  NAP207      0.0033
     43  C5N      -27.2110  -14.1170   42.7570 C.2   207  NAP207      0.0157
     44  C6N      -26.7180  -15.0940   43.6200 C.2   207  NAP207      0.0633
     45  P2B      -24.3390  -29.5450   40.6800 P.3   207  NAP207      0.5328
     46  O1X      -23.7990  -29.8360   42.0570 O.3   207  NAP207     -0.1145
     47  O2X      -25.7860  -29.9620   40.5940 O.3   207  NAP207     -0.1145
     48  O3X      -23.5240  -30.2610   39.6390 O.2   207  NAP207     -0.2224
@<TRIPOS>BOND
     1    18    17    1
     2    19    17    2
     3    19    20    1
     4    17    16    1
     5    20    21    1
     6    16    22    1
     7    16    15    2
     8    21    22    2
     9    22    13    1
    10    15    14    1
    11    13    14    1
    12    13    12    1
    13    12     7    1
    14    12    10    1
    15    48    45    2
    16     7     6    1
    17    10    11    1
    18    10     8    1
    19    11    45    1
    20    47    45    1
    21    45    46    1
    22     6     8    1
    23     6     5    1
    24     8     9    1
    25     2     1    2
    26     5     4    1
    27     4     1    1
    28     3     1    1
    29    43    42    1
    30    43    44    2
    31     1    23    1
    32    40    39    2
    33    42    38    2
    34    44    36    1
    35    39    38    1
    36    39    41   am
    37    38    37    1
    38    23    24    1
    39    36    37    1
    40    36    35    1
    41    26    24    2
    42    27    24    1
    43    27    28    1
    44    30    35    1
    45    30    29    1
    46    24    25    1
    47    28    29    1
    48    35    33    1
    49    29    31    1
    50    33    31    1
    51    33    34    1
    52    31    32    1
