@<TRIPOS>MOLECULE
3fr0_GLC_A_1.pdb
 12 12 0 0 0
SMALL
GASTEIGER

@<TRIPOS>ATOM
      1  C1        23.4540    2.5830   65.9190 C.3   500  GLC500      0.3024
      2  C2        23.3970    3.9380   65.1180 C.3   500  GLC500      0.2434
      3  C3        24.8280    4.4620   64.9190 C.3   500  GLC500      0.2199
      4  C4        25.4270    4.7130   66.2790 C.3   500  GLC500      0.2144
      5  C5        25.4590    3.3670   67.0910 C.3   500  GLC500      0.1836
      6  C6        26.0210    3.5640   68.4660 C.3   500  GLC500      0.2142
      7  O1        24.1580    1.5990   65.2640 O.3   500  GLC500     -0.1869
      8  O2        22.7770    3.6800   63.8710 O.3   500  GLC500     -0.2148
      9  O3        24.7900    5.6710   64.1880 O.3   500  GLC500     -0.2174
     10  O4        26.7800    5.1480   66.1900 O.3   500  GLC500     -0.2176
     11  O5        24.0910    2.8620   67.2010 O.3   500  GLC500     -0.3236
     12  O6        25.3010    4.5010   69.3240 O.3   500  GLC500     -0.2176
@<TRIPOS>BOND
     1     8     2    1
     2     9     3    1
     3     3     2    1
     4     3     4    1
     5     2     1    1
     6     7     1    1
     7     1    11    1
     8    10     4    1
     9     4     5    1
    10     5    11    1
    11     5     6    1
    12     6    12    1
