@<TRIPOS>MOLECULE
3fr0_AJB_A_1.pdb
 23 25 0 0 0
SMALL
GASTEIGER

@<TRIPOS>ATOM
      1  C4        41.0350   16.0210   64.6390 C.ar  501  AJB501      0.0187
      2  C5        39.6260   15.7020   62.2470 C.ar  501  AJB501      0.0125
      3  C6        35.7760   20.0650   59.7670 C.3   501  AJB501      0.1202
      4  C7        44.2660   11.9360   62.0330 C.ar  501  AJB501      0.2031
      5  C8        36.5390   19.5590   58.7390 C.2   501  AJB501      0.1007
      6  C10       40.1050   17.0030   64.2540 C.ar  501  AJB501      0.0935
      7  C13       42.4110   12.9830   61.6400 C.ar  501  AJB501      0.1974
      8  C1        36.2780   19.7340   57.3050 C.3   501  AJB501      0.0625
      9  C2        42.2310   10.8640   62.9820 C.3   501  AJB501      0.1341
     10  C3        41.2580   14.8830   63.8320 C.ar  501  AJB501      0.0080
     11  C9        40.5390   14.7150   62.6330 C.ar  501  AJB501      0.0325
     12  C11       39.4140   16.8200   63.0470 C.ar  501  AJB501      0.0727
     13  C12       37.6920   18.7990   60.4710 C.2   501  AJB501      0.2328
     14  C14       38.4480   17.8270   62.5870 C.2   501  AJB501      0.2728
     15  N15       39.8670   18.1190   65.0650 N.pl3 501  AJB501     -0.1279
     16  N16       44.5520   13.0310   61.3350 N.ar  501  AJB501     -0.1250
     17  N17       37.6500   18.8230   59.1470 N.2   501  AJB501     -0.3867
     18  N18       43.3580   13.7030   61.0870 N.ar  501  AJB501     -0.1217
     19  N19       38.6660   18.1700   61.2500 N.am  501  AJB501     -0.1399
     20  N20       42.9400   11.8930   62.2500 N.ar  501  AJB501     -0.2857
     21  O21       37.5970   18.2470   63.3640 O.2   501  AJB501     -0.2679
     22  S22       36.4280   19.6340   61.2750 S.3   501  AJB501     -0.0580
     23  S23       40.7030   13.2730   61.6030 S.3   501  AJB501     -0.0487
@<TRIPOS>BOND
     1     8     5    1
     2     5    17    2
     3     5     3    1
     4    17    13    2
     5     3    22    1
     6    13    19    1
     7    13    22    1
     8    18    16   ar
     9    18     7   ar
    10    19    14   am
    11    16     4   ar
    12    23     7    1
    13    23    11    1
    14     7    20   ar
    15     4    20   ar
    16     2    11   ar
    17     2    12   ar
    18    20     9    1
    19    14    12    1
    20    14    21    2
    21    11    10   ar
    22    12     6   ar
    23    10     1   ar
    24     6     1   ar
    25     6    15    1
