@<TRIPOS>MOLECULE
3fr2_8CA_A_1.pdb
 23 26 0 0 0
SMALL
GASTEIGER

@<TRIPOS>ATOM
      1  O1        17.6020    5.1640    1.0550 O.co2 501  8CA501     -0.2405
      2  C7        18.0400    6.0880    1.7230 C.2   501  8CA501      0.3891
      3  O2        17.4000    7.2540    1.6380 O.co2 501  8CA501     -0.2405
      4  C1        19.1460    5.8400    2.7000 C.ar  501  8CA501      0.0955
      5  C2        18.8430    6.0320    4.0380 C.ar  501  8CA501      0.0080
      6  C3        19.7700    5.8230    5.0530 C.ar  501  8CA501      0.0003
      7  C4        21.0780    5.4000    4.8290 C.ar  501  8CA501      0.0012
      8  C5        21.4790    5.1670    3.5260 C.ar  501  8CA501      0.0131
      9  C8        22.7360    4.7430    2.8940 C.ar  501  8CA501     -0.0091
     10  C13       24.0410    4.3600    3.5350 C.3   501  8CA501      0.0275
     11  C12       25.1090    4.1730    2.4650 C.3   501  8CA501      0.0051
     12  C11       24.6450    3.6030    1.1230 C.3   501  8CA501      0.0066
     13  C10       23.4830    4.3450    0.4410 C.3   501  8CA501      0.0435
     14  C9        22.4230    4.7350    1.4440 C.ar  501  8CA501      0.0334
     15  N1        21.1190    5.1000    1.2200 N.ar  501  8CA501     -0.3266
     16  C6        20.5320    5.3720    2.4010 C.ar  501  8CA501      0.0660
     17  C20       20.5110    5.2600   -0.1000 C.3   501  8CA501      0.1324
     18  C19       20.1900    4.0500   -0.9260 C.ar  501  8CA501      0.0004
     19  C18       20.2980    2.7770   -0.4000 C.ar  501  8CA501     -0.0024
     20  C17       19.9970    1.6790   -1.2080 C.ar  501  8CA501     -0.0003
     21  C16       19.5660    1.8730   -2.5200 C.ar  501  8CA501     -0.0000
     22  C15       19.4610    3.1610   -3.0410 C.ar  501  8CA501     -0.0003
     23  C14       19.7700    4.2570   -2.2390 C.ar  501  8CA501     -0.0024
@<TRIPOS>BOND
     1    22    21   ar
     2    22    23   ar
     3    21    20   ar
     4    23    18   ar
     5    20    19   ar
     6    18    19   ar
     7    18    17    1
     8    17    15    1
     9    13    12    1
    10    13    14    1
    11     1     2   ar
    12    12    11    1
    13    15    14   ar
    14    15    16   ar
    15    14     9   ar
    16     3     2   ar
    17     2     4    1
    18    16     4   ar
    19    16     8   ar
    20    11    10    1
    21     4     5   ar
    22     9     8   ar
    23     9    10    1
    24     8     7   ar
    25     5     6   ar
    26     7     6   ar
