@<TRIPOS>MOLECULE
3fr3_GDS_A_1.pdb
 40 39 0 0 0
SMALL
GASTEIGER

@<TRIPOS>ATOM
      1  N1        -0.4340    6.6770   -5.5570 N.3   400  GDS400     -0.1208
      2  CA1        0.1210    8.0150   -5.6700 C.3   400  GDS400      0.1948
      3  C1         1.3580    8.0500   -6.5740 C.2   400  GDS400      0.3819
      4  OE1        2.1290    7.0770   -6.6470 O.co2 400  GDS400     -0.2441
      5  OE2        1.6350    9.0790   -7.2360 O.co2 400  GDS400     -0.2441
      6  CB1        0.4270    8.4520   -4.2400 C.3   400  GDS400      0.0402
      7  CG1        1.1660    9.7760   -4.2070 C.3   400  GDS400      0.0889
      8  CD1        1.3950   10.2030   -2.7630 C.2   400  GDS400      0.2418
      9  O1         1.1810    9.4510   -1.8290 O.2   400  GDS400     -0.2733
     10  N2         1.8960   11.4400   -2.5850 N.am  400  GDS400     -0.1968
     11  CA2        2.1100   11.9980   -1.2800 C.3   400  GDS400      0.1843
     12  C2         1.2040   13.1770   -1.2440 C.2   400  GDS400      0.2627
     13  O2         1.1680   13.9600   -2.1530 O.2   400  GDS400     -0.2714
     14  CB2        3.5110   12.5280   -1.0400 C.3   400  GDS400      0.0997
     15  SG2        4.7790   11.3420   -1.2670 S.3   400  GDS400     -0.0797
     16  N3         0.4860   13.3090   -0.1570 N.am  400  GDS400     -0.1917
     17  CA3       -0.0790   14.6060    0.1950 C.3   400  GDS400      0.2285
     18  C3        -1.2740   14.4290    1.0630 C.2   400  GDS400      0.3865
     19  OE3       -1.8710   15.4330    1.5110 O.co2 400  GDS400     -0.2437
     20  OE4       -1.5980   13.2480    1.2990 O.co2 400  GDS400     -0.2437
     21  N4         9.3260   13.4110    2.0150 N.am  400  GDS400     -0.1917
     22  CA4       10.0720   14.6540    2.2070 C.3   400  GDS400      0.2285
     23  C4        10.4250   14.9970    3.6320 C.2   400  GDS400      0.3865
     24  OE5       11.1830   15.9810    3.8190 O.co2 400  GDS400     -0.2437
     25  OE6        9.9540   14.3140    4.5720 O.co2 400  GDS400     -0.2437
     26  C5         8.0210   13.4260    1.7010 C.2   400  GDS400      0.2627
     27  O5         7.3270   14.4410    1.8110 O.2   400  GDS400     -0.2714
     28  CA5        7.3730   12.1650    1.1810 C.3   400  GDS400      0.1843
     29  N5         8.0960   10.9050    1.4410 N.am  400  GDS400     -0.1968
     30  CB5        5.8780   12.1750    1.6060 C.3   400  GDS400      0.0997
     31  SG5        4.8830   10.9660    0.7330 S.3   400  GDS400     -0.0797
     32  CA6       12.3250    8.9640   -0.1360 C.3   400  GDS400      0.1948
     33  C6        13.7140    9.3240    0.3340 C.2   400  GDS400      0.3819
     34  OE7       14.3320    8.4090    0.9630 O.co2 400  GDS400     -0.2441
     35  OE8       14.2470   10.4450    0.0560 O.co2 400  GDS400     -0.2441
     36  N6        12.5400    7.6010   -0.5920 N.3   400  GDS400     -0.1208
     37  CB6       11.2340    9.2170    0.9580 C.3   400  GDS400      0.0402
     38  CG6        9.6870    9.0260    0.8210 C.3   400  GDS400      0.0889
     39  CD6        8.8310   10.2550    0.4890 C.2   400  GDS400      0.2418
     40  O6         8.8330   10.6280   -0.6710 O.2   400  GDS400     -0.2733
@<TRIPOS>BOND
     1     5     3   ar
     2     4     3   ar
     3     3     2    1
     4     2     1    1
     5     2     6    1
     6     6     7    1
     7     7     8    1
     8     8    10   am
     9     8     9    2
    10    10    11    1
    11    13    12    2
    12    11    12    1
    13    11    14    1
    14    15    14    1
    15    15    31    1
    16    12    16   am
    17    40    39    2
    18    36    32    1
    19    16    17    1
    20    32    33    1
    21    32    37    1
    22    35    33   ar
    23    17    18    1
    24    33    34   ar
    25    39    38    1
    26    39    29   am
    27    31    30    1
    28    38    37    1
    29    18    20   ar
    30    18    19   ar
    31    28    29    1
    32    28    30    1
    33    28    26    1
    34    26    27    2
    35    26    21   am
    36    21    22    1
    37    22    23    1
    38    23    24   ar
    39    23    25   ar
