@<TRIPOS>MOLECULE
3fr4_F8A_A_1.pdb
 27 30 0 0 0
SMALL
GASTEIGER

@<TRIPOS>ATOM
      1  F27       20.3950    4.6200   -4.4170 F     501  F8A501     -0.1659
      2  C24       20.7030    4.9190   -3.1670 C.3   501  F8A501      0.4183
      3  F25       21.9640    5.2030   -3.0900 F     501  F8A501     -0.1659
      4  F26       19.9950    5.9550   -2.7770 F     501  F8A501     -0.1659
      5  C19       20.4010    3.7500   -2.2880 C.ar  501  F8A501      0.0693
      6  C20       19.9760    2.5550   -2.8580 C.ar  501  F8A501      0.0036
      7  C21       19.6820    1.4850   -2.0170 C.ar  501  F8A501     -0.0001
      8  C22       19.7740    1.5780   -0.6120 C.ar  501  F8A501     -0.0003
      9  C23       20.1640    2.7710    0.0000 C.ar  501  F8A501     -0.0024
     10  C18       20.4800    3.8660   -0.8070 C.ar  501  F8A501      0.0043
     11  C17       20.9260    5.1790   -0.2250 C.3   501  F8A501      0.1323
     12  N9        21.4570    5.0260    1.1210 N.ar  501  F8A501     -0.3266
     13  C8        22.7140    4.5740    1.3980 C.ar  501  F8A501      0.0334
     14  C16       23.8180    4.1210    0.4600 C.3   501  F8A501      0.0435
     15  C15       24.8850    3.4450    1.3050 C.3   501  F8A501      0.0066
     16  C14       25.2600    4.3070    2.5090 C.3   501  F8A501      0.0051
     17  C13       24.1770    4.1370    3.5630 C.3   501  F8A501      0.0275
     18  C7        22.9100    4.5650    2.8620 C.ar  501  F8A501     -0.0091
     19  C1        20.7670    5.3270    2.2600 C.ar  501  F8A501      0.0660
     20  C6        21.6440    5.0790    3.4170 C.ar  501  F8A501      0.0131
     21  C5        21.1880    5.3230    4.7020 C.ar  501  F8A501      0.0012
     22  C4        19.8870    5.8090    4.8690 C.ar  501  F8A501      0.0003
     23  C3        19.0280    6.0820    3.8130 C.ar  501  F8A501      0.0080
     24  C2        19.3660    5.8490    2.4760 C.ar  501  F8A501      0.0955
     25  C10       18.2880    6.2340    1.4770 C.2   501  F8A501      0.3891
     26  O12       17.7130    7.3010    1.6220 O.co2 501  F8A501     -0.2405
     27  O11       17.8730    5.4740    0.4670 O.co2 501  F8A501     -0.2405
@<TRIPOS>BOND
     1     1     2    1
     2     2     3    1
     3     2     4    1
     4     2     5    1
     5     6     5   ar
     6     6     7   ar
     7     5    10   ar
     8     7     8   ar
     9    10    11    1
    10    10     9   ar
    11     8     9   ar
    12    11    12    1
    13    14    15    1
    14    14    13    1
    15    27    25   ar
    16    12    13   ar
    17    12    19   ar
    18    15    16    1
    19    13    18   ar
    20    25    26   ar
    21    25    24    1
    22    19    24   ar
    23    19    20   ar
    24    24    23   ar
    25    16    17    1
    26    18    20   ar
    27    18    17    1
    28    20    21   ar
    29    23    22   ar
    30    21    22   ar
