@<TRIPOS>MOLECULE
3fr5_I4A_A_1.pdb
 27 30 0 0 0
SMALL
GASTEIGER

@<TRIPOS>ATOM
      1  O27       16.9070    4.7650    2.8130 O.co2 132  I4A132     -0.2405
      2  C25       17.5870    5.7870    2.7560 C.2   132  I4A132      0.3891
      3  O26       17.2000    6.7600    1.9360 O.co2 132  I4A132     -0.2405
      4  C4        18.8160    5.9430    3.5890 C.ar  132  I4A132      0.0955
      5  C6        20.0840    5.2170    3.3170 C.ar  132  I4A132      0.0660
      6  C7        21.2260    5.4290    4.2370 C.ar  132  I4A132      0.0131
      7  C9        22.3000    4.5840    3.6710 C.ar  132  I4A132     -0.0091
      8  C10       23.7130    4.3500    4.1200 C.3   132  I4A132      0.0275
      9  C12       24.6820    4.6820    2.9900 C.3   132  I4A132      0.0047
     10  C14       24.8500    3.6190    1.9050 C.3   132  I4A132      0.0007
     11  C13       23.5870    3.6330    1.0130 C.3   132  I4A132      0.0062
     12  C11       22.3440    2.9480    1.5820 C.3   132  I4A132      0.0435
     13  C8        21.6590    3.9210    2.4900 C.ar  132  I4A132      0.0334
     14  C3        21.0790    6.2990    5.3200 C.ar  132  I4A132      0.0012
     15  C2        19.8700    6.9620    5.5400 C.ar  132  I4A132      0.0003
     16  C1        18.7760    6.7830    4.6900 C.ar  132  I4A132      0.0080
     17  N5        20.3970    4.3160    2.3490 N.ar  132  I4A132     -0.3266
     18  C15       19.5810    3.8280    1.2600 C.3   132  I4A132      0.1324
     19  C16       19.9060    4.4160   -0.0950 C.ar  132  I4A132      0.0005
     20  C17       19.6180    3.6300   -1.1970 C.ar  132  I4A132      0.0022
     21  C18       19.9060    4.0940   -2.4740 C.ar  132  I4A132      0.0564
     22  C22       19.6230    3.2120   -3.6530 C.2   132  I4A132      0.2842
     23  N24       20.2560    3.5060   -4.7760 N.am  132  I4A132     -0.0837
     24  O23       18.8790    2.2320   -3.5540 O.2   132  I4A132     -0.2667
     25  C19       20.4610    5.3610   -2.6760 C.ar  132  I4A132      0.0046
     26  C20       20.7220    6.1590   -1.5630 C.ar  132  I4A132     -0.0001
     27  C21       20.4640    5.6840   -0.2710 C.ar  132  I4A132     -0.0024
@<TRIPOS>BOND
     1    23    22   am
     2    22    24    2
     3    22    21    1
     4    25    21   ar
     5    25    26   ar
     6    21    20   ar
     7    26    27   ar
     8    20    19   ar
     9    27    19   ar
    10    19    18    1
    11    11    12    1
    12    11    10    1
    13    18    17    1
    14    12    13    1
    15    10     9    1
    16     3     2   ar
    17    17    13   ar
    18    17     5   ar
    19    13     7   ar
    20     2     1   ar
    21     2     4    1
    22     9     8    1
    23     5     4   ar
    24     5     6   ar
    25     4    16   ar
    26     7     8    1
    27     7     6   ar
    28     6    14   ar
    29    16    15   ar
    30    14    15   ar
