@<TRIPOS>MOLECULE
3fr8_NDP_A_1.pdb
 48 52 0 0 0
SMALL
GASTEIGER

@<TRIPOS>ATOM
      1  PA        21.2290   30.2260   63.1820 P.3   601  NDP601      0.2189
      2  O1A       19.8520   30.8080   63.4030 O.2   601  NDP601     -0.5170
      3  O2A       21.6020   28.9150   63.8370 O.3   601  NDP601     -0.4371
      4  O5B       22.3200   31.3510   63.5580 O.3   601  NDP601     -0.3112
      5  C5B       23.3880   31.0770   64.4620 C.3   601  NDP601      0.1813
      6  C4B       24.6920   31.6580   63.9260 C.3   601  NDP601      0.1820
      7  O4B       24.5430   33.0560   63.6370 O.3   601  NDP601     -0.3136
      8  C3B       25.7920   31.5230   64.9680 C.3   601  NDP601      0.2157
      9  O3B       26.9760   30.9880   64.3660 O.3   601  NDP601     -0.2175
     10  C2B       26.0410   32.9400   65.4480 C.3   601  NDP601      0.2314
     11  O2B       27.4120   33.1750   65.7680 O.3   601  NDP601     -0.2630
     12  C1B       25.5850   33.7980   64.2780 C.3   601  NDP601      0.3158
     13  N9A       25.1320   35.1390   64.7350 N.pl3 601  NDP601     -0.1439
     14  C8A       24.1880   35.3950   65.6550 C.3   601  NDP601      0.3377
     15  N7A       24.0640   36.7330   65.8020 N.2   601  NDP601     -0.2095
     16  C5A       24.9410   37.3180   64.9620 C.2   601  NDP601      0.2526
     17  C6A       25.2610   38.6420   64.6780 C.2   601  NDP601      0.4393
     18  N6A       24.6170   39.6480   65.3170 N.pl3 601  NDP601      0.2180
     19  N1A       26.2150   38.9150   63.7550 N.2   601  NDP601      0.0021
     20  C2A       26.8540   37.9200   63.1170 C.3   601  NDP601      0.5254
     21  N3A       26.5670   36.6340   63.3790 N.2   601  NDP601     -0.0055
     22  C4A       25.6110   36.3070   64.2900 C.2   601  NDP601      0.3518
     23  O3        21.4720   30.0770   61.5980 O.3   601  NDP601     -0.2703
     24  PN        20.5330   29.1420   60.6850 P.3   601  NDP601      0.2189
     25  O1N       21.4120   28.1890   59.9170 O.2   601  NDP601     -0.5170
     26  O2N       19.3990   28.6020   61.5220 O.3   601  NDP601     -0.4371
     27  O5D       19.9190   30.2130   59.6570 O.3   601  NDP601     -0.3112
     28  C5D       20.6150   30.6560   58.4930 C.3   601  NDP601      0.1813
     29  C4D       19.5890   31.0870   57.4480 C.3   601  NDP601      0.1799
     30  O4D       19.1150   29.9340   56.7410 O.3   601  NDP601     -0.3327
     31  C3D       18.3760   31.7480   58.0900 C.3   601  NDP601      0.2158
     32  O3D       18.0260   32.9170   57.3440 O.3   601  NDP601     -0.2175
     33  C2D       17.2730   30.7060   58.0160 C.3   601  NDP601      0.2309
     34  O2D       15.9940   31.3090   57.8080 O.3   601  NDP601     -0.2158
     35  C1D       17.6900   29.8200   56.8470 C.3   601  NDP601      0.2263
     36  N1N       17.2900   28.4120   56.9880 N.pl3 601  NDP601     -0.2787
     37  C2N       17.4490   27.7400   58.1460 C.3   601  NDP601      0.1244
     38  C3N       17.0630   26.4000   58.2520 C.2   601  NDP601      0.0544
     39  C7N       17.2330   25.6400   59.5410 C.2   601  NDP601      0.2818
     40  O7N       16.7480   24.5240   59.6520 O.2   601  NDP601     -0.2670
     41  N7N       17.9130   26.1930   60.5430 N.am  601  NDP601     -0.0839
     42  C4N       16.5150   25.7620   57.1400 C.2   601  NDP601      0.0033
     43  C5N       16.3650   26.4730   55.9540 C.2   601  NDP601      0.0157
     44  C6N       16.7670   27.8060   55.9080 C.2   601  NDP601      0.0633
     45  P2B       28.0600   32.6870   67.1630 P.3   601  NDP601      0.5328
     46  O1X       26.8990   32.3380   68.0670 O.3   601  NDP601     -0.1145
     47  O2X       28.8550   33.8870   67.6220 O.3   601  NDP601     -0.1145
     48  O3X       28.9010   31.5020   66.7500 O.2   601  NDP601     -0.2224
@<TRIPOS>BOND
     1    44    43    2
     2    44    36    1
     3    43    42    1
     4    30    35    1
     5    30    29    1
     6    35    36    1
     7    35    33    1
     8    36    37    1
     9    42    38    2
    10    32    31    1
    11    29    31    1
    12    29    28    1
    13    34    33    1
    14    33    31    1
    15    37    38    1
    16    38    39    1
    17    28    27    1
    18    39    40    2
    19    39    41   am
    20    27    24    1
    21    25    24    2
    22    24    26    1
    23    24    23    1
    24    23     1    1
    25    20    21    1
    26    20    19    1
    27     1     2    2
    28     1     4    1
    29     1     3    1
    30    21    22    2
    31     4     5    1
    32     7     6    1
    33     7    12    1
    34    19    17    2
    35     6     5    1
    36     6     8    1
    37    12    13    1
    38    12    10    1
    39    22    13    1
    40    22    16    1
    41     9     8    1
    42    17    16    1
    43    17    18    1
    44    13    14    1
    45    16    15    2
    46     8    10    1
    47    10    11    1
    48    14    15    1
    49    11    45    1
    50    48    45    2
    51    45    47    1
    52    45    46    1
