@<TRIPOS>MOLECULE
3fr9_GSH_A_1.pdb
 20 19 0 0 0
SMALL
GASTEIGER

@<TRIPOS>ATOM
      1  N1         2.6100   10.6560   20.9380 N.3   212  GSH212     -0.1208
      2  CA1        1.2290   10.4440   20.5610 C.3   212  GSH212      0.1948
      3  C1         1.0990   10.5230   19.0630 C.2   212  GSH212      0.3819
      4  O11        1.0850    9.4990   18.3430 O.co2 212  GSH212     -0.2441
      5  O12        0.9960   11.6400   18.5180 O.co2 212  GSH212     -0.2441
      6  CB1        0.7510    9.1020   21.1020 C.3   212  GSH212      0.0402
      7  CG1       -0.7690    9.0670   21.1270 C.3   212  GSH212      0.0889
      8  CD1       -1.2660    8.2990   22.3220 C.2   212  GSH212      0.2418
      9  OE1       -1.0040    8.7480   23.6350 O.2   212  GSH212     -0.2733
     10  N2        -1.9610    7.2050   22.0370 N.am  212  GSH212     -0.1968
     11  CA2       -2.8830    6.6110   22.9780 C.3   212  GSH212      0.1843
     12  C2        -2.4780    5.1990   23.2590 C.2   212  GSH212      0.2627
     13  O2        -2.3990    4.2680   22.2060 O.2   212  GSH212     -0.2714
     14  CB2       -4.3050    6.6640   22.4310 C.3   212  GSH212      0.0997
     15  SG2       -5.5360    6.2860   23.7060 S.3   212  GSH212     -0.0797
     16  N3        -2.1970    4.9030   24.5250 N.am  212  GSH212     -0.1917
     17  CA3       -1.6410    3.6170   24.8990 C.3   212  GSH212      0.2285
     18  C3        -1.5210    3.4530   26.3940 C.2   212  GSH212      0.3865
     19  O31       -0.8550    2.5100   26.8680 O.co2 212  GSH212     -0.2437
     20  O32       -2.0870    4.2490   27.1740 O.co2 212  GSH212     -0.2437
@<TRIPOS>BOND
     1     4     3   ar
     2     5     3   ar
     3     3     2    1
     4     2     1    1
     5     2     6    1
     6     6     7    1
     7     7     8    1
     8    10     8   am
     9    10    11    1
    10    13    12    2
    11     8     9    2
    12    14    11    1
    13    14    15    1
    14    11    12    1
    15    12    16   am
    16    16    17    1
    17    17    18    1
    18    18    19   ar
    19    18    20   ar
