@<TRIPOS>MOLECULE
3fra_I2H_X_1.pdb
 26 29 0 0 0
SMALL
GASTEIGER

@<TRIPOS>ATOM
      1  N7        26.4260   11.8010   39.2590 N.pl3 300  I2H300     -0.0924
      2  C6        27.0090   10.7910   40.2020 C.2   300  I2H300      0.2297
      3  N5        26.6170    9.4620   40.1110 N.2   300  I2H300     -0.3170
      4  C3        27.1390    8.5010   40.9710 C.1   300  I2H300      0.1877
      5  N4        26.6930    7.0770   40.8490 N.pl3 300  I2H300     -0.0345
      6  N2        28.0590    8.8480   41.9250 N.2   300  I2H300     -0.1675
      7  C1        28.4750   10.2080   42.0390 C.2   300  I2H300      0.1118
      8  C8        27.9270   11.1800   41.1460 C.2   300  I2H300      0.0500
      9  C9        28.3270   12.5540   41.2310 C.3   300  I2H300      0.0582
     10  C10       29.4960   12.7380   42.1770 C.ar  300  I2H300     -0.0154
     11  C21       29.4310   13.6130   43.2590 C.ar  300  I2H300      0.0360
     12  C18       30.5600   13.7660   44.1370 C.ar  300  I2H300      0.1751
     13  O19       30.4770   14.6800   45.2640 O.3   300  I2H300     -0.4683
     14  C20       29.1090   14.9630   45.8380 C.3   300  I2H300      0.2526
     15  C11       30.7470   11.9840   41.9530 C.ar  300  I2H300      0.0115
     16  C12       31.8760   12.1750   42.8800 C.ar  300  I2H300      0.1708
     17  O13       33.0060   11.4750   42.6640 O.3   300  I2H300     -0.4763
     18  C15       31.7750   13.0240   43.9100 C.ar  300  I2H300      0.2057
     19  O16       32.8430   13.1700   44.7430 O.3   300  I2H300     -0.4654
     20  C17       33.9100   12.3970   44.5610 C.3   300  I2H300      0.2528
     21  C27       30.8560   11.0320   40.7910 C.3   300  I2H300      0.0329
     22  C28       32.2130   10.3330   40.7380 C.3   300  I2H300      0.0483
     23  C14       33.3220   11.1960   41.3090 C.3   300  I2H300      0.1663
     24  C24       34.6610   10.4500   41.2260 C.3   300  I2H300      0.0401
     25  C26       34.6470    8.9720   40.9610 C.3   300  I2H300      0.0037
     26  C25       35.0960    9.9240   39.8880 C.3   300  I2H300      0.0037
@<TRIPOS>BOND
     1     1     2    1
     2    26    25    1
     3    26    24    1
     4     3     2    2
     5     3     4    2
     6     2     8    1
     7    22    21    1
     8    22    23    1
     9    21    15    1
    10     5     4    1
    11    25    24    1
    12     4     6    2
    13     8     9    1
    14     8     7    2
    15    24    23    1
    16     9    10    1
    17    23    17    1
    18     6     7    1
    19    15    10   ar
    20    15    16   ar
    21    10    11   ar
    22    17    16    1
    23    16    18   ar
    24    11    12   ar
    25    18    12   ar
    26    18    19    1
    27    12    13    1
    28    20    19    1
    29    13    14    1
