@<TRIPOS>MOLECULE
3fra_NAP_X_1.pdb
 48 52 0 0 0
SMALL
GASTEIGER

@<TRIPOS>ATOM
      1  PA        23.9930   21.4680   42.7510 P.3   301  NAP301      0.2189
      2  O1A       25.2510   20.7000   42.5800 O.3   301  NAP301     -0.4371
      3  O2A       22.8680   20.9290   41.9620 O.2   301  NAP301     -0.5170
      4  O5B       24.2790   23.0070   42.4010 O.3   301  NAP301     -0.3112
      5  C5B       23.2790   23.9950   42.5390 C.3   301  NAP301      0.1813
      6  C4B       23.7850   25.2080   41.7820 C.3   301  NAP301      0.1820
      7  O4B       23.8440   24.9260   40.3960 O.3   301  NAP301     -0.3136
      8  C3B       22.9220   26.4500   41.9090 C.3   301  NAP301      0.2157
      9  O3B       23.1450   27.1440   43.1150 O.3   301  NAP301     -0.2175
     10  C2B       23.3830   27.2020   40.6850 C.3   301  NAP301      0.2314
     11  O2B       24.6690   27.7390   40.8790 O.3   301  NAP301     -0.2630
     12  C1B       23.5210   26.0980   39.6610 C.3   301  NAP301      0.3158
     13  N9A       22.2600   25.9600   38.9080 N.pl3 301  NAP301     -0.1439
     14  C8A       21.3170   24.9730   39.0380 C.3   301  NAP301      0.3377
     15  N7A       20.3160   25.2180   38.1650 N.2   301  NAP301     -0.2095
     16  C5A       20.6020   26.3530   37.4830 C.2   301  NAP301      0.2526
     17  C6A       19.9290   27.0510   36.4840 C.2   301  NAP301      0.4393
     18  N6A       18.7620   26.6180   36.0130 N.pl3 301  NAP301      0.2180
     19  N1A       20.4880   28.2030   35.9720 N.2   301  NAP301      0.0021
     20  C2A       21.7020   28.6550   36.4470 C.3   301  NAP301      0.5254
     21  N3A       22.3630   27.9630   37.4370 N.2   301  NAP301     -0.0055
     22  C4A       21.8220   26.8300   37.9450 C.2   301  NAP301      0.3518
     23  O3        23.6350   21.5820   44.3140 O.3   301  NAP301     -0.2703
     24  PN        22.5580   20.8570   45.2620 P.3   301  NAP301      0.2189
     25  O1N       21.2460   20.8750   44.5820 O.2   301  NAP301     -0.5170
     26  O2N       22.7090   21.4740   46.5990 O.3   301  NAP301     -0.4371
     27  O5D       23.1340   19.3610   45.3360 O.3   301  NAP301     -0.3112
     28  C5D       24.4000   19.1500   45.9330 C.3   301  NAP301      0.1813
     29  C4D       24.4150   17.8090   46.6530 C.3   301  NAP301      0.1799
     30  O4D       24.2830   16.7550   45.7120 O.3   301  NAP301     -0.3327
     31  C3D       25.7160   17.5530   47.4040 C.3   301  NAP301      0.2158
     32  O3D       25.4530   16.9780   48.6630 O.3   301  NAP301     -0.2175
     33  C2D       26.4390   16.5300   46.5690 C.3   301  NAP301      0.2309
     34  O2D       27.2920   15.7490   47.3740 O.3   301  NAP301     -0.2158
     35  C1D       25.2420   15.7530   46.0310 C.3   301  NAP301      0.2263
     36  N1N       25.5540   14.9440   44.8410 N.pl3 301  NAP301     -0.2787
     37  C2N       25.2750   13.5880   44.8810 C.3   301  NAP301      0.1244
     38  C3N       25.4670   12.8230   43.7290 C.2   301  NAP301      0.0544
     39  C7N       25.1670   11.3920   43.7490 C.2   301  NAP301      0.2818
     40  O7N       25.2530   10.6480   42.6680 O.2   301  NAP301     -0.2670
     41  N7N       24.7840   10.7530   44.8560 N.am  301  NAP301     -0.0839
     42  C4N       25.9290   13.4330   42.5570 C.2   301  NAP301      0.0033
     43  C5N       26.1960   14.7970   42.5360 C.2   301  NAP301      0.0157
     44  C6N       26.0040   15.5620   43.6800 C.2   301  NAP301      0.0633
     45  P2B       24.8990   29.2520   41.3730 P.3   301  NAP301      0.5328
     46  O1X       24.2840   30.1660   40.3460 O.2   301  NAP301     -0.2224
     47  O2X       26.3870   29.5110   41.4550 O.3   301  NAP301     -0.1145
     48  O3X       24.2640   29.4620   42.7220 O.3   301  NAP301     -0.1145
@<TRIPOS>BOND
     1    19    20    1
     2    19    17    2
     3    18    17    1
     4    20    21    1
     5    17    16    1
     6    21    22    2
     7    16    22    1
     8    16    15    2
     9    22    13    1
    10    15    14    1
    11    13    14    1
    12    13    12    1
    13    12     7    1
    14    12    10    1
    15    46    45    2
    16     7     6    1
    17    10    11    1
    18    10     8    1
    19    11    45    1
    20    45    47    1
    21    45    48    1
    22     6     8    1
    23     6     5    1
    24     8     9    1
    25     3     1    2
    26     4     5    1
    27     4     1    1
    28    43    42    1
    29    43    44    2
    30    42    38    2
    31     2     1    1
    32    40    39    2
    33     1    23    1
    34    44    36    1
    35    38    39    1
    36    38    37    1
    37    39    41   am
    38    23    24    1
    39    25    24    2
    40    36    37    1
    41    36    35    1
    42    24    27    1
    43    24    26    1
    44    27    28    1
    45    30    35    1
    46    30    29    1
    47    28    29    1
    48    35    33    1
    49    33    34    1
    50    33    31    1
    51    29    31    1
    52    31    32    1
