@<TRIPOS>MOLECULE
3frb_TOP_X_1.pdb
 21 22 0 0 0
SMALL
GASTEIGER

@<TRIPOS>ATOM
      1  C1        28.5870    9.7730   41.9000 C.2   300  TOP300      0.1118
      2  N2        28.0580    8.5550   41.6850 N.2   300  TOP300     -0.1675
      3  C3        27.1140    8.3400   40.7650 C.1   300  TOP300      0.1877
      4  N4        26.5960    7.0630   40.5740 N.pl3 300  TOP300     -0.0345
      5  N5        26.6310    9.3350   40.0190 N.2   300  TOP300     -0.3170
      6  C6        27.0840   10.5720   40.1690 C.2   300  TOP300      0.2297
      7  N7        26.5630   11.5890   39.3860 N.pl3 300  TOP300     -0.0924
      8  C8        28.1410   10.8460   41.1610 C.2   300  TOP300      0.0500
      9  C9        28.6630   12.2690   41.3090 C.3   300  TOP300      0.0585
     10  C10       29.9600   12.4220   42.0870 C.ar  300  TOP300     -0.0114
     11  C11       31.1420   11.7910   41.6740 C.ar  300  TOP300      0.0363
     12  C12       32.3290   11.9470   42.3920 C.ar  300  TOP300      0.1751
     13  O13       33.4620   11.3520   42.0180 O.3   300  TOP300     -0.4683
     14  C14       33.4940   10.7160   40.7570 C.3   300  TOP300      0.2526
     15  C15       32.3520   12.7970   43.5960 C.ar  300  TOP300      0.2060
     16  O16       33.4620   12.9620   44.3100 O.3   300  TOP300     -0.4654
     17  C17       33.5130   12.3840   45.5940 C.3   300  TOP300      0.2528
     18  C18       31.0900   13.4440   43.9920 C.ar  300  TOP300      0.1751
     19  O19       31.0730   14.2180   45.0720 O.3   300  TOP300     -0.4683
     20  C20       29.8940   14.9290   45.3720 C.3   300  TOP300      0.2526
     21  C21       29.9350   13.2470   43.2220 C.ar  300  TOP300      0.0363
@<TRIPOS>BOND
     1     7     6    1
     2     5     6    2
     3     5     3    2
     4     6     8    1
     5     4     3    1
     6    14    13    1
     7     3     2    2
     8     8     9    1
     9     8     1    2
    10     9    10    1
    11    11    10   ar
    12    11    12   ar
    13     2     1    1
    14    13    12    1
    15    10    21   ar
    16    12    15   ar
    17    21    18   ar
    18    15    18   ar
    19    15    16    1
    20    18    19    1
    21    16    17    1
    22    19    20    1
