@<TRIPOS>MOLECULE
3frb_NAP_X_1.pdb
 48 52 0 0 0
SMALL
GASTEIGER

@<TRIPOS>ATOM
      1  PA        24.2790   21.5670   42.8910 P.3   301  NAP301      0.2189
      2  O1A       25.6160   20.8340   42.9540 O.3   301  NAP301     -0.4371
      3  O2A       23.1810   21.0630   42.0040 O.2   301  NAP301     -0.5170
      4  O5B       24.5470   23.0930   42.4680 O.3   301  NAP301     -0.3112
      5  C5B       23.5160   24.0510   42.6310 C.3   301  NAP301      0.1813
      6  C4B       23.9790   25.2520   41.8270 C.3   301  NAP301      0.1820
      7  O4B       24.0250   24.9130   40.4360 O.3   301  NAP301     -0.3136
      8  C3B       23.1000   26.4830   41.9240 C.3   301  NAP301      0.2157
      9  O3B       23.3070   27.2570   43.0960 O.3   301  NAP301     -0.2175
     10  C2B       23.5670   27.1940   40.6760 C.3   301  NAP301      0.2314
     11  O2B       24.8790   27.6990   40.8710 O.3   301  NAP301     -0.2630
     12  C1B       23.6790   26.0700   39.6670 C.3   301  NAP301      0.3158
     13  N9A       22.4100   25.9080   38.9220 N.pl3 301  NAP301     -0.1439
     14  C8A       21.5000   24.9280   39.0480 C.3   301  NAP301      0.3377
     15  N7A       20.4740   25.1200   38.1780 N.2   301  NAP301     -0.2095
     16  C5A       20.7190   26.2450   37.4900 C.2   301  NAP301      0.2526
     17  C6A       20.0630   27.0180   36.4150 C.2   301  NAP301      0.4393
     18  N6A       18.8720   26.6390   35.8880 N.pl3 301  NAP301      0.2180
     19  N1A       20.6830   28.1250   35.9890 N.2   301  NAP301      0.0021
     20  C2A       21.8720   28.5310   36.4850 C.3   301  NAP301      0.5254
     21  N3A       22.5130   27.8730   37.4580 N.2   301  NAP301     -0.0055
     22  C4A       22.0070   26.7520   37.9770 C.2   301  NAP301      0.3518
     23  O3        23.7270   21.7680   44.3850 O.3   301  NAP301     -0.2703
     24  PN        22.7900   20.7650   45.2380 P.3   301  NAP301      0.2189
     25  O1N       21.4930   20.5100   44.5470 O.2   301  NAP301     -0.5170
     26  O2N       22.8400   21.3120   46.6480 O.3   301  NAP301     -0.4371
     27  O5D       23.5480   19.3530   45.1780 O.3   301  NAP301     -0.3112
     28  C5D       24.7800   19.1130   45.8400 C.3   301  NAP301      0.1813
     29  C4D       24.6420   17.8440   46.6690 C.3   301  NAP301      0.1799
     30  O4D       24.3840   16.7040   45.8330 O.3   301  NAP301     -0.3327
     31  C3D       25.9250   17.5470   47.4110 C.3   301  NAP301      0.2158
     32  O3D       25.6090   16.9530   48.6690 O.3   301  NAP301     -0.2175
     33  C2D       26.6100   16.5430   46.5220 C.3   301  NAP301      0.2309
     34  O2D       27.5220   15.7470   47.2620 O.3   301  NAP301     -0.2158
     35  C1D       25.4040   15.7390   46.0500 C.3   301  NAP301      0.2263
     36  N1N       25.6510   14.9620   44.8210 N.pl3 301  NAP301     -0.2787
     37  C2N       25.3470   13.6070   44.8250 C.3   301  NAP301      0.1244
     38  C3N       25.4560   12.8740   43.6460 C.2   301  NAP301      0.0544
     39  C7N       25.1220   11.4440   43.6310 C.2   301  NAP301      0.2818
     40  O7N       25.1040   10.7680   42.5970 O.2   301  NAP301     -0.2670
     41  N7N       24.8070   10.8270   44.8380 N.am  301  NAP301     -0.0839
     42  C4N       25.8720   13.5190   42.4740 C.2   301  NAP301      0.0033
     43  C5N       26.1770   14.8780   42.4870 C.2   301  NAP301      0.0157
     44  C6N       26.0640   15.6080   43.6600 C.2   301  NAP301      0.0633
     45  P2B       25.1550   29.2250   41.3430 P.3   301  NAP301      0.5328
     46  O1X       24.4560   29.3770   42.6630 O.3   301  NAP301     -0.1145
     47  O2X       26.6460   29.4080   41.2460 O.3   301  NAP301     -0.1145
     48  O3X       24.4740   30.1020   40.3430 O.2   301  NAP301     -0.2224
@<TRIPOS>BOND
     1    18    17    1
     2    19    17    2
     3    19    20    1
     4    17    16    1
     5    20    21    1
     6    21    22    2
     7    16    22    1
     8    16    15    2
     9    22    13    1
    10    15    14    1
    11    13    14    1
    12    13    12    1
    13    12     7    1
    14    12    10    1
    15    48    45    2
    16     7     6    1
    17    10    11    1
    18    10     8    1
    19    11    45    1
    20    47    45    1
    21    45    46    1
    22     6     8    1
    23     6     5    1
    24     8     9    1
    25     3     1    2
    26     4     5    1
    27     4     1    1
    28    42    43    1
    29    42    38    2
    30    43    44    2
    31    40    39    2
    32     1     2    1
    33     1    23    1
    34    39    38    1
    35    39    41   am
    36    38    37    1
    37    44    36    1
    38    23    24    1
    39    25    24    2
    40    36    37    1
    41    36    35    1
    42    27    24    1
    43    27    28    1
    44    24    26    1
    45    30    35    1
    46    30    29    1
    47    28    29    1
    48    35    33    1
    49    33    34    1
    50    33    31    1
    51    29    31    1
    52    31    32    1
