@<TRIPOS>MOLECULE
3frc_0HG_A_1.pdb
 28 28 0 0 0
SMALL
GASTEIGER

@<TRIPOS>ATOM
      1  N          5.9480  -24.3980  -22.0690 N.3   212  0HG212     -0.1208
      2  CA         6.8380  -25.5000  -22.4150 C.3   212  0HG212      0.1948
      3  C          8.2440  -25.2150  -21.9580 C.2   212  0HG212      0.3819
      4  O          8.9560  -26.1690  -21.5680 O.co2 212  0HG212     -0.2441
      5  CB         6.8070  -25.6620  -23.9320 C.3   212  0HG212      0.0402
      6  CG         7.6820  -26.8140  -24.4080 C.3   212  0HG212      0.0889
      7  CD         7.3180  -27.2350  -25.8130 C.2   212  0HG212      0.2418
      8  OE1        6.4410  -26.6700  -26.4520 O.2   212  0HG212     -0.2733
      9  OXT        8.6630  -24.0370  -21.9930 O.co2 212  0HG212     -0.2441
     10  CA1        7.8200  -28.8110  -27.6150 C.3   212  0HG212      0.1834
     11  C1         7.3700  -30.2240  -27.4170 C.2   212  0HG212      0.2626
     12  O1         8.0340  -30.9820  -26.7270 O.2   212  0HG212     -0.2714
     13  N1         8.0340  -28.2470  -26.2930 N.am  212  0HG212     -0.1969
     14  CB1        9.1630  -28.7620  -28.3450 C.3   212  0HG212      0.0889
     15  SG         8.9440  -29.2290  -30.0410 S.3   212  0HG212     -0.1331
     16 BR         10.3510  -22.5050  -29.6780 Br    212  0HG212     -0.0490
     17  C11        8.4570  -26.6690  -30.5260 C.ar  212  0HG212     -0.0113
     18  C2         7.7670  -25.7690  -29.7030 C.ar  212  0HG212     -0.0029
     19  C3         8.3170  -24.5130  -29.4370 C.ar  212  0HG212      0.0064
     20  C4         9.5530  -24.1800  -30.0020 C.ar  212  0HG212      0.0345
     21  C5        10.2330  -25.0790  -30.8160 C.ar  212  0HG212      0.0064
     22  C6         9.6870  -26.3260  -31.0790 C.ar  212  0HG212     -0.0029
     23  C7         7.8970  -28.0370  -30.8210 C.3   212  0HG212      0.0838
     24  N2         6.2290  -30.5780  -27.9940 N.am  212  0HG212     -0.1917
     25  CA2        5.6150  -31.8970  -27.9120 C.3   212  0HG212      0.2285
     26  C8         4.5970  -32.0940  -29.0040 C.2   212  0HG212      0.3865
     27  O2         4.4050  -31.1690  -29.8220 O.co2 212  0HG212     -0.2437
     28 OXT1        3.9850  -33.1840  -29.0470 O.co2 212  0HG212     -0.2437
@<TRIPOS>BOND
     1    22    21   ar
     2    22    17   ar
     3    23    17    1
     4    23    15    1
     5    21    20   ar
     6    17    18   ar
     7    15    14    1
     8    20    16    1
     9    20    19   ar
    10    27    26   ar
    11    18    19   ar
    12    28    26   ar
    13    26    25    1
    14    14    10    1
    15    24    25    1
    16    24    11   am
    17    10    11    1
    18    10    13    1
    19    11    12    2
    20     8     7    2
    21    13     7   am
    22     7     6    1
    23     6     5    1
    24     5     2    1
    25     2     1    1
    26     2     3    1
    27     9     3   ar
    28     3     4   ar
