@<TRIPOS>MOLECULE
3frd_NAP_X_1.pdb
 48 52 0 0 0
SMALL
GASTEIGER

@<TRIPOS>ATOM
      1  PA        23.8920   21.3620   42.6690 P.3   301  NAP301      0.2189
      2  O1A       25.0360   20.4450   42.4560 O.3   301  NAP301     -0.4371
      3  O2A       22.6670   21.0410   41.9030 O.2   301  NAP301     -0.5170
      4  O5B       24.3750   22.8470   42.3330 O.3   301  NAP301     -0.3112
      5  C5B       23.4970   23.8900   42.6720 C.3   301  NAP301      0.1813
      6  C4B       23.9000   25.0690   41.8230 C.3   301  NAP301      0.1820
      7  O4B       23.8690   24.7450   40.4490 O.3   301  NAP301     -0.3136
      8  C3B       22.9850   26.2630   41.9650 C.3   301  NAP301      0.2157
      9  O3B       23.1640   26.9310   43.1940 O.3   301  NAP301     -0.2175
     10  C2B       23.4290   27.0140   40.7270 C.3   301  NAP301      0.2314
     11  O2B       24.7110   27.5720   40.8690 O.3   301  NAP301     -0.2630
     12  C1B       23.5700   25.9040   39.7060 C.3   301  NAP301      0.3158
     13  N9A       22.3190   25.7700   38.9680 N.pl3 301  NAP301     -0.1439
     14  C8A       21.3730   24.7970   39.1330 C.3   301  NAP301      0.3377
     15  N7A       20.3760   25.0260   38.2470 N.2   301  NAP301     -0.2095
     16  C5A       20.6770   26.1360   37.5310 C.2   301  NAP301      0.2526
     17  C6A       20.0140   26.8100   36.5140 C.2   301  NAP301      0.4393
     18  N6A       18.8390   26.3750   36.0730 N.pl3 301  NAP301      0.2180
     19  N1A       20.5890   27.9350   35.9550 N.2   301  NAP301      0.0021
     20  C2A       21.8180   28.3830   36.4070 C.3   301  NAP301      0.5254
     21  N3A       22.4680   27.7100   37.4210 N.2   301  NAP301     -0.0055
     22  C4A       21.9040   26.6090   37.9770 C.2   301  NAP301      0.3518
     23  O3        23.5680   21.4920   44.2350 O.3   301  NAP301     -0.2703
     24  PN        22.6680   20.6060   45.2330 P.3   301  NAP301      0.2189
     25  O1N       21.2910   20.5820   44.7120 O.2   301  NAP301     -0.5170
     26  O2N       22.9550   21.0970   46.6030 O.3   301  NAP301     -0.4371
     27  O5D       23.3300   19.1530   45.1290 O.3   301  NAP301     -0.3112
     28  C5D       24.6590   18.9690   45.5730 C.3   301  NAP301      0.1813
     29  C4D       24.7100   17.7420   46.4760 C.3   301  NAP301      0.1799
     30  O4D       24.4160   16.6020   45.6870 O.3   301  NAP301     -0.3327
     31  C3D       26.0660   17.4850   47.1080 C.3   301  NAP301      0.2158
     32  O3D       25.9040   16.9670   48.4030 O.3   301  NAP301     -0.2175
     33  C2D       26.6710   16.4090   46.2460 C.3   301  NAP301      0.2309
     34  O2D       27.5290   15.5800   46.9690 O.3   301  NAP301     -0.2158
     35  C1D       25.4340   15.6520   45.8260 C.3   301  NAP301      0.2263
     36  N1N       25.5420   14.9320   44.5570 N.pl3 301  NAP301     -0.2787
     37  C2N       25.4860   13.5820   44.6110 C.3   301  NAP301      0.1244
     38  C3N       25.5480   12.8330   43.4540 C.2   301  NAP301      0.0544
     39  C7N       25.0900   11.4120   43.5500 C.2   301  NAP301      0.2818
     40  O7N       24.8020   10.7100   42.3630 O.2   301  NAP301     -0.2670
     41  N7N       24.9730   10.8720   44.7670 N.am  301  NAP301     -0.0839
     42  C4N       25.6690   13.4700   42.2260 C.2   301  NAP301      0.0033
     43  C5N       25.7270   14.8550   42.1830 C.2   301  NAP301      0.0157
     44  C6N       25.6520   15.5810   43.3650 C.2   301  NAP301      0.0633
     45  P2B       24.8950   29.1500   41.1890 P.3   301  NAP301      0.5328
     46  O1X       24.0890   29.9090   40.1640 O.2   301  NAP301     -0.2224
     47  O2X       26.3840   29.4050   41.1160 O.3   301  NAP301     -0.1145
     48  O3X       24.3610   29.3570   42.5810 O.3   301  NAP301     -0.1145
@<TRIPOS>BOND
     1    19    20    1
     2    19    17    2
     3    18    17    1
     4    20    21    1
     5    17    16    1
     6    21    22    2
     7    16    22    1
     8    16    15    2
     9    22    13    1
    10    15    14    1
    11    13    14    1
    12    13    12    1
    13    12     7    1
    14    12    10    1
    15    46    45    2
    16     7     6    1
    17    10    11    1
    18    10     8    1
    19    11    45    1
    20    47    45    1
    21    45    48    1
    22     6     8    1
    23     6     5    1
    24     3     1    2
    25     8     9    1
    26    43    42    1
    27    43    44    2
    28    42    38    2
    29     4     1    1
    30     4     5    1
    31    40    39    2
    32     2     1    1
    33     1    23    1
    34    44    36    1
    35    38    39    1
    36    38    37    1
    37    39    41   am
    38    23    24    1
    39    36    37    1
    40    36    35    1
    41    25    24    2
    42    27    24    1
    43    27    28    1
    44    24    26    1
    45    28    29    1
    46    30    35    1
    47    30    29    1
    48    35    33    1
    49    33    34    1
    50    33    31    1
    51    29    31    1
    52    31    32    1
