@<TRIPOS>MOLECULE
3frd_DHF_X_1.pdb
 32 34 0 0 0
SMALL
GASTEIGER

@<TRIPOS>ATOM
      1  N1        26.6190    9.0140   40.0990 N.2   300  DHF300     -0.2672
      2  C2        26.7890    7.7420   40.6470 C.1   300  DHF300      0.2609
      3  NA2       26.1370    6.6780   40.1200 N.pl3 300  DHF300     -0.0220
      4  N3        27.6420    7.5710   41.7450 N.2   300  DHF300     -0.2466
      5  C4        28.3560    8.6710   42.3230 C.1   300  DHF300      0.2569
      6  O4        29.0830    8.4300   43.3080 O.2   300  DHF300     -0.2052
      7  C4A       28.1710    9.9480   41.7060 C.2   300  DHF300      0.2988
      8  N5        28.9170   11.0850   42.2380 N.2   300  DHF300     -0.3839
      9  C6        28.8050   12.3310   41.4940 C.2   300  DHF300      0.1356
     10  C7        27.9650   12.4650   40.4480 C.3   300  DHF300      0.1931
     11  N8        27.1370   11.3640   39.9790 N.2   300  DHF300     -0.1992
     12  C8A       27.3380   10.1200   40.6400 C.1   300  DHF300      0.1401
     13  C9        29.6810   13.4640   41.9660 C.3   300  DHF300      0.1683
     14  N10       30.8180   13.0220   42.8090 N.pl3 300  DHF300     -0.2303
     15  C11       34.2330   11.1380   41.2680 C.ar  300  DHF300      0.0551
     16  C12       34.1990   11.5920   42.6000 C.ar  300  DHF300      0.0059
     17  C13       33.0680   12.2180   43.0990 C.ar  300  DHF300      0.0162
     18  C14       31.9510   12.4100   42.2670 C.ar  300  DHF300      0.0658
     19  C15       31.9810   11.9740   40.9300 C.ar  300  DHF300      0.0162
     20  C16       33.1100   11.3370   40.4420 C.ar  300  DHF300      0.0059
     21  C         35.4170   10.4920   40.7390 C.2   300  DHF300      0.2652
     22  O         36.6140   10.6910   41.2610 O.2   300  DHF300     -0.2684
     23  N         35.3670    9.6730   39.6770 N.am  300  DHF300     -0.1918
     24  CA        36.5730    9.1440   39.0060 C.3   300  DHF300      0.1986
     25  CB        36.8320    7.6730   39.3550 C.3   300  DHF300      0.0451
     26  CG        37.5500    7.5320   40.7010 C.3   300  DHF300      0.1164
     27  CD        37.9270    6.1020   40.9560 C.2   300  DHF300      0.3649
     28  OE1       38.4050    5.4180   39.9980 O.co2 300  DHF300     -0.2457
     29  OE2       37.7680    5.6370   42.1270 O.co2 300  DHF300     -0.2457
     30  CT        36.4060    9.2840   37.5210 C.2   300  DHF300      0.3842
     31  O1        37.4380    9.2130   36.7880 O.co2 300  DHF300     -0.2437
     32  O2        35.2380    9.4580   37.0560 O.co2 300  DHF300     -0.2437
@<TRIPOS>BOND
     1    31    30   ar
     2    32    30   ar
     3    30    24    1
     4    24    25    1
     5    24    23    1
     6    25    26    1
     7    23    21   am
     8    11    10    1
     9    11    12    2
    10    28    27   ar
    11     1    12    2
    12     1     2    2
    13     3     2    1
    14    20    19   ar
    15    20    15   ar
    16    10     9    1
    17    12     7    1
    18     2     4    2
    19    26    27    1
    20    21    22    2
    21    21    15    1
    22    19    18   ar
    23    27    29   ar
    24    15    16   ar
    25     9    13    1
    26     9     8    2
    27     7     8    2
    28     7     5    1
    29     4     5    2
    30    13    14    1
    31    18    14    1
    32    18    17   ar
    33     5     6    2
    34    16    17   ar
