@<TRIPOS>MOLECULE
3fre_TOP_X_1.pdb
 21 22 0 0 0
SMALL
GASTEIGER

@<TRIPOS>ATOM
      1  C1        28.7250    9.9330   41.7630 C.2   300  TOP300      0.1118
      2  N2        28.2040    8.7100   41.6420 N.2   300  TOP300     -0.1675
      3  C3        27.2280    8.4330   40.7650 C.1   300  TOP300      0.1877
      4  N4        26.7330    7.1320   40.6810 N.pl3 300  TOP300     -0.0345
      5  N5        26.7160    9.3710   39.9570 N.2   300  TOP300     -0.3170
      6  C6        27.1710   10.6230   40.0050 C.2   300  TOP300      0.2297
      7  N7        26.6280   11.5980   39.1660 N.pl3 300  TOP300     -0.0924
      8  C8        28.2500   10.9540   40.9610 C.2   300  TOP300      0.0500
      9  C9        28.7850   12.3680   41.0400 C.3   300  TOP300      0.0585
     10  C10       30.0140   12.5410   41.9170 C.ar  300  TOP300     -0.0114
     11  C11       31.2130   11.9210   41.5700 C.ar  300  TOP300      0.0363
     12  C12       32.3530   12.0920   42.3580 C.ar  300  TOP300      0.1751
     13  O13       33.4890   11.4960   42.0290 O.3   300  TOP300     -0.4683
     14  C14       33.5920   10.8780   40.7630 C.3   300  TOP300      0.2526
     15  C15       32.2980   12.9420   43.5710 C.ar  300  TOP300      0.2060
     16  O16       33.3650   13.1310   44.3470 O.3   300  TOP300     -0.4654
     17  C17       33.8990   12.0740   45.1160 C.3   300  TOP300      0.2528
     18  C18       31.0100   13.5850   43.8910 C.ar  300  TOP300      0.1751
     19  O19       30.9080   14.3620   44.9700 O.3   300  TOP300     -0.4683
     20  C20       29.7010   15.0490   45.2310 C.3   300  TOP300      0.2526
     21  C21       29.9200   13.3630   43.0480 C.ar  300  TOP300      0.0363
@<TRIPOS>BOND
     1     7     6    1
     2     5     6    2
     3     5     3    2
     4     6     8    1
     5     4     3    1
     6    14    13    1
     7     3     2    2
     8     8     9    1
     9     8     1    2
    10     9    10    1
    11    11    10   ar
    12    11    12   ar
    13     2     1    1
    14    10    21   ar
    15    13    12    1
    16    12    15   ar
    17    21    18   ar
    18    15    18   ar
    19    15    16    1
    20    18    19    1
    21    16    17    1
    22    19    20    1
