@<TRIPOS>MOLECULE
3fre_NAP_X_1.pdb
 48 52 0 0 0
SMALL
GASTEIGER

@<TRIPOS>ATOM
      1  PA        24.1920   21.5690   42.6320 P.3   301  NAP301      0.2189
      2  O1A       25.5050   20.8180   42.5930 O.3   301  NAP301     -0.4371
      3  O2A       23.0250   21.0710   41.8260 O.2   301  NAP301     -0.5170
      4  O5B       24.4720   23.0800   42.1840 O.3   301  NAP301     -0.3112
      5  C5B       23.4330   24.0580   42.2160 C.3   301  NAP301      0.1813
      6  C4B       23.9540   25.2550   41.4410 C.3   301  NAP301      0.1820
      7  O4B       24.0180   24.9270   40.0520 O.3   301  NAP301     -0.3136
      8  C3B       23.1180   26.5250   41.5100 C.3   301  NAP301      0.2157
      9  O3B       23.3110   27.2790   42.6970 O.3   301  NAP301     -0.2175
     10  C2B       23.6500   27.2310   40.2870 C.3   301  NAP301      0.2314
     11  O2B       24.9590   27.7420   40.5430 O.3   301  NAP301     -0.2630
     12  C1B       23.7630   26.1060   39.2810 C.3   301  NAP301      0.3158
     13  N9A       22.4970   25.9640   38.5280 N.pl3 301  NAP301     -0.1439
     14  C8A       21.6070   24.9710   38.6800 C.3   301  NAP301      0.3377
     15  N7A       20.5560   25.1430   37.8370 N.2   301  NAP301     -0.2095
     16  C5A       20.7740   26.2590   37.1380 C.2   301  NAP301      0.2526
     17  C6A       20.0630   27.0110   36.0840 C.2   301  NAP301      0.4393
     18  N6A       18.8700   26.5780   35.6070 N.pl3 301  NAP301      0.2180
     19  N1A       20.6440   28.1300   35.6240 N.2   301  NAP301      0.0021
     20  C2A       21.8290   28.5740   36.0920 C.3   301  NAP301      0.5254
     21  N3A       22.5220   27.9320   37.0490 N.2   301  NAP301     -0.0055
     22  C4A       22.0570   26.8060   37.5950 C.2   301  NAP301      0.3518
     23  O3        23.7480   21.8000   44.2160 O.3   301  NAP301     -0.2703
     24  PN        22.7810   20.7700   45.0710 P.3   301  NAP301      0.2189
     25  O1N       21.3940   20.7360   44.4330 O.2   301  NAP301     -0.5170
     26  O2N       22.8190   21.1770   46.5430 O.3   301  NAP301     -0.4371
     27  O5D       23.5010   19.2960   44.8990 O.3   301  NAP301     -0.3112
     28  C5D       24.7620   19.0500   45.5070 C.3   301  NAP301      0.1813
     29  C4D       24.6710   17.8610   46.4620 C.3   301  NAP301      0.1799
     30  O4D       24.3140   16.6770   45.7380 O.3   301  NAP301     -0.3327
     31  C3D       26.0170   17.6130   47.1480 C.3   301  NAP301      0.2158
     32  O3D       25.7880   17.1370   48.4700 O.3   301  NAP301     -0.2175
     33  C2D       26.6090   16.5110   46.2810 C.3   301  NAP301      0.2309
     34  O2D       27.5360   15.7000   46.9930 O.3   301  NAP301     -0.2158
     35  C1D       25.3690   15.7280   45.8740 C.3   301  NAP301      0.2263
     36  N1N       25.5770   14.9800   44.6220 N.pl3 301  NAP301     -0.2787
     37  C2N       25.2750   13.6250   44.5980 C.3   301  NAP301      0.1244
     38  C3N       25.4140   12.9120   43.4100 C.2   301  NAP301      0.0544
     39  C7N       25.0930   11.4800   43.3660 C.2   301  NAP301      0.2818
     40  O7N       25.0960   10.8210   42.3210 O.2   301  NAP301     -0.2670
     41  N7N       24.7750   10.8400   44.5580 N.am  301  NAP301     -0.0839
     42  C4N       25.8550   13.5780   42.2590 C.2   301  NAP301      0.0033
     43  C5N       26.1540   14.9370   42.3000 C.2   301  NAP301      0.0157
     44  C6N       26.0130   15.6460   43.4820 C.2   301  NAP301      0.0633
     45  P2B       25.2010   29.2540   41.0510 P.3   301  NAP301      0.5328
     46  O1X       24.5330   29.3830   42.3940 O.3   301  NAP301     -0.1145
     47  O2X       26.6890   29.4810   40.9340 O.3   301  NAP301     -0.1145
     48  O3X       24.4930   30.1800   40.1110 O.2   301  NAP301     -0.2224
@<TRIPOS>BOND
     1    18    17    1
     2    19    17    2
     3    19    20    1
     4    17    16    1
     5    20    21    1
     6    21    22    2
     7    16    22    1
     8    16    15    2
     9    22    13    1
    10    15    14    1
    11    13    14    1
    12    13    12    1
    13    12     7    1
    14    12    10    1
    15     7     6    1
    16    48    45    2
    17    10    11    1
    18    10     8    1
    19    11    45    1
    20    47    45    1
    21    45    46    1
    22     6     8    1
    23     6     5    1
    24     8     9    1
    25     3     1    2
    26     4     5    1
    27     4     1    1
    28    42    43    1
    29    42    38    2
    30    43    44    2
    31    40    39    2
    32     2     1    1
    33     1    23    1
    34    39    38    1
    35    39    41   am
    36    38    37    1
    37    44    36    1
    38    23    24    1
    39    25    24    2
    40    37    36    1
    41    36    35    1
    42    27    24    1
    43    27    28    1
    44    24    26    1
    45    28    29    1
    46    30    35    1
    47    30    29    1
    48    35    33    1
    49    33    34    1
    50    33    31    1
    51    29    31    1
    52    31    32    1
