@<TRIPOS>MOLECULE
3frf_XCF_X_1.pdb
 26 29 0 0 0
SMALL
GASTEIGER

@<TRIPOS>ATOM
      1  N4        26.6790    7.1740   40.9960 N.pl3 300  XCF300     -0.0345
      2  C3        27.2100    8.4150   41.0190 C.1   300  XCF300      0.1877
      3  N5        26.7380    9.4090   40.1450 N.2   300  XCF300     -0.3170
      4  N2        28.2380    8.7360   41.9090 N.2   300  XCF300     -0.1675
      5  C1        28.8210   10.0210   41.9210 C.2   300  XCF300      0.1115
      6  C8        28.3810   10.9860   41.0610 C.2   300  XCF300      0.0463
      7  C6        27.3100   10.6860   40.1670 C.2   300  XCF300      0.2294
      8  N7        26.7720   11.5660   39.2980 N.pl3 300  XCF300     -0.0924
      9  C9        28.9970   12.3640   41.0030 C.3   300  XCF300      0.0410
     10  C10       30.0310   12.5930   42.0740 C.3   300  XCF300      0.0551
     11  C11       31.3360   12.0910   41.9410 C.2   300  XCF300      0.0197
     12  C27       31.7420   11.3500   40.7550 C.2   300  XCF300      0.0020
     13  C28       32.9250   10.7360   40.6940 C.2   300  XCF300      0.0327
     14  C14       33.8870   10.7720   41.8460 C.2   300  XCF300      0.1224
     15  C24       35.3250   10.9980   41.3470 C.3   300  XCF300      0.0575
     16  C25       36.3970   11.3270   42.3450 C.3   300  XCF300      0.0080
     17  C26       35.9080   12.3820   41.3930 C.3   300  XCF300      0.0080
     18  O13       33.5200   11.7100   42.8690 O.2   300  XCF300     -0.4549
     19  C12       32.2710   12.2990   42.9680 C.2   300  XCF300      0.1778
     20  C15       31.9280   13.0740   44.0890 C.2   300  XCF300      0.2060
     21  O16       32.7730   13.3680   45.1500 O.2   300  XCF300     -0.4654
     22  C17       34.0950   13.8570   44.9300 C.3   300  XCF300      0.2528
     23  C18       30.6260   13.5590   44.2010 C.2   300  XCF300      0.1715
     24  C21       29.6800   13.3190   43.2040 C.2   300  XCF300      0.0185
     25  O19       30.3110   14.3060   45.3150 O.2   300  XCF300     -0.4686
     26  C20       29.0150   14.8910   45.3260 C.3   300  XCF300      0.2526
@<TRIPOS>BOND
     1     8     7    1
     2     3     7    2
     3     3     2    2
     4     7     6    1
     5    13    12    1
     6    13    14    2
     7    12    11    2
     8     1     2    1
     9     9     6    1
    10     9    10    1
    11     2     4    2
    12     6     5    2
    13    15    17    1
    14    15    14    1
    15    15    16    1
    16    17    16    1
    17    14    18    1
    18     4     5    1
    19    11    10    1
    20    11    19    1
    21    10    24    1
    22    18    19    1
    23    19    20    2
    24    24    23    2
    25    20    23    1
    26    20    21    1
    27    23    25    1
    28    22    21    1
    29    25    26    1
