@<TRIPOS>MOLECULE
3frf_NAP_X_1.pdb
 48 52 0 0 0
SMALL
GASTEIGER

@<TRIPOS>ATOM
      1  PA        24.0140   21.5500   42.3840 P.3   301  NAP301      0.2189
      2  O1A       25.2110   20.6920   42.2310 O.3   301  NAP301     -0.4371
      3  O2A       22.8340   21.0820   41.6300 O.2   301  NAP301     -0.5170
      4  O5B       24.3730   23.0380   41.9430 O.3   301  NAP301     -0.3112
      5  C5B       23.4270   24.0530   42.1470 C.3   301  NAP301      0.1813
      6  C4B       23.9400   25.2300   41.3540 C.3   301  NAP301      0.1820
      7  O4B       23.9740   24.9070   39.9770 O.3   301  NAP301     -0.3136
      8  C3B       23.0920   26.4810   41.4620 C.3   301  NAP301      0.2157
      9  O3B       23.3040   27.1710   42.6660 O.3   301  NAP301     -0.2175
     10  C2B       23.6270   27.2000   40.2550 C.3   301  NAP301      0.2314
     11  O2B       24.9370   27.6300   40.5360 O.3   301  NAP301     -0.2630
     12  C1B       23.7170   26.0840   39.2300 C.3   301  NAP301      0.3158
     13  N9A       22.4530   25.9470   38.4960 N.pl3 301  NAP301     -0.1439
     14  C8A       21.5270   24.9530   38.6680 C.3   301  NAP301      0.3377
     15  N7A       20.5070   25.1690   37.8110 N.2   301  NAP301     -0.2095
     16  C5A       20.7700   26.2860   37.0950 C.2   301  NAP301      0.2526
     17  C6A       20.0650   26.9440   36.0970 C.2   301  NAP301      0.4393
     18  N6A       18.8930   26.4770   35.6830 N.pl3 301  NAP301      0.2180
     19  N1A       20.5890   28.0880   35.5360 N.2   301  NAP301      0.0021
     20  C2A       21.8080   28.5700   35.9730 C.3   301  NAP301      0.5254
     21  N3A       22.5030   27.9130   36.9680 N.2   301  NAP301     -0.0055
     22  C4A       21.9920   26.7870   37.5200 C.2   301  NAP301      0.3518
     23  O3        23.7070   21.7690   43.9420 O.3   301  NAP301     -0.2703
     24  PN        22.7030   21.0560   44.9660 P.3   301  NAP301      0.2189
     25  O1N       21.3440   21.1780   44.4000 O.2   301  NAP301     -0.5170
     26  O2N       23.0020   21.5710   46.3210 O.3   301  NAP301     -0.4371
     27  O5D       23.1720   19.5200   44.9260 O.3   301  NAP301     -0.3112
     28  C5D       24.4160   19.1890   45.4920 C.3   301  NAP301      0.1813
     29  C4D       24.2800   17.9200   46.3110 C.3   301  NAP301      0.1799
     30  O4D       24.1650   16.8080   45.4470 O.3   301  NAP301     -0.3327
     31  C3D       25.4990   17.6720   47.1760 C.3   301  NAP301      0.2158
     32  O3D       25.0860   17.2540   48.4530 O.3   301  NAP301     -0.2175
     33  C2D       26.2380   16.5580   46.4790 C.3   301  NAP301      0.2309
     34  O2D       26.9660   15.7880   47.4030 O.3   301  NAP301     -0.2158
     35  C1D       25.0860   15.8120   45.8320 C.3   301  NAP301      0.2263
     36  N1N       25.4240   15.0260   44.6380 N.pl3 301  NAP301     -0.2787
     37  C2N       25.1800   13.6880   44.6770 C.3   301  NAP301      0.1244
     38  C3N       25.4570   12.9020   43.5760 C.2   301  NAP301      0.0544
     39  C7N       25.0380   11.4680   43.6110 C.2   301  NAP301      0.2818
     40  O7N       24.7770   10.7960   42.4020 O.2   301  NAP301     -0.2670
     41  N7N       24.9300   10.8840   44.8050 N.am  301  NAP301     -0.0839
     42  C4N       25.9760   13.4790   42.4210 C.2   301  NAP301      0.0033
     43  C5N       26.2100   14.8490   42.3880 C.2   301  NAP301      0.0157
     44  C6N       25.9230   15.6180   43.5080 C.2   301  NAP301      0.0633
     45  P2B       25.2970   29.1340   40.9890 P.3   301  NAP301      0.5328
     46  O1X       24.5570   30.0790   40.0710 O.2   301  NAP301     -0.2224
     47  O2X       26.7970   29.2850   40.8420 O.3   301  NAP301     -0.1145
     48  O3X       24.9110   29.3420   42.4360 O.3   301  NAP301     -0.1145
@<TRIPOS>BOND
     1    19    20    1
     2    19    17    2
     3    18    17    1
     4    20    21    1
     5    17    16    1
     6    21    22    2
     7    16    22    1
     8    16    15    2
     9    22    13    1
    10    15    14    1
    11    13    14    1
    12    13    12    1
    13    12     7    1
    14    12    10    1
    15     7     6    1
    16    46    45    2
    17    10    11    1
    18    10     8    1
    19    11    45    1
    20    47    45    1
    21    45    48    1
    22     6     8    1
    23     6     5    1
    24     8     9    1
    25     3     1    2
    26     4     5    1
    27     4     1    1
    28     2     1    1
    29     1    23    1
    30    43    42    1
    31    43    44    2
    32    40    39    2
    33    42    38    2
    34    44    36    1
    35    38    39    1
    36    38    37    1
    37    39    41   am
    38    23    24    1
    39    25    24    2
    40    36    37    1
    41    36    35    1
    42    27    24    1
    43    27    28    1
    44    24    26    1
    45    30    35    1
    46    30    29    1
    47    28    29    1
    48    35    33    1
    49    29    31    1
    50    33    31    1
    51    33    34    1
    52    31    32    1
