@<TRIPOS>MOLECULE
3frg_SK4_A_1.pdb
 26 28 0 0 0
SMALL
GASTEIGER

@<TRIPOS>ATOM
      1  O23       50.3210   48.5390   64.3570 O.2     1  SK41       -0.1686
      2  S18       49.8820   48.1920   65.6740 S.O2    1  SK41        0.0105
      3  O22       50.1050   49.2010   66.6770 O.2     1  SK41       -0.1686
      4  C21       50.6470   46.6940   66.1750 C.3     1  SK41        0.1816
      5  C12       48.1720   47.8010   65.6730 C.ar    1  SK41        0.1059
      6  C17       47.4370   47.9590   66.8300 C.ar    1  SK41        0.0199
      7  C11       46.0920   47.6760   66.8570 C.ar    1  SK41        0.0205
      8  C5        45.4740   47.2120   65.7030 C.ar    1  SK41        0.0826
      9  N10       44.1200   46.9460   65.7620 N.ar    1  SK41       -0.2436
     10  C7        43.4960   46.5240   64.6590 C.ar    1  SK41        0.1047
     11  C13       44.1680   46.2840   63.4720 C.ar    1  SK41        0.0910
     12  C8        43.3620   45.8630   62.2700 C.2     1  SK41        0.2870
     13  O14       43.8400   46.0620   61.1630 O.2     1  SK41       -0.2666
     14  N3        42.0550   45.4880   62.4640 N.am    1  SK41       -0.0836
     15  C2        46.2040   47.0490   64.5180 C.ar    1  SK41        0.0344
     16  C6        47.5800   47.3240   64.5180 C.ar    1  SK41        0.0211
     17  C1        45.5330   46.5720   63.3630 C.ar    1  SK41        0.0779
     18  N4        46.3010   46.3350   62.1680 N.pl3   1  SK41       -0.2121
     19  C9        47.5840   45.6980   62.0060 C.ar    1  SK41        0.0735
     20  C15       48.4160   45.9150   60.9540 C.ar    1  SK41        0.0534
     21  C19       49.6270   45.2680   60.8670 C.ar    1  SK41        0.1400
     22  O25       50.3940   45.5090   59.7870 O.3     1  SK41       -0.4714
     23  C26       49.9720   46.4110   58.7830 C.3     1  SK41        0.2525
     24  C24       50.0550   44.3820   61.8650 C.ar    1  SK41        0.0370
     25  C20       49.2200   44.1390   62.9460 C.ar    1  SK41        0.0044
     26  C16       47.9860   44.8020   62.9980 C.ar    1  SK41        0.0167
@<TRIPOS>BOND
     1    23    22    1
     2    22    21    1
     3    21    20   ar
     4    21    24   ar
     5    20    19   ar
     6    13    12    2
     7    24    25   ar
     8    19    18    1
     9    19    26   ar
    10    18    17    1
    11    12    14   am
    12    12    11    1
    13    25    26   ar
    14    17    11   ar
    15    17    15   ar
    16    11    10   ar
    17     1     2    2
    18    15    16   ar
    19    15     8   ar
    20    16     5   ar
    21    10     9   ar
    22     5     2    1
    23     5     6   ar
    24     2     4    1
    25     2     3    2
    26     8     9   ar
    27     8     7   ar
    28     6     7   ar
