@<TRIPOS>MOLECULE
3frh_SAH_A_1.pdb
 26 28 0 0 0
SMALL
GASTEIGER

@<TRIPOS>ATOM
      1  N        -10.9710    3.0130   -6.6760 N.3   260  SAH260     -0.1208
      2  CA        -9.6700    2.5410   -6.1880 C.3   260  SAH260      0.1952
      3  CB        -9.7140    2.1390   -4.7100 C.3   260  SAH260      0.0422
      4  CG       -10.7400    1.0440   -4.4270 C.3   260  SAH260      0.0597
      5  SD       -10.7310    0.4950   -2.7000 S.3   260  SAH260     -0.1375
      6  C         -9.2000    1.3760   -7.0390 C.2   260  SAH260      0.3819
      7  O        -10.0580    0.6750   -7.6020 O.co2 260  SAH260     -0.2441
      8  OXT       -7.9700    1.1380   -7.1220 O.co2 260  SAH260     -0.2441
      9  C5'      -12.1190    1.4410   -2.0250 C.3   260  SAH260      0.0899
     10  C4'      -11.7720    2.8980   -1.7430 C.3   260  SAH260      0.1630
     11  O4'      -12.9510    3.5380   -1.2510 O.3   260  SAH260     -0.3153
     12  C3'      -10.6920    3.1010   -0.6740 C.3   260  SAH260      0.2168
     13  O3'       -9.6120    3.8910   -1.1490 O.3   260  SAH260     -0.2175
     14  C2'      -11.4620    3.7740    0.4620 C.3   260  SAH260      0.2569
     15  O2'      -10.7090    4.6220    1.2890 O.3   260  SAH260     -0.2130
     16  C1'      -12.5460    4.5110   -0.2920 C.3   260  SAH260      0.3185
     17  N9       -13.7500    4.8900    0.4550 N.pl3 260  SAH260     -0.1439
     18  C8       -14.4690    4.1080    1.3260 C.3   260  SAH260      0.3377
     19  N7       -15.5640    4.7720    1.7430 N.2   260  SAH260     -0.2095
     20  C5       -15.5520    5.9840    1.1170 C.2   260  SAH260      0.2526
     21  C6       -16.4170    7.0710    1.1730 C.2   260  SAH260      0.4393
     22  N6       -17.5290    7.0690    1.9270 N.pl3 260  SAH260      0.2180
     23  N1       -16.1180    8.1700    0.4210 N.2   260  SAH260      0.0021
     24  C2       -14.9840    8.1830   -0.3510 C.3   260  SAH260      0.5254
     25  N3       -14.1060    7.1440   -0.4370 N.2   260  SAH260     -0.0055
     26  C4       -14.4210    6.0590    0.2960 C.2   260  SAH260      0.3518
@<TRIPOS>BOND
     1     7     6   ar
     2     8     6   ar
     3     6     2    1
     4     1     2    1
     5     2     3    1
     6     3     4    1
     7     4     5    1
     8     5     9    1
     9     9    10    1
    10    10    11    1
    11    10    12    1
    12    11    16    1
    13    13    12    1
    14    12    14    1
    15    25    24    1
    16    25    26    2
    17    24    23    1
    18    16    17    1
    19    16    14    1
    20    26    17    1
    21    26    20    1
    22    23    21    2
    23    17    18    1
    24    14    15    1
    25    20    21    1
    26    20    19    2
    27    21    22    1
    28    18    19    1
