@<TRIPOS>MOLECULE
3fri_SAH_A_1.pdb
 26 28 0 0 0
SMALL
GASTEIGER

@<TRIPOS>ATOM
      1  N         11.8800   19.8290   31.8410 N.3   260  SAH260     -0.1208
      2  CA        10.7890   20.6840   32.3390 C.3   260  SAH260      0.1952
      3  CB        10.2060   21.5780   31.2220 C.3   260  SAH260      0.0422
      4  CG         9.7220   20.7480   30.0150 C.3   260  SAH260      0.0597
      5  SD         9.0020   21.8480   28.7580 S.3   260  SAH260     -0.1375
      6  C          9.6790   19.8320   32.9100 C.2   260  SAH260      0.3819
      7  O          9.5470   18.6820   32.5500 O.co2 260  SAH260     -0.2441
      8  OXT        8.8220   20.3640   33.7940 O.co2 260  SAH260     -0.2441
      9  C5'       10.3800   22.0230   27.5940 C.3   260  SAH260      0.0899
     10  C4'       11.4160   23.0380   28.1040 C.3   260  SAH260      0.1630
     11  O4'       12.5400   23.0310   27.2180 O.3   260  SAH260     -0.3153
     12  C3'       10.8660   24.4850   28.1320 C.3   260  SAH260      0.2168
     13  O3'       11.0340   25.0410   29.4460 O.3   260  SAH260     -0.2175
     14  C2'       11.7110   25.2170   27.0580 C.3   260  SAH260      0.2569
     15  O2'       11.9210   26.6030   27.3750 O.3   260  SAH260     -0.2130
     16  C1'       13.0070   24.3890   27.0680 C.3   260  SAH260      0.3185
     17  N9        13.7860   24.4540   25.8230 N.pl3 260  SAH260     -0.1439
     18  C8        13.3230   24.4560   24.5290 C.3   260  SAH260      0.3377
     19  N7        14.3280   24.5010   23.6980 N.2   260  SAH260     -0.2095
     20  C5        15.4850   24.5300   24.3980 C.2   260  SAH260      0.2526
     21  C6        16.8640   24.5750   24.0660 C.2   260  SAH260      0.4393
     22  N6        17.2700   24.5970   22.7380 N.pl3 260  SAH260      0.2180
     23  N1        17.7770   24.5950   25.0660 N.2   260  SAH260      0.0021
     24  C2        17.4100   24.5690   26.3560 C.3   260  SAH260      0.5254
     25  N3        16.1240   24.5230   26.7070 N.2   260  SAH260     -0.0055
     26  C4        15.1470   24.5000   25.7740 C.2   260  SAH260      0.3518
@<TRIPOS>BOND
     1    22    21    1
     2    19    20    2
     3    19    18    1
     4    21    20    1
     5    21    23    2
     6    20    26    1
     7    18    17    1
     8    23    24    1
     9    26    17    1
    10    26    25    2
    11    17    16    1
    12    24    25    1
    13    14    16    1
    14    14    15    1
    15    14    12    1
    16    16    11    1
    17    11    10    1
    18     9    10    1
    19     9     5    1
    20    10    12    1
    21    12    13    1
    22     5     4    1
    23     4     3    1
    24     3     2    1
    25     1     2    1
    26     2     6    1
    27     7     6   ar
    28     6     8   ar
