@<TRIPOS>MOLECULE
3frj_NAP_A_1.pdb
 48 52 0 0 0
SMALL
GASTEIGER

@<TRIPOS>ATOM
      1  PA        68.5650   16.4120   71.8220 P.3     1  NAP1        0.2189
      2  O1A       69.5200   15.4860   72.4960 O.2     1  NAP1       -0.5170
      3  O2A       67.4130   16.9210   72.5300 O.3     1  NAP1       -0.4371
      4  O5B       69.3440   17.6270   71.1690 O.3     1  NAP1       -0.3112
      5  C5B       68.6570   18.6670   70.4650 C.3     1  NAP1        0.1813
      6  C4B       69.8320   19.5960   70.3050 C.3     1  NAP1        0.1820
      7  O4B       69.2900   20.8000   69.8010 O.3     1  NAP1       -0.3136
      8  C3B       70.4630   19.9470   71.6800 C.3     1  NAP1        0.2157
      9  O3B       71.8430   20.2490   71.5950 O.3     1  NAP1       -0.2175
     10  C2B       69.8320   21.2820   71.9930 C.3     1  NAP1        0.2314
     11  O2B       70.7520   22.0570   72.7570 O.3     1  NAP1       -0.2630
     12  C1B       69.6160   21.9440   70.6130 C.3     1  NAP1        0.3158
     13  N9A       68.5400   22.9450   70.7330 N.pl3   1  NAP1       -0.1439
     14  C8A       67.3160   22.7960   71.4070 C.3     1  NAP1        0.3377
     15  N7A       66.6440   23.9910   71.2870 N.2     1  NAP1       -0.2095
     16  C5A       67.4590   24.8710   70.5730 C.2     1  NAP1        0.2526
     17  C6A       67.2780   26.1710   70.1830 C.2     1  NAP1        0.4393
     18  N6A       66.1550   26.8880   70.4730 N.pl3   1  NAP1        0.2180
     19  N1A       68.2290   26.7650   69.4760 N.2     1  NAP1        0.0021
     20  C2A       69.3990   26.1480   69.1470 C.3     1  NAP1        0.5254
     21  N3A       69.5800   24.8740   69.5300 N.2     1  NAP1       -0.0055
     22  C4A       68.6160   24.2470   70.2520 C.2     1  NAP1        0.3518
     23  O3        67.9060   15.5630   70.5270 O.3     1  NAP1       -0.2703
     24  PN        68.4450   14.2530   69.7600 P.3     1  NAP1        0.2189
     25  O1N       69.8800   14.2470   69.7460 O.2     1  NAP1       -0.5170
     26  O2N       67.6290   13.0750   70.2320 O.3     1  NAP1       -0.4371
     27  O5D       68.0400   14.6660   68.1850 O.3     1  NAP1       -0.3112
     28  C5D       68.9740   15.3210   67.2990 C.3     1  NAP1        0.1813
     29  C4D       68.3630   15.2800   65.8720 C.3     1  NAP1        0.1799
     30  O4D       68.0190   13.9100   65.6240 O.3     1  NAP1       -0.3327
     31  C3D       67.0520   16.0270   65.7680 C.3     1  NAP1        0.2158
     32  O3D       66.9890   16.6560   64.5310 O.3     1  NAP1       -0.2175
     33  C2D       66.0220   14.9070   65.8390 C.3     1  NAP1        0.2309
     34  O2D       64.7750   15.1890   65.2550 O.3     1  NAP1       -0.2158
     35  C1D       66.6910   13.7320   65.2240 C.3     1  NAP1        0.2263
     36  N1N       66.0240   12.4890   65.6190 N.pl3   1  NAP1       -0.2787
     37  C2N       66.2400   11.8950   66.8310 C.3     1  NAP1        0.1244
     38  C3N       65.5070   10.7860   67.2580 C.2     1  NAP1        0.0544
     39  C7N       65.8220   10.1560   68.5930 C.2     1  NAP1        0.2818
     40  O7N       65.0200    9.0990   69.0080 O.2     1  NAP1       -0.2670
     41  N7N       66.8380   10.5770   69.3390 N.am    1  NAP1       -0.0839
     42  C4N       64.5770   10.1740   66.4040 C.2     1  NAP1        0.0033
     43  C5N       64.3310   10.8010   65.1670 C.2     1  NAP1        0.0157
     44  C6N       65.0630   11.9560   64.8080 C.2     1  NAP1        0.0633
     45  P2B       70.3030   23.2730   73.7820 P.3     1  NAP1        0.5328
     46  O1X       71.5970   23.4230   74.4890 O.3     1  NAP1       -0.1145
     47  O2X       69.9620   24.5170   73.0460 O.2     1  NAP1       -0.2224
     48  O3X       69.0380   23.0200   74.5770 O.3     1  NAP1       -0.1145
@<TRIPOS>BOND
     1    32    31    1
     2    44    43    2
     3    44    36    1
     4    43    42    1
     5    35    36    1
     6    35    30    1
     7    35    33    1
     8    34    33    1
     9    36    37    1
    10    30    29    1
    11    31    33    1
    12    31    29    1
    13    29    28    1
    14    42    38    2
    15    37    38    1
    16    38    39    1
    17    28    27    1
    18    27    24    1
    19    39    40    2
    20    39    41   am
    21    20    19    1
    22    20    21    1
    23    19    17    2
    24    21    22    2
    25    25    24    2
    26    24    26    1
    27    24    23    1
    28     7     6    1
    29     7    12    1
    30    17    18    1
    31    17    16    1
    32    22    16    1
    33    22    13    1
    34     6     5    1
    35     6     8    1
    36     5     4    1
    37    23     1    1
    38    16    15    2
    39    12    13    1
    40    12    10    1
    41    13    14    1
    42     4     1    1
    43    15    14    1
    44     9     8    1
    45     8    10    1
    46     1     2    2
    47     1     3    1
    48    10    11    1
    49    11    45    1
    50    47    45    2
    51    45    46    1
    52    45    48    1
