@<TRIPOS>MOLECULE
3frj_A49_B_1.pdb
 32 35 0 0 0
SMALL
GASTEIGER

@<TRIPOS>ATOM
      1  O1        57.1950   20.1160   36.2450 O.2     2  A492       -0.2716
      2  C13       58.2160   20.8010   36.2770 C.2     2  A492        0.2611
      3  N1        59.3770   20.2780   36.0440 N.am    2  A492       -0.0878
      4  C31       58.1660   22.2540   36.7020 C.3     2  A492        0.0867
      5  C10       59.2820   22.7800   37.5660 C.3     2  A492        0.0106
      6  C12       59.2390   23.1320   36.0720 C.3     2  A492        0.0106
      7  C26       56.8350   22.9540   36.6890 C.3     2  A492        0.0808
      8  N2        55.8860   22.3040   37.6130 N.3     2  A492       -0.2722
      9  C17       56.3290   22.4580   39.0600 C.3     2  A492        0.0738
     10  C16       55.4050   21.5740   39.8900 C.3     2  A492        0.0372
     11  C19       54.5880   22.9870   37.4150 C.3     2  A492        0.0738
     12  C20       53.5290   22.2980   38.2300 C.3     2  A492        0.0372
     13  C14       54.0110   22.1900   39.7100 C.3     2  A492        0.0783
     14  N12       52.9150   21.5410   40.3940 N.am    2  A492       -0.2792
     15  C15       53.0190   20.0620   40.6680 C.3     2  A492        0.0757
     16  C25       52.4630   19.3090   39.4500 C.3     2  A492        0.0215
     17  C24       51.6250   19.4380   40.6940 C.3     2  A492        0.0215
     18  C11       52.3750   22.3910   41.3980 C.2     2  A492        0.2489
     19  O13       51.7910   21.9030   42.3650 O.2     2  A492       -0.2699
     20  C4        52.2460   23.8730   41.2080 C.ar    2  A492        0.0536
     21  C3        52.9240   24.8110   41.9710 C.ar    2  A492        0.0043
     22  C2        52.6730   26.1780   41.8010 C.ar    2  A492       -0.0015
     23  C5        51.2960   24.2710   40.2450 C.ar    2  A492        0.0043
     24  C6        51.0700   25.6070   40.0220 C.ar    2  A492       -0.0015
     25  C1        51.7470   26.5500   40.7970 C.ar    2  A492        0.0132
     26  C7        51.4450   27.9990   40.5240 C.3     2  A492        0.2317
     27  C9        51.1960   28.7570   41.8220 C.3     2  A492        0.0465
     28  O10       50.2980   28.1090   39.6560 O.3     2  A492       -0.2124
     29  C8        52.6110   28.5910   39.7540 C.3     2  A492        0.4263
     30  F23       52.2250   29.8180   39.5700 F       2  A492       -0.1671
     31  F21       52.7430   27.9570   38.6110 F       2  A492       -0.1671
     32  F22       53.7740   28.5060   40.3860 F       2  A492       -0.1671
@<TRIPOS>BOND
     1     3     2   am
     2     6     4    1
     3     6     5    1
     4     1     2    2
     5     2     4    1
     6     7     4    1
     7     7     8    1
     8     4     5    1
     9    11     8    1
    10    11    12    1
    11     8     9    1
    12    12    13    1
    13    31    29    1
    14     9    10    1
    15    16    15    1
    16    16    17    1
    17    30    29    1
    18    28    26    1
    19    13    10    1
    20    13    14    1
    21    29    32    1
    22    29    26    1
    23    24    23   ar
    24    24    25   ar
    25    23    20   ar
    26    14    15    1
    27    14    18   am
    28    26    25    1
    29    26    27    1
    30    15    17    1
    31    25    22   ar
    32    20    18    1
    33    20    21   ar
    34    18    19    2
    35    22    21   ar
