@<TRIPOS>MOLECULE
3frk_TQP_A_1.pdb
 50 53 0 0 0
SMALL
GASTEIGER

@<TRIPOS>ATOM
      1  O2P       25.8710  -28.0760   -6.8950 O.3   374  TQP374     -0.1145
      2  P         24.4860  -28.1980   -6.0700 P.3   374  TQP374      0.5329
      3  O3P       23.3680  -28.9200   -6.9680 O.2   374  TQP374     -0.2224
      4  O1P       24.0200  -26.8400   -5.6950 O.3   374  TQP374     -0.1145
      5  O4P       24.7700  -28.9930   -4.6530 O.3   374  TQP374     -0.2653
      6  C5'       25.2670  -30.3090   -4.9190 C.3   374  TQP374      0.1816
      7  C5P       24.8910  -31.3190   -3.8510 C.2   374  TQP374      0.0270
      8  C4P       23.5900  -31.8990   -3.7730 C.2   374  TQP374      0.0291
      9  C4'       22.5130  -31.5380   -4.7500 C.2   374  TQP374      0.0785
     10  C3P       23.3500  -32.8410   -2.7200 C.3   374  TQP374      0.2110
     11  O3'       22.1350  -33.4300   -2.5690 O.3   374  TQP374     -0.2121
     12  C2P       24.3850  -33.1730   -1.8300 C.2   374  TQP374      0.0714
     13  C2'       24.1450  -34.1890   -0.7210 C.3   374  TQP374      0.0503
     14  N1P       25.5910  -32.6120   -1.9750 N.2   374  TQP374     -0.2499
     15  C6P       25.8540  -31.7120   -2.9240 C.2   374  TQP374      0.0961
     16  O4        13.6380  -24.4190  -10.9940 O.2   374  TQP374     -0.2088
     17  C4        13.1800  -25.4970  -10.6590 C.1   374  TQP374      0.2134
     18  N3        11.8540  -25.6350  -10.6380 N.2   374  TQP374     -0.2455
     19  C2        11.3120  -26.8090  -10.2600 C.1   374  TQP374      0.2844
     20  O2        10.1000  -26.9330  -10.2270 O.2   374  TQP374     -0.1918
     21  C5        13.9910  -26.6180  -10.2950 C.2   374  TQP374      0.0891
     22  C5M       15.4980  -26.5310  -10.3170 C.3   374  TQP374      0.0462
     23  C6        13.4040  -27.8010   -9.9230 C.2   374  TQP374      0.0877
     24  N1        12.0480  -27.8720   -9.9070 N.am  374  TQP374     -0.1794
     25  C1'       11.3290  -29.0820   -9.5010 C.3   374  TQP374      0.2090
     26  O4'       11.8710  -29.5510   -8.2600 O.3   374  TQP374     -0.3339
     27  C2H       11.5450  -30.1840  -10.5320 C.3   374  TQP374      0.0874
     28  C3'       11.8380  -31.4640   -9.7340 C.3   374  TQP374      0.1857
     29  O3H       10.5970  -32.1600   -9.6900 O.3   374  TQP374     -0.2203
     30  C4H       12.0860  -30.9760   -8.2880 C.3   374  TQP374      0.1773
     31  C5H       13.4700  -31.0870   -7.6510 C.3   374  TQP374      0.1812
     32  O5'       14.6520  -31.8050   -8.0270 O.3   374  TQP374     -0.3112
     33  PA        15.3450  -31.9120   -9.4700 P.3   374  TQP374      0.2189
     34  O1A       15.7250  -30.6290  -10.0900 O.3   374  TQP374     -0.4371
     35  O2A       14.5790  -32.9030  -10.5030 O.2   374  TQP374     -0.5170
     36  O3A       16.7250  -32.6340   -9.1450 O.3   374  TQP374     -0.2703
     37  PB        16.7110  -33.5770   -7.8280 P.3   374  TQP374      0.2208
     38  O1B       16.9750  -35.0010   -8.2230 O.2   374  TQP374     -0.5170
     39  O2B       15.4210  -33.6050   -6.9140 O.3   374  TQP374     -0.4371
     40  O3B       17.8770  -33.1750   -6.8350 O.3   374  TQP374     -0.2858
     41  O4Q       20.4590  -30.1390   -6.9710 O.3   374  TQP374     -0.2186
     42  C4Q       20.6530  -31.5410   -7.1200 C.3   374  TQP374      0.2013
     43  C5Q       19.7390  -31.9660   -8.2840 C.3   374  TQP374      0.1500
     44  O5Q       19.6740  -33.3810   -8.4340 O.3   374  TQP374     -0.3282
     45  C6Q       20.0070  -31.2010   -9.5790 C.3   374  TQP374      0.0349
     46  C3Q       20.3370  -32.2900   -5.7960 C.3   374  TQP374      0.1605
     47  N3Q       21.3120  -32.0140   -4.7120 N.pl3 374  TQP374     -0.2328
     48  C2Q       20.1620  -33.8030   -6.0730 C.3   374  TQP374      0.2304
     49  O2Q       19.6030  -34.5090   -4.9490 O.3   374  TQP374     -0.2158
     50  C1Q       19.1310  -33.8950   -7.2080 C.3   374  TQP374      0.2732
@<TRIPOS>BOND
     1    16    17    2
     2    17    18    2
     3    17    21    1
     4    18    19    2
     5    27    28    1
     6    27    25    1
     7    35    33    2
     8    22    21    1
     9    21    23    2
    10    19    20    2
    11    19    24   am
    12    34    33    1
    13    23    24    1
    14    24    25    1
    15    28    29    1
    16    28    30    1
    17    45    43    1
    18    25    26    1
    19    33    36    1
    20    33    32    1
    21    36    37    1
    22    44    43    1
    23    44    50    1
    24    30    26    1
    25    30    31    1
    26    43    42    1
    27    38    37    2
    28    32    31    1
    29    37    39    1
    30    37    40    1
    31    50    40    1
    32    50    48    1
    33    42    41    1
    34    42    46    1
    35     3     2    2
    36     1     2    1
    37    48    46    1
    38    48    49    1
    39     2     4    1
    40     2     5    1
    41    46    47    1
    42     6     5    1
    43     6     7    1
    44     9    47    1
    45     9     8    2
    46     7     8    1
    47     7    15    2
    48     8    10    1
    49    15    14    1
    50    10    11    1
    51    10    12    1
    52    14    12    2
    53    12    13    1
