@<TRIPOS>MOLECULE
3frl_211_A_1.pdb
 10 9 0 0 0
SMALL
GASTEIGER

@<TRIPOS>ATOM
      1  O1       -52.8890   42.6960  -12.6620 O.3     1  2111       -0.2189
      2  O2       -51.9190   48.9030  -12.2570 O.3     1  2111       -0.2189
      3  C1       -51.9070   44.8830  -13.3480 C.3     1  2111        0.1082
      4  C2       -53.0370   44.1070  -12.6930 C.3     1  2111        0.1993
      5  O3       -51.9000   44.5510  -16.9410 O.3     1  2111       -0.2189
      6  C3       -53.2350   46.9820  -13.0790 C.3     1  2111        0.1082
      7  C4       -52.8180   48.4350  -13.2660 C.3     1  2111        0.1993
      8  C5       -53.0080   45.9580  -15.3010 C.3     1  2111        0.1082
      9  C6       -51.8850   45.8500  -16.3320 C.3     1  2111        0.1993
     10  N1       -52.3890   46.1480  -13.9650 N.3     1  2111       -0.2660
@<TRIPOS>BOND
     1     5     9    1
     2     9     8    1
     3     8    10    1
     4    10     3    1
     5    10     6    1
     6     3     4    1
     7     7     6    1
     8     7     2    1
     9     4     1    1
