@<TRIPOS>MOLECULE
3fro_NHF_B_1.pdb
 11 11 0 0 0
SMALL
GASTEIGER

@<TRIPOS>ATOM
      1  O4        36.7400   47.0050  -62.4500 O.3   438  NHF438     -0.2159
      2  C6        36.4660   49.3610  -60.3790 C.3   438  NHF438      0.2281
      3  C5        35.4420   48.6070  -61.2200 C.3   438  NHF438      0.2320
      4  C4        36.0510   48.2520  -62.5760 C.3   438  NHF438      0.2320
      5  O3        35.7240   47.8860  -64.9210 O.3   438  NHF438     -0.2117
      6  C3        35.0240   48.1380  -63.6970 C.3   438  NHF438      0.2499
      7  C2        34.2240   49.4100  -63.7680 C.2   438  NHF438      0.2425
      8  C1        33.8600   49.9920  -62.6200 C.2   438  NHF438      0.2124
      9  O2        33.8770   49.9710  -64.9260 O.2   438  NHF438     -0.2852
     10  O6        36.1280   49.2470  -58.9960 O.3   438  NHF438     -0.2163
     11  O5        34.2540   49.3930  -61.3520 O.2   438  NHF438     -0.4677
@<TRIPOS>BOND
     1     9     7    1
     2     5     6    1
     3     7     6    1
     4     7     8    2
     5     6     4    1
     6     8    11    1
     7     4     1    1
     8     4     3    1
     9    11     3    1
    10     3     2    1
    11     2    10    1
