@<TRIPOS>MOLECULE
3frz_AG6_A_1.pdb
 28 29 0 0 0
SMALL
GASTEIGER

@<TRIPOS>ATOM
      1  N2        11.9730   32.3850   72.5160 N.am  578  AG6578     -0.1897
      2  N3         9.4120   31.5090   74.4770 N.am  578  AG6578     -0.2057
      3  O5        13.0120   30.4390   72.9230 O.2   578  AG6578     -0.2633
      4  O6         9.4000   33.5270   73.3420 O.2   578  AG6578     -0.2715
      5  C7        12.7120   31.3310   72.1170 C.2   578  AG6578      0.3205
      6  O7         6.2660   33.9530   74.8650 O.2   578  AG6578     -0.2913
      7  C8        11.4910   32.5830   73.9100 C.3   578  AG6578      0.1775
      8  C9        11.9780   33.9580   74.4100 C.3   578  AG6578      0.0574
      9  C10        9.9560   32.5560   73.8910 C.2   578  AG6578      0.2615
     10  C11        7.9760   31.3050   74.6350 C.3   578  AG6578      0.0958
     11  C12        7.6330   29.8530   74.3290 C.3   578  AG6578      0.0217
     12  C13        7.7730   29.4750   72.8650 C.3   578  AG6578      0.0018
     13  C14        7.2520   28.0020   72.7500 C.3   578  AG6578      0.0001
     14  C15        7.4700   31.6630   76.0250 C.3   578  AG6578      0.0298
     15  C22        7.8270   33.0710   76.5160 C.3   578  AG6578      0.0709
     16  C23        7.1360   34.1690   75.7190 C.2   578  AG6578      0.1731
     17  C24       14.1760   33.1850   75.3620 C.ar  578  AG6578     -0.0042
     18  C25       15.5830   33.1050   75.3150 C.ar  578  AG6578     -0.0003
     19  C26       13.4670   33.8630   74.3590 C.ar  578  AG6578     -0.0200
     20  C27       16.2810   33.6950   74.2480 C.ar  578  AG6578     -0.0000
     21  C28       14.1760   34.4630   73.3080 C.ar  578  AG6578     -0.0042
     22  C29       15.5750   34.3840   73.2370 C.ar  578  AG6578     -0.0003
     23  C30        7.5160   35.5400   76.0250 C.ar  578  AG6578      0.0347
     24  C31        7.4340   36.4820   74.9620 C.ar  578  AG6578      0.0028
     25  C32        7.9020   35.8980   77.3390 C.ar  578  AG6578      0.0028
     26  C33        7.7750   37.8350   75.2210 C.ar  578  AG6578      0.0001
     27  C34        8.2300   37.2320   77.5880 C.ar  578  AG6578      0.0001
     28  C35        8.1690   38.1670   76.5340 C.ar  578  AG6578      0.0000
@<TRIPOS>BOND
     1     5     1   am
     2     5     3    2
     3     1     7    1
     4    13    12    1
     5    12    11    1
     6    22    21   ar
     7    22    20   ar
     8    21    19   ar
     9     4     9    2
    10     9     7    1
    11     9     2   am
    12     7     8    1
    13    20    18   ar
    14    11    10    1
    15    19     8    1
    16    19    17   ar
    17     2    10    1
    18    10    14    1
    19     6    16    2
    20    24    26   ar
    21    24    23   ar
    22    26    28   ar
    23    18    17   ar
    24    16    23    1
    25    16    15    1
    26    14    15    1
    27    23    25   ar
    28    28    27   ar
    29    25    27   ar
