@<TRIPOS>MOLECULE
3frz_AG0_A_1.pdb
 37 41 0 0 0
SMALL
GASTEIGER

@<TRIPOS>ATOM
      1  O19       44.3910   15.1730   53.4050 O.2   577  AG0577     -0.2451
      2  C17       43.3270   14.6420   53.3930 C.2   577  AG0577      0.3408
      3  C18       43.0870   13.5250   52.4850 C.2   577  AG0577      0.1041
      4  C13       41.8380   12.9230   52.5130 C.2   577  AG0577      0.1799
      5  O20       41.5840   11.8920   51.6950 O.2   577  AG0577     -0.2913
      6  C1        44.2620   13.0230   51.5630 C.3   577  AG0577      0.1501
      7  C9        44.5410   13.8790   50.3340 C.1   577  AG0577      0.0988
      8  N8        45.7290   14.0770   49.8250 N.2   577  AG0577     -0.1008
      9  N10       43.5340   14.5690   49.6350 N.2   577  AG0577     -0.2744
     10  C4        44.1590   15.1600   48.6940 C.1   577  AG0577      0.2355
     11  N5        45.4790   14.8470   48.8200 N.pl3 577  AG0577     -0.1069
     12  C6        46.3370   15.3880   47.9440 C.2   577  AG0577      0.0673
     13  C7        45.8850   16.2230   46.9550 C.2   577  AG0577      0.0418
     14  C12       47.7950   15.0410   48.0970 C.3   577  AG0577      0.0505
     15  N3        43.6220   15.9730   47.7660 N.2   577  AG0577     -0.3306
     16  C2        44.5030   16.4880   46.8930 C.2   577  AG0577      0.1241
     17  C11       43.9820   17.4050   45.8200 C.3   577  AG0577      0.0675
     18  O16       42.3030   15.0680   54.1570 O.3   577  AG0577     -0.4524
     19  C15       41.0500   14.4180   54.3730 C.3   577  AG0577      0.1437
     20  C14       40.6630   13.3270   53.3690 C.3   577  AG0577      0.1090
     21  C27       39.9540   15.4580   54.7220 C.3   577  AG0577      0.0372
     22  C23       38.6510   14.9170   55.3320 C.3   577  AG0577      0.0035
     23  C26       39.5430   16.3050   53.5470 C.3   577  AG0577      0.0035
     24  C25       38.1800   16.9360   53.9030 C.3   577  AG0577      0.0001
     25  C24       37.6030   15.9930   54.9470 C.3   577  AG0577      0.0001
     26  C21       41.3930   13.5900   55.6550 C.3   577  AG0577      0.0449
     27  C22       41.9230   14.4070   56.8880 C.3   577  AG0577      0.0261
     28  C29       42.2090   13.4780   58.0000 C.2   577  AG0577     -0.0353
     29  C30       43.4390   12.7680   58.1400 C.3   577  AG0577      0.0764
     30  C28       41.2750   13.2220   58.9650 C.2   577  AG0577      0.0194
     31  C33       41.4860   12.3590   59.9760 C.2   577  AG0577      0.1075
     32  C34       40.3700   12.1700   60.9790 C.3   577  AG0577      0.0589
     33  C35       40.6310   12.9700   62.2710 C.3   577  AG0577      0.0079
     34  N32       42.6520   11.6790   60.1470 N.2   577  AG0577     -0.4145
     35  C31       43.5830   11.9150   59.2220 C.2   577  AG0577      0.0903
     36  C36       44.8850   11.1630   59.3880 C.3   577  AG0577      0.0547
     37  C37       44.9860   10.0280   58.3810 C.3   577  AG0577      0.0075
@<TRIPOS>BOND
     1    17    16    1
     2    16    13    1
     3    16    15    2
     4    13    12    2
     5    15    10    2
     6    12    14    1
     7    12    11    1
     8    10    11    1
     9    10     9    2
    10    11     8    1
    11     9     7    2
    12     8     7    2
    13     7     6    1
    14     6     3    1
    15     5     4    1
    16     3     4    2
    17     3     2    1
    18     4    20    1
    19    20    19    1
    20     2     1    2
    21     2    18    1
    22    23    24    1
    23    23    21    1
    24    24    25    1
    25    18    19    1
    26    19    21    1
    27    19    26    1
    28    21    22    1
    29    25    22    1
    30    26    27    1
    31    27    28    1
    32    28    29    1
    33    28    30    2
    34    29    35    1
    35    37    36    1
    36    30    31    1
    37    35    36    1
    38    35    34    2
    39    31    34    2
    40    31    32    1
    41    32    33    1
