@<TRIPOS>MOLECULE
3fs4_HEM_A_1.pdb
 43 50 0 0 0
SMALL
GASTEIGER

@<TRIPOS>ATOM
      1 FE         33.0840  -17.3950   13.4260 Fe    150  HEM150      0.0000
      2  CHA       35.1480  -19.8490   14.7850 C.2   150  HEM150      0.0000
      3  CHB       30.9920  -17.7160   16.2490 C.2   150  HEM150      0.0000
      4  CHC       31.0390  -14.7220   12.4050 C.2   150  HEM150      0.0000
      5  CHD       34.7620  -17.3310   10.5890 C.2   150  HEM150      0.0000
      6  NA        33.0990  -18.5160   15.2210 N.2   150  HEM150      0.0000
      7  C1A       34.0220  -19.5170   15.5150 C.2   150  HEM150      0.0000
      8  C2A       33.5760  -20.1890   16.7010 C.2   150  HEM150      0.0000
      9  C3A       32.4250  -19.6150   17.0980 C.2   150  HEM150      0.0000
     10  C4A       32.0850  -18.5510   16.1650 C.2   150  HEM150      0.0000
     11  CMA       31.5510  -20.0020   18.3120 C.3   150  HEM150      0.0000
     12  CAA       34.3110  -21.3770   17.3510 C.3   150  HEM150      0.0000
     13  CBA       35.4040  -20.8300   18.2670 C.3   150  HEM150      0.0000
     14  CGA       36.2350  -21.9620   18.8450 C.2   150  HEM150      0.0000
     15  O1A       37.1600  -21.6110   19.6210 O.co2 150  HEM150      0.0000
     16  O2A       35.9960  -23.1840   18.5620 O.co2 150  HEM150      0.0000
     17  NB        31.2930  -16.3730   14.1900 N.ar  150  HEM150      0.0000
     18  C1B       30.6300  -16.7240   15.3480 C.ar  150  HEM150      0.0000
     19  C2B       29.4760  -15.8630   15.4510 C.ar  150  HEM150      0.0000
     20  C3B       29.4830  -15.0320   14.3960 C.ar  150  HEM150      0.0000
     21  C4B       30.6390  -15.3430   13.5760 C.ar  150  HEM150      0.0000
     22  CMB       28.4190  -15.8740   16.5900 C.3   150  HEM150      0.0000
     23  CAB       28.4050  -13.9460   14.1170 C.2   150  HEM150      0.0000
     24  CBB       28.4530  -12.7530   14.7290 C.2   150  HEM150      0.0000
     25  NC        32.9410  -16.1680   11.7910 N.2   150  HEM150      0.0000
     26  C1C       32.0120  -15.1800   11.5290 C.2   150  HEM150      0.0000
     27  C2C       32.2070  -14.7910   10.1520 C.2   150  HEM150      0.0000
     28  C3C       33.2510  -15.5060    9.6650 C.2   150  HEM150      0.0000
     29  C4C       33.7240  -16.4070   10.6900 C.2   150  HEM150      0.0000
     30  CMC       31.3830  -13.6730    9.4510 C.3   150  HEM150      0.0000
     31  CAC       33.8960  -15.4470    8.2670 C.2   150  HEM150      0.0000
     32  CBC       33.1520  -15.2380    7.1840 C.2   150  HEM150      0.0000
     33  ND        34.7350  -18.4730   12.8250 N.ar  150  HEM150      0.0000
     34  C1D       35.2200  -18.2560   11.5260 C.ar  150  HEM150      0.0000
     35  C2D       36.2950  -19.1910   11.3060 C.ar  150  HEM150      0.0000
     36  C3D       36.4380  -19.9540   12.6140 C.ar  150  HEM150      0.0000
     37  C4D       35.4060  -19.4630   13.5020 C.ar  150  HEM150      0.0000
     38  CMD       37.1800  -19.3930   10.0550 C.3   150  HEM150      0.0000
     39  CAD       37.4550  -21.0810   12.8010 C.3   150  HEM150      0.0000
     40  CBD       36.5900  -22.3300   12.6310 C.3   150  HEM150      0.0000
     41  CGD       37.4210  -23.5680   12.6320 C.2   150  HEM150      0.0000
     42  O1D       36.8740  -24.5570   13.1490 O.co2 150  HEM150      0.0000
     43  O2D       38.5690  -23.5920   12.0940 O.co2 150  HEM150      0.0000
@<TRIPOS>BOND
     1    32    31    2
     2    31    28    1
     3    30    27    1
     4    28    27    2
     5    28    29    1
     6    38    35    1
     7    27    26    1
     8     5    29    1
     9     5    34    2
    10    29    25    2
    11    35    34   ar
    12    35    36   ar
    13    34    33   ar
    14    26    25    1
    15    26     4    2
    16    25     1    1
    17    43    41   ar
    18     4    21    1
    19    36    39    1
    20    36    37   ar
    21    40    41    1
    22    40    39    1
    23    41    42   ar
    24    33     1    1
    25    33    37   ar
    26     1    17    1
    27     1     6    1
    28    37     2    2
    29    21    17   ar
    30    21    20   ar
    31    23    20    1
    32    23    24    2
    33    17    18   ar
    34    20    19   ar
    35     2     7    1
    36     6     7    2
    37     6    10    1
    38    18    19   ar
    39    18     3    1
    40    19    22    1
    41     7     8    1
    42    10     3    2
    43    10     9    1
    44     8     9    2
    45     8    12    1
    46     9    11    1
    47    12    13    1
    48    13    14    1
    49    16    14   ar
    50    14    15   ar
