@<TRIPOS>MOLECULE
3fs6_NDP_A_1.pdb
 48 52 0 0 0
SMALL
GASTEIGER

@<TRIPOS>ATOM
      1  PA        -5.9910   22.4450   10.2110 P.3   188  NDP188      0.2189
      2  O1A       -5.0880   21.4620    9.6200 O.2   188  NDP188     -0.5170
      3  O2A       -5.7430   23.8590    9.8710 O.3   188  NDP188     -0.4371
      4  O5B       -5.9290   22.1960   11.7690 O.3   188  NDP188     -0.3112
      5  C5B       -6.6900   22.9890   12.6400 C.3   188  NDP188      0.1813
      6  C4B       -5.9660   22.8220   13.9080 C.3   188  NDP188      0.1820
      7  O4B       -4.5480   23.0450   13.4780 O.3   188  NDP188     -0.3136
      8  C3B       -6.2190   23.8590   14.9640 C.3   188  NDP188      0.2157
      9  O3B       -7.2890   23.4420   15.8260 O.3   188  NDP188     -0.2175
     10  C2B       -4.8850   23.5390   15.5780 C.3   188  NDP188      0.2314
     11  O2B       -4.6380   24.3250   16.6420 O.3   188  NDP188     -0.2630
     12  C1B       -3.9260   23.8920   14.4400 C.3   188  NDP188      0.3158
     13  N9A       -3.7230   25.2930   13.7880 N.pl3 188  NDP188     -0.1439
     14  C8A       -4.2670   25.7090   12.6290 C.3   188  NDP188      0.3377
     15  N7A       -3.8450   26.9480   12.3460 N.2   188  NDP188     -0.2095
     16  C5A       -3.0030   27.3320   13.3000 C.2   188  NDP188      0.2526
     17  C6A       -2.2660   28.4950   13.5310 C.2   188  NDP188      0.4393
     18  N6A       -2.3150   29.5290   12.6890 N.pl3 188  NDP188      0.2180
     19  N1A       -1.4890   28.5640   14.6300 N.2   188  NDP188      0.0021
     20  C2A       -1.4240   27.5480   15.4850 C.3   188  NDP188      0.5254
     21  N3A       -2.1150   26.4350   15.2890 N.2   188  NDP188     -0.0055
     22  C4A       -2.9180   26.2840   14.2150 C.2   188  NDP188      0.3518
     23  O3        -7.5870   21.9410   10.0110 O.3   188  NDP188     -0.2703
     24  PN        -8.7870   21.9510    8.8860 P.3   188  NDP188      0.2189
     25  O1N       -8.8230   23.2610    8.2090 O.2   188  NDP188     -0.5170
     26  O2N      -10.0050   21.4490    9.5700 O.3   188  NDP188     -0.4371
     27  O5D       -8.3620   20.8190    7.8750 O.3   188  NDP188     -0.3112
     28  C5D       -9.4180   19.8500    7.7400 C.3   188  NDP188      0.1813
     29  C4D       -9.3190   18.9190    6.5630 C.3   188  NDP188      0.1799
     30  O4D       -8.8540   19.6300    5.4190 O.3   188  NDP188     -0.3327
     31  C3D       -8.2380   17.8740    6.8230 C.3   188  NDP188      0.2158
     32  O3D       -8.7830   16.7660    7.5370 O.3   188  NDP188     -0.2175
     33  C2D       -7.8410   17.4670    5.4020 C.3   188  NDP188      0.2309
     34  O2D       -8.4140   16.2210    4.9860 O.3   188  NDP188     -0.2158
     35  C1D       -8.4120   18.5900    4.5290 C.3   188  NDP188      0.2263
     36  N1N       -7.3220   19.1330    3.7100 N.pl3 188  NDP188     -0.2787
     37  C2N       -7.4820   19.1030    2.3300 C.3   188  NDP188      0.1244
     38  C3N       -6.4860   19.6090    1.5180 C.2   188  NDP188      0.0544
     39  C7N       -6.6740   19.5810   -0.0010 C.2   188  NDP188      0.2818
     40  O7N       -5.7830   19.9850   -0.7360 O.2   188  NDP188     -0.2670
     41  N7N       -7.8460   19.1050   -0.4460 N.am  188  NDP188     -0.0839
     42  C4N       -5.3280   20.1470    2.1020 C.2   188  NDP188      0.0033
     43  C5N       -5.1590   20.1680    3.4920 C.2   188  NDP188      0.0157
     44  C6N       -6.1570   19.6610    4.3120 C.2   188  NDP188      0.0633
     45  P2B       -4.6600   23.7250   18.1030 P.3   188  NDP188      0.5328
     46  O1X       -3.9480   22.2850   18.3040 O.2   188  NDP188     -0.2224
     47  O2X       -6.2180   23.6920   18.5320 O.3   188  NDP188     -0.1145
     48  O3X       -3.9500   24.8070   18.8050 O.3   188  NDP188     -0.1145
@<TRIPOS>BOND
     1    40    39    2
     2    41    39   am
     3    39    38    1
     4    38    42    2
     5    38    37    1
     6    42    43    1
     7    37    36    1
     8    43    44    2
     9    36    44    1
    10    36    35    1
    11    35    33    1
    12    35    30    1
    13    34    33    1
    14    33    31    1
    15    30    29    1
    16    29    31    1
    17    29    28    1
    18    31    32    1
    19    28    27    1
    20    27    24    1
    21    25    24    2
    22    24    26    1
    23    24    23    1
    24     2     1    2
    25     3     1    1
    26    23     1    1
    27     1     4    1
    28     4     5    1
    29    15    14    1
    30    15    16    2
    31    14    13    1
    32     5     6    1
    33    18    17    1
    34    16    17    1
    35    16    22    1
    36     7     6    1
    37     7    12    1
    38    17    19    2
    39    13    22    1
    40    13    12    1
    41     6     8    1
    42    22    21    2
    43    12    10    1
    44    19    20    1
    45     8    10    1
    46     8     9    1
    47    21    20    1
    48    10    11    1
    49    11    45    1
    50    45    46    2
    51    45    47    1
    52    45    48    1
