@<TRIPOS>MOLECULE
3fs6_DH1_A_1.pdb
 25 26 0 0 0
SMALL
GASTEIGER

@<TRIPOS>ATOM
      1  C16       -2.1120   17.9850    3.4860 C.3   187  DH1187      0.2525
      2  O1        -2.2090   17.8920    2.0620 O.3   187  DH1187     -0.4717
      3  C2'       -1.9270   16.6560    1.5860 C.ar  187  DH1187      0.1352
      4  C3'       -0.8890   15.8910    2.1310 C.ar  187  DH1187      0.0397
      5  C4'       -0.6230   14.6340    1.6050 C.ar  187  DH1187      0.0400
      6  C5'       -1.4020   14.1420    0.5670 C.ar  187  DH1187      0.1384
      7  O5'       -1.1500   12.9080    0.0560 O.3   187  DH1187     -0.4755
      8  C52       -0.4360   13.0290   -1.1670 C.3   187  DH1187      0.2054
      9  C1         0.4420   11.8060   -1.3610 C.3   187  DH1187      0.0479
     10  C3         1.7470   12.2480   -1.9930 C.3   187  DH1187      0.0156
     11  C7         2.9080   11.4740   -1.3840 C.3   187  DH1187      0.1142
     12  C8         4.0020   12.4020   -0.8400 C.2   187  DH1187      0.3649
     13  O9         4.9470   11.8390   -0.2610 O.co2 187  DH1187     -0.2457
     14  O10        3.8870   13.6410   -1.0060 O.co2 187  DH1187     -0.2457
     15  C6'       -2.4330   14.9130    0.0370 C.ar  187  DH1187      0.0360
     16  C1'       -2.7080   16.1800    0.5340 C.ar  187  DH1187      0.0194
     17  C51       -3.8780   16.9590   -0.0890 C.3   187  DH1187      0.0615
     18  C5        -3.5140   17.7020   -1.3800 C.2   187  DH1187      0.0501
     19  C6        -3.7510   17.0300   -2.5690 C.2   187  DH1187      0.1118
     20  N1        -3.4770   17.6260   -3.7210 N.2   187  DH1187     -0.1675
     21  C2        -2.9870   18.8880   -3.7860 C.1   187  DH1187      0.1877
     22  N2        -2.7380   19.4380   -4.9600 N.pl3 187  DH1187     -0.0345
     23  N3        -2.7580   19.5890   -2.6800 N.2   187  DH1187     -0.3170
     24  C4        -3.0050   19.0120   -1.4840 C.2   187  DH1187      0.2297
     25  N4        -2.7590   19.7390   -0.3970 N.pl3 187  DH1187     -0.0924
@<TRIPOS>BOND
     1    22    21    1
     2    21    20    2
     3    21    23    2
     4    20    19    1
     5    23    24    2
     6    19    18    2
     7    10    11    1
     8    10     9    1
     9    24    18    1
    10    24    25    1
    11    11    12    1
    12    18    17    1
    13     9     8    1
    14     8     7    1
    15    14    12   ar
    16    12    13   ar
    17    17    16    1
    18    15    16   ar
    19    15     6   ar
    20     7     6    1
    21    16     3   ar
    22     6     5   ar
    23     3     2    1
    24     3     4   ar
    25     5     4   ar
    26     2     1    1
