@<TRIPOS>MOLECULE
3fsb_COA_A_1.pdb
 48 50 0 0 0
SMALL
GASTEIGER

@<TRIPOS>ATOM
      1  N1A        0.1600   -7.5990  -37.7620 N.2   300  COA300      0.0021
      2  C2A       -0.1260   -7.2910  -36.4990 C.3   300  COA300      0.5254
      3  N3A       -0.5260   -8.2030  -35.6340 N.2   300  COA300     -0.0055
      4  C4A       -0.6360   -9.4800  -35.9990 C.2   300  COA300      0.3518
      5  C5A       -0.3320   -9.8610  -37.3290 C.2   300  COA300      0.2526
      6  C6A        0.0800   -8.8530  -38.2350 C.2   300  COA300      0.4393
      7  N6A        0.4170   -9.1230  -39.5840 N.pl3 300  COA300      0.2180
      8  N7A       -0.5290  -11.2060  -37.4070 N.2   300  COA300     -0.2095
      9  C8A       -0.9290  -11.6540  -36.2460 C.3   300  COA300      0.3377
     10  N9A       -1.0130  -10.6250  -35.3500 N.pl3 300  COA300     -0.1439
     11  C1B       -1.4560  -10.7050  -33.9590 C.3   300  COA300      0.3185
     12  C2B       -2.7970  -11.5140  -33.9380 C.3   300  COA300      0.2543
     13  O2B       -3.9590  -10.6800  -34.1680 O.3   300  COA300     -0.2131
     14  C3B       -2.7110  -11.9540  -32.4710 C.3   300  COA300      0.1928
     15  O3B       -2.7140  -10.6920  -31.8090 O.3   300  COA300     -0.2673
     16  P3B       -3.4420  -10.8440  -30.3970 P.3   300  COA300      0.5327
     17  O7A       -2.4130  -10.6850  -29.3320 O.3   300  COA300     -0.1145
     18  O8A       -4.4690   -9.6040  -30.2790 O.3   300  COA300     -0.1145
     19  O9A       -4.1810  -12.2870  -30.3360 O.2   300  COA300     -0.2224
     20  C4B       -1.2500  -12.4420  -32.4320 C.3   300  COA300      0.1795
     21  O4B       -0.5300  -11.3600  -33.0490 O.3   300  COA300     -0.3136
     22  C5B       -0.9340  -13.6280  -33.3410 C.3   300  COA300      0.1812
     23  O5B       -1.7170  -14.7850  -33.1390 O.3   300  COA300     -0.3112
     24  P1A       -1.7330  -15.3900  -34.6360 P.3   300  COA300      0.2189
     25  O1A       -2.8750  -14.7820  -35.3800 O.2   300  COA300     -0.5170
     26  O2A       -1.9450  -16.9900  -34.5430 O.3   300  COA300     -0.4371
     27  O3A       -0.3180  -15.0350  -35.3720 O.3   300  COA300     -0.2703
     28  P2A        0.0330  -16.1320  -36.5220 P.3   300  COA300      0.2188
     29  O4A        0.5660  -17.3380  -35.8480 O.3   300  COA300     -0.4371
     30  O5A       -1.3010  -16.4620  -37.3810 O.2   300  COA300     -0.5170
     31  O6A        1.1790  -15.6700  -37.5590 O.3   300  COA300     -0.3138
     32  CBP        1.4290  -14.4520  -39.7650 C.3   300  COA300      0.0645
     33  CCP        0.6630  -14.6380  -38.4180 C.3   300  COA300      0.1519
     34  CDP        1.5730  -15.7540  -40.5960 C.3   300  COA300      0.0056
     35  CEP        2.8300  -13.8600  -39.6020 C.3   300  COA300      0.0056
     36  CAP        0.5810  -13.4090  -40.4830 C.3   300  COA300      0.2312
     37  OAP        0.4790  -12.2180  -39.6960 O.3   300  COA300     -0.2131
     38  C9P        0.9410  -13.1100  -41.9130 C.2   300  COA300      0.2719
     39  O9P        1.4500  -12.0540  -42.2050 O.2   300  COA300     -0.2706
     40  N8P        0.6630  -14.0170  -42.8640 N.am  300  COA300     -0.2028
     41  C7P        0.9690  -13.7480  -44.2550 C.3   300  COA300      0.1248
     42  C6P       -0.2870  -13.2480  -45.0210 C.3   300  COA300      0.1102
     43  C5P        0.2400  -12.9100  -46.4090 C.2   300  COA300      0.2432
     44  O5P        0.5650  -11.7820  -46.7320 O.2   300  COA300     -0.2733
     45  N4P        0.4030  -13.8460  -47.3480 N.am  300  COA300     -0.2044
     46  C3P        0.9640  -13.3510  -48.6080 C.3   300  COA300      0.1276
     47  C2P       -0.0990  -12.6780  -49.4780 C.3   300  COA300      0.0920
     48  S1P       -1.0200  -14.0190  -50.2680 S.3   300  COA300     -0.0802
@<TRIPOS>BOND
     1    48    47    1
     2    47    46    1
     3    46    45    1
     4    45    43   am
     5    44    43    2
     6    43    42    1
     7    42    41    1
     8    41    40    1
     9    40    38   am
    10    39    38    2
    11    38    36    1
    12    34    32    1
    13    36    32    1
    14    36    37    1
    15    32    35    1
    16    32    33    1
    17     7     6    1
    18    33    31    1
    19     6     1    2
    20     6     5    1
    21     1     2    1
    22    31    28    1
    23     8     5    2
    24     8     9    1
    25    30    28    2
    26     5     4    1
    27    28    29    1
    28    28    27    1
    29     2     3    1
    30     9    10    1
    31     4     3    2
    32     4    10    1
    33    25    24    2
    34    27    24    1
    35    10    11    1
    36    24    26    1
    37    24    23    1
    38    13    12    1
    39    11    12    1
    40    11    21    1
    41    12    14    1
    42    22    23    1
    43    22    20    1
    44    21    20    1
    45    14    20    1
    46    14    15    1
    47    15    16    1
    48    16    19    2
    49    16    18    1
    50    16    17    1
