@<TRIPOS>MOLECULE
3fsb_T3Q_A_1.pdb
 35 37 0 0 0
SMALL
GASTEIGER

@<TRIPOS>ATOM
      1  O4        -0.8740  -16.5280  -65.9890 O.2   301  T3Q301     -0.2088
      2  C4        -0.3280  -15.7440  -65.2260 C.1   301  T3Q301      0.2134
      3  N3        -0.6200  -14.4250  -65.3640 N.2   301  T3Q301     -0.2455
      4  C2        -0.0470  -13.5180  -64.5470 C.1   301  T3Q301      0.2844
      5  O2        -0.3430  -12.3570  -64.7180 O.2   301  T3Q301     -0.1918
      6  C5         0.6060  -16.1480  -64.2020 C.2   301  T3Q301      0.0891
      7  C5M        1.0190  -17.5890  -63.9880 C.3   301  T3Q301      0.0462
      8  C6         1.1600  -15.1990  -63.3850 C.2   301  T3Q301      0.0877
      9  N1         0.8210  -13.8740  -63.5640 N.am  301  T3Q301     -0.1794
     10  C1'        1.3870  -12.8450  -62.6770 C.3   301  T3Q301      0.2090
     11  O4'        2.5070  -13.3810  -61.9480 O.3   301  T3Q301     -0.3339
     12  C2'        0.2960  -12.5590  -61.6190 C.3   301  T3Q301      0.0874
     13  C3'        1.0790  -12.2940  -60.3250 C.3   301  T3Q301      0.1857
     14  O3'        1.3140  -10.9010  -60.1940 O.3   301  T3Q301     -0.2203
     15  C4'        2.4120  -13.0650  -60.5250 C.3   301  T3Q301      0.1773
     16  C5'        2.3140  -14.3690  -59.7210 C.3   301  T3Q301      0.1812
     17  O5'        1.1740  -15.0620  -60.2330 O.3   301  T3Q301     -0.3112
     18  PA         1.2280  -16.5710  -59.6920 P.3   301  T3Q301      0.2189
     19  O1A        2.3600  -17.2940  -60.3420 O.2   301  T3Q301     -0.5170
     20  O2A       -0.2200  -17.1660  -60.0710 O.3   301  T3Q301     -0.4371
     21  O3A        1.3210  -16.4600  -58.0800 O.3   301  T3Q301     -0.2703
     22  PB         2.2240  -17.5540  -57.3000 P.3   301  T3Q301      0.2208
     23  O1B        3.6990  -17.3070  -57.3810 O.3   301  T3Q301     -0.4371
     24  O2B        1.8530  -19.0370  -57.7690 O.2   301  T3Q301     -0.5170
     25  O3B        1.8420  -17.3280  -55.7640 O.3   301  T3Q301     -0.2858
     26  O4Q        1.7330  -17.5480  -51.2490 O.3   301  T3Q301     -0.2189
     27  C4Q        1.0800  -18.0050  -52.4390 C.3   301  T3Q301      0.1990
     28  C5Q        2.0480  -18.7010  -53.3870 C.3   301  T3Q301      0.1497
     29  O5Q        1.3070  -19.2160  -54.4880 O.3   301  T3Q301     -0.3282
     30  C6Q        2.7650  -19.8610  -52.6900 C.3   301  T3Q301      0.0349
     31  C3Q        0.4980  -16.8220  -53.2110 C.3   301  T3Q301      0.1598
     32  N3Q       -0.3590  -16.0120  -52.3330 N.3   301  T3Q301     -0.1273
     33  C2Q       -0.2700  -17.3510  -54.4430 C.3   301  T3Q301      0.2282
     34  O2Q       -0.6320  -16.2690  -55.3190 O.3   301  T3Q301     -0.2160
     35  C1Q        0.7350  -18.1670  -55.2550 C.3   301  T3Q301      0.2729
@<TRIPOS>BOND
     1     1     2    2
     2     3     2    2
     3     3     4    2
     4     2     6    1
     5     5     4    2
     6     4     9   am
     7     6     7    1
     8     6     8    2
     9     9     8    1
    10     9    10    1
    11    10    11    1
    12    10    12    1
    13    11    15    1
    14    12    13    1
    15    15    13    1
    16    15    16    1
    17    19    18    2
    18    13    14    1
    19    17    16    1
    20    17    18    1
    21    20    18    1
    22    18    21    1
    23    21    22    1
    24    24    22    2
    25    23    22    1
    26    22    25    1
    27    25    35    1
    28    34    33    1
    29    35    29    1
    30    35    33    1
    31    29    28    1
    32    33    31    1
    33    28    30    1
    34    28    27    1
    35    31    27    1
    36    31    32    1
    37    27    26    1
