@<TRIPOS>MOLECULE
3fsc_COA_A_1.pdb
 48 50 0 0 0
SMALL
GASTEIGER

@<TRIPOS>ATOM
      1  N1A       33.4370   11.7530   38.2300 N.2   300  COA300      0.0021
      2  C2A       33.7570   12.0680   36.9670 C.3   300  COA300      0.5254
      3  N3A       34.1470   11.1700   36.0640 N.2   300  COA300     -0.0055
      4  C4A       34.2220    9.8770   36.4470 C.2   300  COA300      0.3518
      5  C5A       33.8750    9.4910   37.7870 C.2   300  COA300      0.2526
      6  C6A       33.4770   10.4820   38.6850 C.2   300  COA300      0.4393
      7  N6A       33.1230   10.1250   39.9880 N.pl3 300  COA300      0.2180
      8  N7A       34.0290    8.1380   37.8800 N.2   300  COA300     -0.2095
      9  C8A       34.4490    7.6880   36.7220 C.3   300  COA300      0.3377
     10  N9A       34.5820    8.7090   35.8190 N.pl3 300  COA300     -0.1439
     11  C1B       35.0420    8.6080   34.4260 C.3   300  COA300      0.3185
     12  C2B       36.4390    7.8830   34.3430 C.3   300  COA300      0.2543
     13  O2B       37.5590    8.7790   34.4860 O.3   300  COA300     -0.2131
     14  C3B       36.3490    7.3720   32.8660 C.3   300  COA300      0.1928
     15  O3B       36.5170    8.5450   32.0390 O.3   300  COA300     -0.2673
     16  P3B       37.5170    8.4440   30.7540 P.3   300  COA300      0.5327
     17  O7A       37.9030    7.0280   30.5580 O.3   300  COA300     -0.1145
     18  O8A       36.8130    9.0170   29.4180 O.2   300  COA300     -0.2224
     19  O9A       38.7670    9.4090   31.0900 O.3   300  COA300     -0.1145
     20  C4B       34.8570    6.9110   32.8330 C.3   300  COA300      0.1795
     21  O4B       34.1030    7.7880   33.6970 O.3   300  COA300     -0.3136
     22  C5B       34.6200    5.5070   33.4150 C.3   300  COA300      0.1812
     23  O5B       35.6530    5.3350   34.3540 O.3   300  COA300     -0.3112
     24  P1A       35.2640    4.0360   35.1730 P.3   300  COA300      0.2189
     25  O1A       36.5090    3.7290   35.9310 O.3   300  COA300     -0.4371
     26  O2A       34.8500    2.8100   34.2320 O.2   300  COA300     -0.5170
     27  O3A       34.0050    4.3730   36.1050 O.3   300  COA300     -0.2703
     28  P2A       34.2780    3.6890   37.5350 P.3   300  COA300      0.2188
     29  O4A       33.5980    2.3610   37.5080 O.2   300  COA300     -0.5170
     30  O5A       35.8580    3.6220   37.8980 O.3   300  COA300     -0.4371
     31  O6A       33.7430    4.6770   38.6790 O.3   300  COA300     -0.3138
     32  CBP       31.9410    5.0660   40.1020 C.3   300  COA300      0.0645
     33  CCP       32.3300    4.8070   38.6380 C.3   300  COA300      0.1519
     34  CDP       31.8650    3.6750   40.7780 C.3   300  COA300      0.0056
     35  CEP       30.5630    5.7640   40.1250 C.3   300  COA300      0.0056
     36  CAP       33.0150    5.9770   40.7790 C.3   300  COA300      0.2312
     37  OAP       33.0600    7.2630   40.1530 O.3   300  COA300     -0.2131
     38  C9P       32.7090    6.1830   42.2300 C.2   300  COA300      0.2719
     39  O9P       31.9520    7.0490   42.6050 O.2   300  COA300     -0.2706
     40  N8P       33.2530    5.3990   43.1670 N.am  300  COA300     -0.2028
     41  C7P       32.8300    5.6920   44.5300 C.3   300  COA300      0.1248
     42  C6P       33.9710    6.2880   45.3680 C.3   300  COA300      0.1102
     43  C5P       33.3320    6.5460   46.7190 C.2   300  COA300      0.2432
     44  O5P       32.8970    7.6500   46.9930 O.2   300  COA300     -0.2733
     45  N4P       33.2260    5.5270   47.5880 N.am  300  COA300     -0.2044
     46  C3P       32.5890    5.7420   48.8870 C.3   300  COA300      0.1276
     47  C2P       33.4860    6.4170   49.9210 C.3   300  COA300      0.0920
     48  S1P       34.7180    5.2320   50.4990 S.3   300  COA300     -0.0802
@<TRIPOS>BOND
     1    18    16    2
     2    17    16    1
     3    16    19    1
     4    16    15    1
     5    15    14    1
     6    20    14    1
     7    20    22    1
     8    20    21    1
     9    14    12    1
    10    22    23    1
    11    21    11    1
    12    26    24    2
    13    12    11    1
    14    12    13    1
    15    23    24    1
    16    11    10    1
    17    24    25    1
    18    24    27    1
    19    10     4    1
    20    10     9    1
    21     3     4    2
    22     3     2    1
    23    27    28    1
    24     4     5    1
    25     9     8    1
    26     2     1    1
    27    29    28    2
    28    28    30    1
    29    28    31    1
    30     5     8    2
    31     5     6    1
    32     1     6    2
    33    33    31    1
    34    33    32    1
    35     6     7    1
    36    32    35    1
    37    32    34    1
    38    32    36    1
    39    37    36    1
    40    36    38    1
    41    38    39    2
    42    38    40   am
    43    40    41    1
    44    41    42    1
    45    42    43    1
    46    43    44    2
    47    43    45   am
    48    45    46    1
    49    46    47    1
    50    47    48    1
