@<TRIPOS>MOLECULE
3fsc_T3F_A_1.pdb
 35 37 0 0 0
SMALL
GASTEIGER

@<TRIPOS>ATOM
      1  O2B       31.0030    0.3200   58.1170 O.3   301  T3F301     -0.4371
      2  PB        31.0830    1.8500   57.6540 P.3   301  T3F301      0.2208
      3  O1B       29.7550    2.5210   57.7030 O.2   301  T3F301     -0.5170
      4  O3B       31.5510    2.0420   56.1220 O.3   301  T3F301     -0.2858
      5  C1Q       32.5000    1.0830   55.5680 C.3   301  T3F301      0.2729
      6  O5Q       31.7530    0.2570   54.6920 O.3   301  T3F301     -0.3282
      7  C5Q       31.1740    1.0400   53.6350 C.3   301  T3F301      0.1497
      8  C6Q       30.4360    0.0330   52.7450 C.3   301  T3F301      0.0349
      9  C2Q       33.7110    1.7500   54.8880 C.3   301  T3F301      0.2282
     10  O2Q       34.2770    2.6300   55.8740 O.3   301  T3F301     -0.2160
     11  C3Q       33.1930    2.5750   53.6970 C.3   301  T3F301      0.1598
     12  N3Q       34.3290    3.1900   52.9380 N.3   301  T3F301     -0.1273
     13  C4Q       32.2800    1.6990   52.8020 C.3   301  T3F301      0.1990
     14  O4Q       33.0750    0.6340   52.2490 O.3   301  T3F301     -0.2189
     15  O3A       32.2380    2.6430   58.4650 O.3   301  T3F301     -0.2703
     16  PA        32.1680    2.7810   60.0840 P.3   301  T3F301      0.2189
     17  O1A       31.0580    2.0540   60.8040 O.3   301  T3F301     -0.4371
     18  O2A       33.5970    2.2080   60.5400 O.2   301  T3F301     -0.5170
     19  O5'       32.2240    4.3710   60.3400 O.3   301  T3F301     -0.3112
     20  C5'       30.9820    4.9960   60.0400 C.3   301  T3F301      0.1812
     21  C4'       31.0000    6.3740   60.7240 C.3   301  T3F301      0.1773
     22  O4'       30.9760    6.2480   62.1860 O.3   301  T3F301     -0.3339
     23  C3'       32.3180    7.1440   60.3670 C.3   301  T3F301      0.1857
     24  O3'       32.0750    8.5430   60.4220 O.3   301  T3F301     -0.2203
     25  C2'       33.2260    6.8080   61.5700 C.3   301  T3F301      0.0874
     26  C1'       32.2050    6.7180   62.7670 C.3   301  T3F301      0.2090
     27  N1        32.7400    5.6920   63.7000 N.am  301  T3F301     -0.1794
     28  C2        33.5520    6.0730   64.7400 C.1   301  T3F301      0.2844
     29  O2        33.8190    7.2580   64.9390 O.2   301  T3F301     -0.1918
     30  N3        34.0940    5.1400   65.5680 N.2   301  T3F301     -0.2455
     31  C6        32.4570    4.3440   63.5190 C.2   301  T3F301      0.0877
     32  C5        32.9820    3.3750   64.3450 C.2   301  T3F301      0.0891
     33  C5M       32.6460    1.9100   64.1030 C.3   301  T3F301      0.0462
     34  C4        33.8590    3.7980   65.4130 C.1   301  T3F301      0.2134
     35  O4        34.4020    3.0040   66.1960 O.2   301  T3F301     -0.2088
@<TRIPOS>BOND
     1    14    13    1
     2     8     7    1
     3    13     7    1
     4    13    11    1
     5    12    11    1
     6     7     6    1
     7    11     9    1
     8     6     5    1
     9     9     5    1
    10     9    10    1
    11     5     4    1
    12     4     2    1
    13     2     3    2
    14     2     1    1
    15     2    15    1
    16    15    16    1
    17    20    19    1
    18    20    21    1
    19    16    19    1
    20    16    18    2
    21    16    17    1
    22    23    24    1
    23    23    21    1
    24    23    25    1
    25    21    22    1
    26    25    26    1
    27    22    26    1
    28    26    27    1
    29    31    27    1
    30    31    32    2
    31    27    28   am
    32    33    32    1
    33    32    34    1
    34    28    29    2
    35    28    30    2
    36    34    30    2
    37    34    35    2
