@<TRIPOS>MOLECULE
3fsd_UNL_A_1.pdb
 10 1 0 0 0
SMALL
GASTEIGER

@<TRIPOS>ATOM
      1  O1        11.5120    1.2540    5.5050 O.3   134  UNL134      0.0000
      2  O2        10.3530    0.0110    6.3270 O.3   134  UNL134      0.0000
      3  O3         9.2620    0.8570    6.9420 O.3   134  UNL134      0.0000
      4  O4        11.2890    2.1100    7.6920 O.3   134  UNL134      0.0000
      5  O5        12.9730    0.1020    6.5220 O.3   134  UNL134      0.0000
      6  O6        12.2650   -3.4000    5.7210 O.3   134  UNL134      0.0000
      7  O7        13.7870   -1.9800    6.7280 O.3   134  UNL134      0.0000
      8  O8        10.6270   -1.7760    6.3030 O.3   134  UNL134      0.0000
      9  O9        10.1850   -2.6530    8.9880 O.3   134  UNL134      0.0000
     10  O10        9.3660   -0.2460    9.4760 O.3   134  UNL134      0.0000
@<TRIPOS>BOND
     1     2     3    1
