@<TRIPOS>MOLECULE
3fsf_FSS_A_1.pdb
 34 37 0 0 0
SMALL
GASTEIGER

@<TRIPOS>ATOM
      1  N3        23.1060   10.3110   32.9590 N.2   450  FSS450     -0.3206
      2  C4        23.3890    9.0890   32.4780 C.1   450  FSS450      0.1709
      3  C6        21.4030    8.9260   31.2220 C.2   450  FSS450      0.1130
      4  C7        21.0040   10.2470   31.6870 C.2   450  FSS450      0.0633
      5  C8        21.9550   10.9040   32.5940 C.2   450  FSS450      0.2022
      6  C10       20.4090   12.8830   32.7560 C.2   450  FSS450      0.3169
      7  C15       17.0560   12.4150   32.3290 C.ar  450  FSS450      0.0722
      8  C17       15.6700   13.9120   30.9360 C.ar  450  FSS450      0.0018
      9  C22       25.6300    9.1570   33.7480 C.ar  450  FSS450      0.0828
     10  C24       28.0060    9.6550   34.1730 C.ar  450  FSS450      0.0383
     11  C26       26.2290   10.5280   35.7030 C.ar  450  FSS450      0.0383
     12  N38       24.6390    8.4960   32.8980 N.pl3 450  FSS450     -0.1357
     13  C23       27.0090    9.0290   33.3750 C.ar  450  FSS450      0.0205
     14  C25       27.6170   10.4040   35.3390 C.ar  450  FSS450      0.1406
     15  O28       28.6230   10.9930   36.0860 O.3   450  FSS450     -0.4582
     16  C29       28.3650   11.7630   37.2670 C.3   450  FSS450      0.2846
     17  N30       29.4090   11.5420   38.2960 N.3   450  FSS450     -0.2359
     18  C32       28.8830   10.7780   39.4580 C.3   450  FSS450      0.0755
     19  C33       29.5870    9.4220   39.6120 C.3   450  FSS450      0.0189
     20  C31       29.9280   12.8580   38.7380 C.3   450  FSS450      0.0755
     21  C34       31.4390   12.9800   38.4860 C.3   450  FSS450      0.0189
     22  C27       25.2470    9.9080   34.9140 C.ar  450  FSS450      0.0205
     23  N5        22.5580    8.3810   31.6150 N.2   450  FSS450     -0.1685
     24  N9        21.6450   12.1960   33.1050 N.am  450  FSS450     -0.2156
     25  C37       22.5980   12.8750   34.0250 C.3   450  FSS450      0.1242
     26  O34       20.1180   14.0220   33.2050 O.2   450  FSS450     -0.2516
     27  N11       19.4790   12.1820   31.8440 N.am  450  FSS450     -0.2367
     28  C14       18.2380   12.7700   31.5110 C.ar  450  FSS450      0.0767
     29 CL36       17.1940   11.2920   33.6540 Cl    450  FSS450     -0.0809
     30  C16       15.7950   12.9960   32.0190 C.ar  450  FSS450      0.0127
     31  C18       16.8040   14.2680   30.1330 C.ar  450  FSS450      0.0127
     32  C19       18.0810   13.7190   30.3980 C.ar  450  FSS450      0.0722
     33 CL35       19.4260   14.1650   29.4120 Cl    450  FSS450     -0.0809
     34  C12       19.7960   10.8710   31.3190 C.3   450  FSS450      0.1318
@<TRIPOS>BOND
     1    33    32    1
     2    31    32   ar
     3    31     8   ar
     4    32    28   ar
     5     8    30   ar
     6     3    23    1
     7     3     4    2
     8    34     4    1
     9    34    27    1
    10    28    27    1
    11    28     7   ar
    12    23     2    2
    13     4     5    1
    14    27     6   am
    15    30     7   ar
    16     7    29    1
    17     2    12    1
    18     2     1    2
    19     5     1    2
    20     5    24    1
    21     6    24   am
    22     6    26    2
    23    12     9    1
    24    24    25    1
    25    13     9   ar
    26    13    10   ar
    27     9    22   ar
    28    10    14   ar
    29    22    11   ar
    30    14    11   ar
    31    14    15    1
    32    15    16    1
    33    16    17    1
    34    17    20    1
    35    17    18    1
    36    21    20    1
    37    18    19    1
