@<TRIPOS>MOLECULE
3fsj_D7K_X_1.pdb
 39 41 0 0 0
SMALL
GASTEIGER

@<TRIPOS>ATOM
      1  PA        27.0510    6.7110   30.3630 P.3   601  D7K601      0.2230
      2  O1A       26.8620    6.0090   31.8130 O.3   601  D7K601     -0.4370
      3  O2A       28.4210    7.1450   30.1110 O.2   601  D7K601     -0.5169
      4  O1B       24.3250    9.7660   30.7880 O.3   601  D7K601     -0.1143
      5  PB        24.5220    8.1860   30.4060 P.3   601  D7K601      0.5373
      6  O2B       24.0200    7.2200   31.6290 O.3   601  D7K601     -0.1143
      7  O3B       23.9210    7.8600   29.1050 O.2   601  D7K601     -0.2221
      8  O3A       26.1430    8.0550   30.2520 O.3   601  D7K601     -0.2261
      9  O01       26.5390    5.6390   29.2520 O.3   601  D7K601     -0.3134
     10  C01       26.8760    5.8180   27.9050 C.3   601  D7K601      0.1544
     11  C05       25.6810    5.2030   27.1790 C.3   601  D7K601      0.0661
     12  C04       25.8700    5.2630   25.6740 C.2   601  D7K601      0.0164
     13  C03       26.5120    4.1330   24.8110 C.2   601  D7K601      0.0279
     14  CM4       27.0380    2.8010   25.3570 C.3   601  D7K601      0.0473
     15  S1        25.6860    6.6280   24.7750 S.3   601  D7K601     -0.0943
     16  C02       26.2820    6.0360   23.1880 C.3   601  D7K601      0.1691
     17  N3        26.5460    4.5330   23.3090 N.pl3 601  D7K601     -0.2963
     18  C7,       26.9370    3.6080   22.2580 C.3   601  D7K601      0.1238
     19  C5,       28.4590    3.4750   22.1430 C.2   601  D7K601      0.0654
     20  C6,       29.1220    2.1600   22.4290 C.2   601  D7K601      0.1115
     21  C4,       29.3060    4.6480   21.6920 C.2   601  D7K601      0.2292
     22  N4,       28.7270    5.9220   21.3940 N.pl3 601  D7K601     -0.0925
     23  N3,       30.7420    4.5400   21.5620 N.2   601  D7K601     -0.3368
     24  C2,       31.4010    3.2430   21.8600 C.1   601  D7K601      0.0663
     25  N1,       30.5660    2.0450   22.2880 N.2   601  D7K601     -0.1861
     26  CM2       32.9080    3.1560   21.7010 C.3   601  D7K601      0.1291
     27  O12       23.3850    6.9890   20.1690 O.2   601  D7K601     -0.2525
     28  P8        23.9710    6.0950   21.4300 P.3   601  D7K601      0.4024
     29  O11       24.0810    4.6930   21.0470 O.3   601  D7K601     -0.1374
     30  O9        22.9740    6.2540   22.7390 O.3   601  D7K601     -0.2881
     31  C10       21.6800    6.7580   22.5620 C.3   601  D7K601      0.1840
     32  C7        25.6960    6.6630   21.8810 C.3   601  D7K601      0.2653
     33  O7        26.4630    6.3050   20.7520 O.3   601  D7K601     -0.2059
     34  C2        25.7580    8.2010   22.0080 C.ar  601  D7K601      0.0188
     35  C3        26.9880    8.9580   21.4220 C.ar  601  D7K601     -0.0012
     36  C4        27.0720   10.4820   21.5350 C.ar  601  D7K601     -0.0002
     37  C5        25.9330   11.2700   22.2400 C.ar  601  D7K601     -0.0000
     38  C6        24.7170   10.5250   22.8270 C.ar  601  D7K601     -0.0002
     39  C1        24.6300    8.9860   22.7100 C.ar  601  D7K601     -0.0012
@<TRIPOS>BOND
     1    27    28    2
     2    33    32    1
     3    29    28    1
     4    22    21    1
     5    35    36   ar
     6    35    34   ar
     7    28    32    1
     8    28    30    1
     9    36    37   ar
    10    23    21    2
    11    23    24    2
    12    21    19    1
    13    26    24    1
    14    24    25    2
    15    32    34    1
    16    32    16    1
    17    34    39   ar
    18    19    18    1
    19    19    20    2
    20    37    38   ar
    21    18    17    1
    22    25    20    1
    23    31    30    1
    24    39    38   ar
    25    16    17    1
    26    16    15    1
    27    17    13    1
    28    15    12    1
    29    13    14    1
    30    13    12    2
    31    12    11    1
    32    11    10    1
    33    10     9    1
    34     7     5    2
    35     9     1    1
    36     3     1    2
    37     8     1    1
    38     8     5    1
    39     1     2    1
    40     5     4    1
    41     5     6    1
