@<TRIPOS>MOLECULE
3fsk_RO6_A_1.pdb
 26 29 0 0 0
SMALL
GASTEIGER

@<TRIPOS>ATOM
      1  C1        23.5360    8.4010   31.7410 C.1   450  RO6450      0.1717
      2  N11       23.2670    9.6410   32.0740 N.2   450  RO6450     -0.2702
      3  C12       22.0190   10.1650   31.7380 C.1   450  RO6450      0.1618
      4  N15       21.7980   11.5240   32.1670 N.2   450  RO6450     -0.2533
      5  C16       20.5680   12.2030   31.9400 C.1   450  RO6450      0.2861
      6  O19       20.4230   13.3380   32.3460 O.2   450  RO6450     -0.1916
      7  N17       19.5240   11.4630   31.2390 N.am  450  RO6450     -0.1814
      8  C20       18.2200   12.0470   31.0050 C.ar  450  RO6450      0.0781
      9  C21       17.9570   12.9200   29.9340 C.ar  450  RO6450      0.0168
     10  C22       16.6380   13.4420   29.7840 C.ar  450  RO6450      0.0014
     11  C23       15.6070   13.0990   30.6930 C.ar  450  RO6450      0.0010
     12  C24       15.8630   12.2250   31.7710 C.ar  450  RO6450      0.0127
     13  C25       17.1660   11.6960   31.9340 C.ar  450  RO6450      0.0723
     14 CL26       17.4820   10.6110   33.2750 Cl    450  RO6450     -0.0809
     15  C18       19.7060   10.0630   30.7520 C.2   450  RO6450      0.0918
     16  C14       21.0470    9.4840   31.0760 C.2   450  RO6450      0.1062
     17  N10       22.6210    7.5830   31.0500 N.2   450  RO6450     -0.1902
     18  C13       21.2840    8.0630   30.6510 C.3   450  RO6450      0.1783
     19  N2        24.7520    7.7960   32.0420 N.pl3 450  RO6450     -0.1636
     20  C3        25.8130    8.5310   32.7450 C.3   450  RO6450      0.1048
     21  C4        26.9150    8.9120   31.7240 C.3   450  RO6450      0.0251
     22  C5        28.0510    9.6910   32.4280 C.3   450  RO6450      0.0347
     23  C6        28.6460    8.8690   33.6000 C.3   450  RO6450      0.1521
     24  O9        29.6710    9.6050   34.2470 O.3   450  RO6450     -0.2231
     25  C7        27.5450    8.4590   34.6270 C.3   450  RO6450      0.0347
     26  C8        26.4110    7.6710   33.9060 C.3   450  RO6450      0.0251
@<TRIPOS>BOND
     1    10     9   ar
     2    10    11   ar
     3     9     8   ar
     4    18    17    1
     5    18    16    1
     6    11    12   ar
     7    15    16    2
     8    15     7    1
     9     8     7    1
    10     8    13   ar
    11    17     1    2
    12    16     3    1
    13     7     5   am
    14    21    22    1
    15    21    20    1
    16     3     2    2
    17     3     4    2
    18     1    19    1
    19     1     2    2
    20    12    13   ar
    21    13    14    1
    22     5     4    2
    23     5     6    2
    24    19    20    1
    25    22    23    1
    26    20    26    1
    27    23    24    1
    28    23    25    1
    29    26    25    1
