@<TRIPOS>MOLECULE
3fsu_C2F_A_1.pdb
 33 35 0 0 0
SMALL
GASTEIGER

@<TRIPOS>ATOM
      1  N1        41.0620  -21.2190   21.9410 N.2   995  C2F995     -0.2726
      2  C2        42.2240  -21.9470   21.3740 C.1   995  C2F995      0.2603
      3  NA2       43.4910  -21.2820   21.1690 N.pl3 995  C2F995     -0.0221
      4  N3        42.0620  -23.3690   20.9680 N.2   995  C2F995     -0.2515
      5  C4        40.7970  -24.0250   21.1200 C.1   995  C2F995      0.2218
      6  O4        40.6660  -25.3610   20.7700 O.2   995  C2F995     -0.2109
      7  C4A       39.6050  -23.2820   21.7110 C.3   995  C2F995      0.2763
      8  N5        38.3080  -23.9130   21.8040 N.3   995  C2F995     -0.2435
      9  C6        37.3230  -23.3210   22.7250 C.3   995  C2F995      0.1062
     10  C7        37.2840  -21.7760   22.5770 C.3   995  C2F995      0.1547
     11  N8        38.6190  -21.2010   22.6860 N.2   995  C2F995     -0.2096
     12  C8A       39.7560  -21.8940   22.0900 C.1   995  C2F995      0.1050
     13  C9        37.7910  -23.6650   24.1440 C.3   995  C2F995      0.1302
     14  N10       37.7190  -25.1110   24.2240 N.pl3 995  C2F995     -0.2361
     15  C11       37.7910  -24.5110   20.5750 C.3   995  C2F995      0.0915
     16  C12       38.8560  -27.1180   28.0330 C.ar  995  C2F995      0.0551
     17  C13       38.5090  -25.6220   28.0540 C.ar  995  C2F995      0.0059
     18  C14       38.1330  -24.9280   26.7420 C.ar  995  C2F995      0.0162
     19  C15       38.1200  -25.7460   25.4520 C.ar  995  C2F995      0.0654
     20  C16       38.4670  -27.2490   25.4280 C.ar  995  C2F995      0.0162
     21  C17       38.8340  -27.9340   26.7380 C.ar  995  C2F995      0.0059
     22  C         39.2260  -27.8220   29.3260 C.2   995  C2F995      0.2652
     23  O         39.3810  -27.1810   30.3070 O.2   995  C2F995     -0.2684
     24  N         39.0140  -29.2530   29.4210 N.am  995  C2F995     -0.1918
     25  CA        39.3810  -29.9190   30.6670 C.3   995  C2F995      0.1986
     26  CB        38.1520  -30.3970   31.4710 C.3   995  C2F995      0.0451
     27  CG        36.8920  -30.4460   30.5890 C.3   995  C2F995      0.1164
     28  CD        35.6460  -30.6900   31.4650 C.2   995  C2F995      0.3649
     29  OE1       34.8590  -31.5290   31.1630 O.co2 995  C2F995     -0.2457
     30  OE2       35.4310  -29.9180   32.6220 O.co2 995  C2F995     -0.2457
     31  CT        40.3210  -31.0930   30.3470 C.2   995  C2F995      0.3842
     32  O1        40.4780  -31.9750   31.1300 O.co2 995  C2F995     -0.2437
     33  O2        40.9990  -31.1000   29.1160 O.co2 995  C2F995     -0.2437
@<TRIPOS>BOND
     1    15     8    1
     2     6     5    2
     3     4     5    2
     4     4     2    2
     5     5     7    1
     6     3     2    1
     7     2     1    2
     8     7     8    1
     9     7    12    1
    10     8     9    1
    11     1    12    2
    12    12    11    2
    13    10    11    1
    14    10     9    1
    15     9    13    1
    16    13    14    1
    17    14    19    1
    18    20    19   ar
    19    20    21   ar
    20    19    18   ar
    21    21    16   ar
    22    18    17   ar
    23    16    17   ar
    24    16    22    1
    25    33    31   ar
    26    22    24   am
    27    22    23    2
    28    24    25    1
    29    31    25    1
    30    31    32   ar
    31    27    28    1
    32    27    26    1
    33    25    26    1
    34    29    28   ar
    35    28    30   ar
