@<TRIPOS>MOLECULE
3fsy_SCA_A_1.pdb
 31 33 0 0 0
SMALL
GASTEIGER

@<TRIPOS>ATOM
      1  C8        83.4540   49.2070   51.2030 C.3   331  SCA331      0.3377
      2  N9        83.4510   49.8140   52.4060 N.pl3 331  SCA331     -0.1439
      3  C4        84.2830   49.1740   53.2310 C.2   331  SCA331      0.3518
      4  C5        84.8530   48.0820   52.4320 C.2   331  SCA331      0.2526
      5  N7        84.3140   48.1550   51.2050 N.2   331  SCA331     -0.2095
      6  N3        84.6620   49.3250   54.5360 N.2   331  SCA331     -0.0055
      7  C2        85.5520   48.4770   55.0800 C.3   331  SCA331      0.5254
      8  N1        86.1140   47.4610   54.3910 N.2   331  SCA331      0.0021
      9  C6        85.8160   47.1970   53.0940 C.2   331  SCA331      0.4393
     10  N6        86.3640   46.1710   52.3840 N.pl3 331  SCA331      0.2180
     11  C1'       82.6250   50.9760   52.8020 C.3   331  SCA331      0.3185
     12  C2'       82.0270   51.6990   51.6100 C.3   331  SCA331      0.2543
     13  O2'       82.8970   52.7310   51.1380 O.3   331  SCA331     -0.2131
     14  C3'       80.7120   52.2410   52.1600 C.3   331  SCA331      0.1928
     15  O3'       80.9060   53.5180   52.7540 O.3   331  SCA331     -0.2673
     16  C4'       80.3310   51.2940   53.2780 C.3   331  SCA331      0.1795
     17  O4'       81.4860   50.4650   53.5090 O.3   331  SCA331     -0.3136
     18  C5'       79.0880   50.4950   52.9040 C.3   331  SCA331      0.1812
     19  O5'       78.8890   49.4040   53.8080 O.3   331  SCA331     -0.3111
     20  P1        78.1020   49.6450   55.1920 P.3   331  SCA331      0.2231
     21  O11       77.7130   51.1000   55.2620 O.2   331  SCA331     -0.5169
     22  O12       77.0460   48.5710   55.3400 O.3   331  SCA331     -0.4370
     23  O6        79.2530   49.2840   56.2670 O.3   331  SCA331     -0.2261
     24  P2        79.9600   50.3500   57.2480 P.3   331  SCA331      0.5373
     25  O21       79.5980   49.9660   58.6690 O.3   331  SCA331     -0.1143
     26  O22       79.6620   51.7480   56.7390 O.2   331  SCA331     -0.2221
     27  O7        81.4990   49.9730   56.9870 O.3   331  SCA331     -0.1143
     28  P3        79.7080   54.4290   53.3730 P.3   331  SCA331      0.5327
     29  O31       80.4430   55.6940   53.7350 O.3   331  SCA331     -0.1145
     30  O32       79.1970   53.6630   54.5760 O.3   331  SCA331     -0.1145
     31  O33       78.7160   54.5740   52.2410 O.2   331  SCA331     -0.2224
@<TRIPOS>BOND
     1    13    12    1
     2     1     5    1
     3     1     2    1
     4     5     4    2
     5    12    14    1
     6    12    11    1
     7    14    15    1
     8    14    16    1
     9    31    28    2
    10    10     9    1
    11     2    11    1
    12     2     3    1
    13     4     9    1
    14     4     3    1
    15    15    28    1
    16    11    17    1
    17    18    16    1
    18    18    19    1
    19     9     8    2
    20     3     6    2
    21    16    17    1
    22    28    29    1
    23    28    30    1
    24    19    20    1
    25     8     7    1
    26     6     7    1
    27    20    21    2
    28    20    22    1
    29    20    23    1
    30    23    24    1
    31    26    24    2
    32    27    24    1
    33    24    25    1
