@<TRIPOS>MOLECULE
3ft5_MO8_A_1.pdb
 12 13 0 0 0
SMALL
GASTEIGER

@<TRIPOS>ATOM
      1  N11       29.0690   11.4690   23.7360 N.pl3 237  MO8237     -0.0233
      2  C9        30.1370   10.8790   24.3180 C.1   237  MO8237      0.2402
      3  N8        29.9220   10.1880   25.4460 N.2   237  MO8237     -0.3343
      4  C7        30.8930    9.5420   26.1130 C.2   237  MO8237      0.1075
      5  C12       30.5720    8.7680   27.3700 C.3   237  MO8237      0.0630
      6  C2        32.2570    9.6400   25.5740 C.3   237  MO8237      0.1088
      7  N10       31.3640   10.9910   23.7480 N.2   237  MO8237     -0.3342
      8  C3        32.4450   10.4130   24.3420 C.2   237  MO8237      0.1080
      9  C4        33.8150   10.5850   23.7260 C.3   237  MO8237      0.0675
     10  C5        34.5670    9.2840   23.5280 C.3   237  MO8237      0.0647
     11  S6        34.2010    8.1650   24.8260 S.3   237  MO8237     -0.1390
     12  C1        33.4290    8.9570   26.2130 C.3   237  MO8237      0.0710
@<TRIPOS>BOND
     1    10     9    1
     2    10    11    1
     3     9     8    1
     4     1     2    1
     5     7     2    2
     6     7     8    2
     7     2     3    2
     8     8     6    1
     9    11    12    1
    10     3     4    2
    11     6     4    1
    12     6    12    1
    13     4     5    1
