@<TRIPOS>MOLECULE
3ft8_MOJ_A_1.pdb
 27 30 0 0 0
SMALL
GASTEIGER

@<TRIPOS>ATOM
      1  F23        8.3260   10.2340   22.3600 F     237  MOJ237     -0.2042
      2  C14        7.1430   10.3840   22.9920 C.ar  237  MOJ237      0.1401
      3  C13        6.8600   11.5880   23.6500 C.ar  237  MOJ237      0.0294
      4  C12        5.6620   11.8060   24.3170 C.ar  237  MOJ237     -0.0002
      5  C17        5.4690   13.1210   25.0240 C.ar  237  MOJ237      0.0190
      6  C22        6.4780   13.5900   25.8690 C.ar  237  MOJ237      0.0988
      7  N21        6.3380   14.7650   26.4970 N.ar  237  MOJ237     -0.2423
      8  C20        5.2340   15.5240   26.3250 C.ar  237  MOJ237      0.0989
      9  C19        4.2030   15.1320   25.4920 C.ar  237  MOJ237      0.0207
     10  C18        4.3300   13.8980   24.8410 C.ar  237  MOJ237      0.0031
     11  C15        6.2090    9.3620   22.9690 C.ar  237  MOJ237      0.0293
     12  C16        4.9790    9.5180   23.6320 C.ar  237  MOJ237     -0.0019
     13  C11        4.6640   10.7000   24.3170 C.ar  237  MOJ237     -0.0215
     14  C9         3.3520   10.8200   25.0090 C.3   237  MOJ237      0.0348
     15  C8         3.2900    9.6380   25.9780 C.3   237  MOJ237      0.0504
     16  C7         1.9180    9.4860   26.6280 C.2   237  MOJ237      0.0922
     17  N24        1.8130    8.7360   27.6370 N.2   237  MOJ237     -0.0374
     18  O25        2.9330    8.1470   28.2360 O.2   237  MOJ237     -0.1438
     19  C2         0.6880   10.1230   26.0110 C.3   237  MOJ237      0.1371
     20  C10        2.1850   10.7750   24.0050 C.3   237  MOJ237      0.0609
     21  C3         0.8350   10.7550   24.6940 C.2   237  MOJ237      0.1120
     22  N4        -0.2430   11.3250   24.1240 N.2   237  MOJ237     -0.3339
     23  C5        -1.4580   11.2810   24.7170 C.1   237  MOJ237      0.2402
     24  N27       -2.5010   11.8300   24.0650 N.pl3 237  MOJ237     -0.0233
     25  N6        -1.6590   10.7360   25.9440 N.2   237  MOJ237     -0.3339
     26  C1        -0.6500   10.1520   26.6400 C.2   237  MOJ237      0.1121
     27  C26       -0.9440    9.5570   27.9910 C.3   237  MOJ237      0.0633
@<TRIPOS>BOND
     1     1     2    1
     2    11     2   ar
     3    11    12   ar
     4     2     3   ar
     5    12    13   ar
     6     3     4   ar
     7    20    21    1
     8    20    14    1
     9    24    23    1
    10    22    21    2
    11    22    23    2
    12     4    13   ar
    13     4     5    1
    14    13    14    1
    15    21    19    1
    16    23    25    2
    17    10     5   ar
    18    10     9   ar
    19    14    15    1
    20     5     6   ar
    21     9     8   ar
    22     6     7   ar
    23    25    26    2
    24    15    16    1
    25    19    16    1
    26    19    26    1
    27     8     7   ar
    28    16    17    2
    29    26    27    1
    30    17    18    1
