@<TRIPOS>MOLECULE
3ftf_SAH_A_1.pdb
 26 28 0 0 0
SMALL
GASTEIGER

@<TRIPOS>ATOM
      1  N         11.6870   -5.3910    1.1580 N.3   501  SAH501     -0.1208
      2  CA        12.3440   -4.7810   -0.0340 C.3   501  SAH501      0.1952
      3  CB        13.7400   -4.2380    0.2710 C.3   501  SAH501      0.0422
      4  CG        14.0350   -3.8710    1.7240 C.3   501  SAH501      0.0597
      5  SD        15.8080   -3.6370    2.0070 S.3   501  SAH501     -0.1375
      6  C         12.4310   -5.7980   -1.1650 C.2   501  SAH501      0.3819
      7  O         12.5620   -6.9980   -0.9260 O.co2 501  SAH501     -0.2441
      8  OXT       12.3690   -5.4460   -2.3440 O.co2 501  SAH501     -0.2441
      9  C5'       15.5400   -1.9300    2.5610 C.3   501  SAH501      0.0899
     10  C4'       15.4420   -0.8980    1.4390 C.3   501  SAH501      0.1630
     11  O4'       15.4140    0.4070    1.9860 O.3   501  SAH501     -0.3153
     12  C3'       16.6290   -0.9530    0.4890 C.3   501  SAH501      0.2168
     13  O3'       16.1620   -1.1430   -0.8280 O.3   501  SAH501     -0.2175
     14  C2'       17.3300    0.3860    0.6310 C.3   501  SAH501      0.2569
     15  O2'       17.7370    0.8960   -0.6180 O.3   501  SAH501     -0.2130
     16  C1'       16.2750    1.2740    1.2710 C.3   501  SAH501      0.3185
     17  N9        16.8320    2.3030    2.1750 N.pl3 501  SAH501     -0.1439
     18  C8        18.0840    2.3450    2.7380 C.3   501  SAH501      0.3377
     19  N7        18.1790    3.4570    3.5030 N.2   501  SAH501     -0.2095
     20  C5        17.0070    4.1270    3.4380 C.2   501  SAH501      0.2526
     21  C6        16.5660    5.3120    4.0210 C.2   501  SAH501      0.4393
     22  N6        17.3760    6.0030    4.8160 N.pl3 501  SAH501      0.2180
     23  N1        15.2850    5.7660    3.7690 N.2   501  SAH501      0.0021
     24  C2        14.4460    5.0440    2.9400 C.3   501  SAH501      0.5254
     25  N3        14.8910    3.8670    2.3650 N.2   501  SAH501     -0.0055
     26  C4        16.1510    3.4140    2.6080 C.2   501  SAH501      0.3518
@<TRIPOS>BOND
     1     8     6   ar
     2     6     7   ar
     3     6     2    1
     4    13    12    1
     5    15    14    1
     6     2     3    1
     7     2     1    1
     8     3     4    1
     9    12    14    1
    10    12    10    1
    11    14    16    1
    12    16    11    1
    13    16    17    1
    14    10    11    1
    15    10     9    1
    16     4     5    1
    17     5     9    1
    18    17    26    1
    19    17    18    1
    20    25    26    2
    21    25    24    1
    22    26    20    1
    23    18    19    1
    24    24    23    1
    25    20    19    2
    26    20    21    1
    27    23    21    2
    28    21    22    1
