@<TRIPOS>MOLECULE
3ftq_GNP_A_1.pdb
 32 34 0 0 0
SMALL
GASTEIGER

@<TRIPOS>ATOM
      1  PG        34.4590   14.3900    3.4350 P.3   372  GNP372      0.4884
      2  O1G       34.8950   14.7590    2.0370 O.2   372  GNP372     -0.2331
      3  O2G       33.1380   14.9560    3.9090 O.3   372  GNP372     -0.1240
      4  O3G       35.6330   14.7640    4.3120 O.3   372  GNP372     -0.1240
      5  N3B       34.3600   12.7960    3.5120 N.3   372  GNP372     -0.0163
      6  PB        33.1970   11.8970    2.8920 P.3   372  GNP372      0.4669
      7  O1B       31.9790   11.9850    3.7460 O.3   372  GNP372     -0.1253
      8  O2B       33.0300   12.3200    1.4820 O.2   372  GNP372     -0.2351
      9  O3A       33.7080   10.4400    2.9160 O.3   372  GNP372     -0.2360
     10  PA        34.3970    9.7140    1.7450 P.3   372  GNP372      0.2220
     11  O1A       33.3700    9.3360    0.7470 O.2   372  GNP372     -0.5170
     12  O2A       35.5770   10.4600    1.2730 O.3   372  GNP372     -0.4370
     13  O5'       34.9540    8.3530    2.2910 O.3   372  GNP372     -0.3111
     14  C5'       35.9240    8.2810    3.3360 C.3   372  GNP372      0.1813
     15  C4'       36.3880    6.8470    3.4260 C.3   372  GNP372      0.1799
     16  O4'       35.3500    6.0240    4.0220 O.3   372  GNP372     -0.3326
     17  C3'       36.5850    6.2380    2.0490 C.3   372  GNP372      0.2158
     18  O3'       37.8950    6.5260    1.6610 O.3   372  GNP372     -0.2175
     19  C2'       36.3540    4.7480    2.2600 C.3   372  GNP372      0.2310
     20  O2'       37.5750    4.0990    2.5340 O.3   372  GNP372     -0.2158
     21  C1'       35.4560    4.7060    3.5020 C.3   372  GNP372      0.2293
     22  N9        34.1080    4.2740    3.2060 N.pl3 372  GNP372     -0.2354
     23  C8        33.3360    4.7340    2.1620 C.3   372  GNP372      0.2246
     24  N7        32.1470    4.2000    2.1010 N.2   372  GNP372     -0.2322
     25  C5        32.1400    3.3390    3.1790 C.2   372  GNP372      0.2182
     26  C6        31.1070    2.5110    3.6070 C.1   372  GNP372      0.2372
     27  O6        30.0020    2.3780    3.0940 O.2   372  GNP372     -0.2069
     28  N1        31.4510    1.7910    4.7400 N.2   372  GNP372     -0.2485
     29  C2        32.6530    1.8700    5.3850 C.1   372  GNP372      0.2531
     30  N2        32.7520    1.0860    6.4600 N.pl3 372  GNP372     -0.0226
     31  N3        33.6530    2.6590    4.9980 N.2   372  GNP372     -0.3074
     32  C4        33.3250    3.3660    3.8830 C.2   372  GNP372      0.2300
@<TRIPOS>BOND
     1    11    10    2
     2    12    10    1
     3     8     6    2
     4    18    17    1
     5    10    13    1
     6    10     9    1
     7     2     1    2
     8    17    19    1
     9    17    15    1
    10    24    23    1
    11    24    25    2
    12    23    22    1
    13    19    20    1
    14    19    21    1
    15    13    14    1
    16     6     9    1
    17     6     5    1
    18     6     7    1
    19    27    26    2
    20    25    26    1
    21    25    32    1
    22    22    21    1
    23    22    32    1
    24    14    15    1
    25    15    16    1
    26     1     5    1
    27     1     3    1
    28     1     4    1
    29    21    16    1
    30    26    28    2
    31    32    31    2
    32    28    29    2
    33    31    29    2
    34    29    30    1
