@<TRIPOS>MOLECULE
3fts_STL_A_1.pdb
 17 18 0 0 0
SMALL
GASTEIGER

@<TRIPOS>ATOM
      1  C1       -22.5090    2.8030   -4.5660 C.ar  710  STL710      0.1989
      2  C2       -22.4130    1.8130   -5.4950 C.ar  710  STL710      0.0840
      3  C3       -22.9940    0.5960   -5.2880 C.ar  710  STL710      0.1989
      4  C4       -23.7010    0.3480   -4.1300 C.ar  710  STL710      0.0422
      5  C5       -23.7860    1.3180   -3.1550 C.ar  710  STL710      0.0064
      6  C6       -23.2220    2.5610   -3.4090 C.ar  710  STL710      0.0422
      7  C7       -24.6220    1.1530   -1.9400 C.2   710  STL710      0.0002
      8  C8       -25.5990    0.2160   -1.9040 C.2   710  STL710      0.0000
      9  C9       -26.5510    0.1850   -0.7630 C.ar  710  STL710      0.0002
     10  C10      -26.2020    0.6590    0.4950 C.ar  710  STL710      0.0033
     11  C11      -27.1540    0.6840    1.5280 C.ar  710  STL710      0.0420
     12  C12      -28.4700    0.2960    1.2850 C.ar  710  STL710      0.1957
     13  C13      -28.8250   -0.1360    0.0060 C.ar  710  STL710      0.0420
     14  C14      -27.8720   -0.1770   -1.0040 C.ar  710  STL710      0.0033
     15  O1       -29.4030    0.3230    2.2850 O.3   710  STL710     -0.2866
     16  O2       -22.8440   -0.3550   -6.2480 O.3   710  STL710     -0.2865
     17  O3       -21.8820    3.9990   -4.8410 O.3   710  STL710     -0.2865
@<TRIPOS>BOND
     1    16     3    1
     2     2     3   ar
     3     2     1   ar
     4     3     4   ar
     5    17     1    1
     6     1     6   ar
     7     4     5   ar
     8     6     5   ar
     9     5     7    1
    10     7     8    2
    11     8     9    1
    12    14     9   ar
    13    14    13   ar
    14     9    10   ar
    15    13    12   ar
    16    10    11   ar
    17    12    11   ar
    18    12    15    1
