@<TRIPOS>MOLECULE
3ftu_RE2_A_1.pdb
 17 18 0 0 0
SMALL
GASTEIGER

@<TRIPOS>ATOM
      1  C2        22.4510   -2.8540   -4.4560 C.ar  710  RE2710      0.1986
      2  C3        22.1970   -1.7950   -5.3160 C.ar  710  RE2710      0.0840
      3  C4        22.7080   -0.5380   -5.0300 C.ar  710  RE2710      0.1986
      4  C8        25.2740    0.1880   -1.6330 C.3   710  RE2710      0.0310
      5  C7        24.5630   -1.1840   -1.7440 C.3   710  RE2710      0.0312
      6  C5        23.4660   -0.3490   -3.8850 C.ar  710  RE2710      0.0380
      7  C6        23.7110   -1.3940   -3.0030 C.ar  710  RE2710     -0.0155
      8  C1        23.1920   -2.6480   -3.2970 C.ar  710  RE2710      0.0380
      9  O17       22.4690    0.5210   -5.8800 O.3   710  RE2710     -0.2865
     10  O16       21.9240   -4.0800   -4.7300 O.3   710  RE2710     -0.2865
     11  C9        26.3430    0.0110   -0.5700 C.ar  710  RE2710     -0.0216
     12  C14       26.0100   -0.2870    0.7480 C.ar  710  RE2710     -0.0010
     13  C13       27.0200   -0.4690    1.7060 C.ar  710  RE2710      0.0417
     14  C12       28.3740   -0.3470    1.3620 C.ar  710  RE2710      0.1957
     15  O15       29.3840   -0.5230    2.3020 O.3   710  RE2710     -0.2866
     16  C11       28.6920   -0.0350    0.0490 C.ar  710  RE2710      0.0417
     17  C10       27.6790    0.1520   -0.9140 C.ar  710  RE2710     -0.0010
@<TRIPOS>BOND
     1     9     3    1
     2     2     3   ar
     3     2     1   ar
     4     3     6   ar
     5    10     1    1
     6     1     8   ar
     7     6     7   ar
     8     8     7   ar
     9     7     5    1
    10     5     4    1
    11     4    11    1
    12    17    11   ar
    13    17    16   ar
    14    11    12   ar
    15    16    14   ar
    16    12    13   ar
    17    14    13   ar
    18    14    15    1
