@<TRIPOS>MOLECULE
3ftv_11X_A_1.pdb
 14 15 0 0 0
SMALL
GASTEIGER

@<TRIPOS>ATOM
      1  N1       -23.6130   -1.3160    4.8490 N.ar  710  11X710     -0.2426
      2  C10      -27.8360   -0.3320    0.9130 C.ar  710  11X710      0.0161
      3  C11      -29.1370   -0.4950    0.4140 C.ar  710  11X710      0.0013
      4  C9       -26.7610   -0.4520    0.0430 C.ar  710  11X710      0.0657
      5  C14      -26.9890   -0.7130   -1.3100 C.ar  710  11X710      0.0161
      6  C12      -29.3680   -0.7520   -0.9330 C.ar  710  11X710      0.0001
      7  C13      -28.2890   -0.8490   -1.8130 C.ar  710  11X710      0.0013
      8  C2       -24.1380   -0.4430    4.0100 C.ar  710  11X710      0.0963
      9  C4       -24.4010   -2.1070    2.3370 C.ar  710  11X710      0.0006
     10  C5       -23.8500   -3.0100    3.2460 C.ar  710  11X710      0.0204
     11  C6       -23.4500   -2.5780    4.5040 C.ar  710  11X710      0.0989
     12  C7       -25.1660    0.2690    1.7930 C.3   710  11X710      0.1401
     13  C3       -24.5580   -0.7900    2.7370 C.ar  710  11X710      0.0185
     14  N8       -25.5030   -0.3210    0.4740 N.pl3 710  11X710     -0.2328
@<TRIPOS>BOND
     1     7     5   ar
     2     7     6   ar
     3     5     4   ar
     4     6     3   ar
     5     4    14    1
     6     4     2   ar
     7     3     2   ar
     8    14    12    1
     9    12    13    1
    10     9    13   ar
    11     9    10   ar
    12    13     8   ar
    13    10    11   ar
    14     8     1   ar
    15    11     1   ar
