@<TRIPOS>MOLECULE
3ftw_11X_A_1.pdb
 14 15 0 0 0
SMALL
GASTEIGER

@<TRIPOS>ATOM
      1  N1        15.5980   -1.3120    4.7780 N.ar  710  11X710     -0.2426
      2  C10       11.3320   -0.1800    0.9180 C.ar  710  11X710      0.0161
      3  C11       10.0330   -0.3170    0.4390 C.ar  710  11X710      0.0013
      4  C9        12.3840   -0.3470    0.0330 C.ar  710  11X710      0.0657
      5  C14       12.1210   -0.6350   -1.3210 C.ar  710  11X710      0.0161
      6  C12        9.7670   -0.6080   -0.8940 C.ar  710  11X710      0.0001
      7  C13       10.8060   -0.7510   -1.8000 C.ar  710  11X710      0.0013
      8  C2        15.0650   -0.3920    3.9850 C.ar  710  11X710      0.0963
      9  C4        14.7790   -2.0020    2.2660 C.ar  710  11X710      0.0006
     10  C5        15.3490   -2.9390    3.1380 C.ar  710  11X710      0.0204
     11  C6        15.7620   -2.5660    4.3920 C.ar  710  11X710      0.0989
     12  C7        13.9880    0.3790    1.7870 C.3   710  11X710      0.1401
     13  C3        14.6340   -0.6900    2.7040 C.ar  710  11X710      0.0185
     14  N8        13.6380   -0.2180    0.4680 N.pl3 710  11X710     -0.2328
@<TRIPOS>BOND
     1     7     5   ar
     2     7     6   ar
     3     5     4   ar
     4     6     3   ar
     5     4    14    1
     6     4     2   ar
     7     3     2   ar
     8    14    12    1
     9    12    13    1
    10     9    13   ar
    11     9    10   ar
    12    13     8   ar
    13    10    11   ar
    14     8     1   ar
    15    11     1   ar
