@<TRIPOS>MOLECULE
3ftx_RE2_A_1.pdb
 17 18 0 0 0
SMALL
GASTEIGER

@<TRIPOS>ATOM
      1  C2        17.6570   -4.8350    4.9770 C.ar  710  RE2710      0.1986
      2  C3        17.7740   -4.5420    6.3320 C.ar  710  RE2710      0.0840
      3  C4        17.1070   -3.4460    6.8800 C.ar  710  RE2710      0.1986
      4  C8        15.9470   -0.9490    3.1070 C.3   710  RE2710      0.0310
      5  C7        15.3270   -2.0950    3.8530 C.3   710  RE2710      0.0312
      6  C5        16.3110   -2.6220    6.0810 C.ar  710  RE2710      0.0380
      7  C6        16.2080   -2.9330    4.7310 C.ar  710  RE2710     -0.0155
      8  C1        16.8550   -4.0340    4.1820 C.ar  710  RE2710      0.0380
      9  O17       17.2380   -3.1990    8.2020 O.3   710  RE2710     -0.2865
     10  O16       18.3040   -5.9210    4.4380 O.3   710  RE2710     -0.2865
     11  C9        14.7990   -0.6170    2.1610 C.ar  710  RE2710     -0.0216
     12  C14       14.5860   -1.3700    1.0010 C.ar  710  RE2710     -0.0010
     13  C13       13.5250   -1.0730    0.1370 C.ar  710  RE2710      0.0417
     14  C12       12.6480   -0.0400    0.4880 C.ar  710  RE2710      0.1957
     15  O15       11.5790    0.2880   -0.3040 O.3   710  RE2710     -0.2866
     16  C11       12.8620    0.6920    1.6460 C.ar  710  RE2710      0.0417
     17  C10       13.9210    0.4080    2.4940 C.ar  710  RE2710     -0.0010
@<TRIPOS>BOND
     1    15    14    1
     2    13    14   ar
     3    13    12   ar
     4    14    16   ar
     5    12    11   ar
     6    16    17   ar
     7    11    17   ar
     8    11     4    1
     9     4     5    1
    10     5     7    1
    11     8     7   ar
    12     8     1   ar
    13    10     1    1
    14     7     6   ar
    15     1     2   ar
    16     6     3   ar
    17     2     3   ar
    18     3     9    1
