@<TRIPOS>MOLECULE
3ftx_BES_A_1.pdb
 22 22 0 0 0
SMALL
GASTEIGER

@<TRIPOS>ATOM
      1  N2         4.5200   -1.5320    1.3040 N.3   720  BES720     -0.1293
      2  C1         4.9050   -2.9390    1.4650 C.3   720  BES720      0.1355
      3  C6         5.4490   -3.4450    0.1240 C.3   720  BES720      0.0485
      4  C7         6.6340   -2.6080   -0.3390 C.ar  720  BES720     -0.0206
      5  C8         6.5790   -2.0330   -1.6150 C.ar  720  BES720     -0.0042
      6  C12        7.7490   -2.3970    0.4900 C.ar  720  BES720     -0.0042
      7  C9         7.6370   -1.2650   -2.0730 C.ar  720  BES720     -0.0003
      8  C11        8.8210   -1.6150    0.0190 C.ar  720  BES720     -0.0003
      9  C10        8.7420   -1.0520   -1.2710 C.ar  720  BES720     -0.0000
     10  C2         3.7320   -3.8190    1.9350 C.3   720  BES720      0.2467
     11  O2         3.1270   -3.1840    3.0620 O.3   720  BES720     -0.2116
     12  C3         4.2400   -5.1780    2.3330 C.2   720  BES720      0.2738
     13  O3         5.0390   -5.2960    3.2490 O.2   720  BES720     -0.2705
     14  N1         3.7720   -6.2230    1.6580 N.am  720  BES720     -0.1934
     15  C4         4.1920   -7.5950    1.8990 C.3   720  BES720      0.1978
     16  C13        3.0810   -8.3460    2.6450 C.3   720  BES720      0.0333
     17  C14        3.2200   -8.3850    4.1620 C.3   720  BES720      0.0023
     18  C15        4.6120   -8.8210    4.6410 C.3   720  BES720      0.0001
     19  C16        2.1390   -9.2950    4.7430 C.3   720  BES720      0.0001
     20  C5         4.3840   -8.2220    0.5330 C.2   720  BES720      0.3842
     21  O1         4.0870   -7.5450   -0.4860 O.co2 720  BES720     -0.2437
     22  O4         4.8290   -9.3940    0.4380 O.co2 720  BES720     -0.2437
@<TRIPOS>BOND
     1     7     5   ar
     2     7     9   ar
     3     5     4   ar
     4     9     8   ar
     5    21    20   ar
     6     4     3    1
     7     4     6   ar
     8     8     6   ar
     9     3     2    1
    10    22    20   ar
    11    20    15    1
    12     1     2    1
    13     2    10    1
    14    14    15    1
    15    14    12   am
    16    15    16    1
    17    10    12    1
    18    10    11    1
    19    12    13    2
    20    16    17    1
    21    17    18    1
    22    17    19    1
