@<TRIPOS>MOLECULE
3fty_3IP_A_1.pdb
 15 16 0 0 0
SMALL
GASTEIGER

@<TRIPOS>ATOM
      1  N1        23.8930    1.7210    1.1220 N.pl3 710  3IP710     -0.1039
      2  C2        23.7380    1.4650    2.4410 C.ar  710  3IP710      0.2039
      3  N3        22.9250    2.2560    3.1830 N.ar  710  3IP710     -0.2234
      4  C4        22.7220    2.0690    4.4920 C.ar  710  3IP710      0.1006
      5  C5        23.3660    1.0310    5.1340 C.ar  710  3IP710      0.0239
      6  C6        24.1990    0.2040    4.3920 C.ar  710  3IP710      0.0415
      7  C7        24.4110    0.4010    3.0310 C.ar  710  3IP710      0.1736
      8  O8        25.2760   -0.4310    2.3280 O.3   710  3IP710     -0.4677
      9  C9        25.3510   -0.4470    0.8890 C.3   710  3IP710      0.2321
     10  C10       26.6530   -0.0240    0.2150 C.ar  710  3IP710      0.0212
     11  C11       27.8790   -0.0240    0.8770 C.ar  710  3IP710     -0.0007
     12  C12       29.0440    0.3650    0.1980 C.ar  710  3IP710     -0.0002
     13  C13       29.0150    0.7410   -1.1460 C.ar  710  3IP710     -0.0000
     14  C14       27.7930    0.7250   -1.8140 C.ar  710  3IP710     -0.0002
     15  C15       26.6260    0.3480   -1.1390 C.ar  710  3IP710     -0.0007
@<TRIPOS>BOND
     1    14    13   ar
     2    14    15   ar
     3    13    12   ar
     4    15    10   ar
     5    12    11   ar
     6    10    11   ar
     7    10     9    1
     8     9     8    1
     9     1     2    1
    10     8     7    1
    11     2     7   ar
    12     2     3   ar
    13     7     6   ar
    14     3     4   ar
    15     6     5   ar
    16     4     5   ar
