@<TRIPOS>MOLECULE
3ftz_848_A_1.pdb
 15 16 0 0 0
SMALL
GASTEIGER

@<TRIPOS>ATOM
      1  N1        24.3580    1.6590    0.9140 N.pl3 710  848710     -0.1249
      2  C2        23.9950    1.5070    2.2030 C.ar  710  848710      0.1229
      3  C3        23.1290    2.4260    2.7870 C.ar  710  848710      0.0211
      4  C7        24.4800    0.4330    2.9370 C.ar  710  848710      0.1556
      5  C6        24.0750    0.3150    4.2630 C.ar  710  848710      0.0383
      6  C5        23.2270    1.2390    4.8560 C.ar  710  848710      0.0032
      7  C4        22.7400    2.2990    4.1120 C.ar  710  848710      0.0016
      8  O8        25.3560   -0.4980    2.4090 O.3   710  848710     -0.4692
      9  C9        25.4960   -0.7850    1.0100 C.3   710  848710      0.2336
     10  C10       26.7120   -0.1700    0.3280 C.ar  710  848710      0.0403
     11  C15       27.9110    0.0360    1.0020 C.ar  710  848710      0.0025
     12  C14       29.0040    0.5880    0.3170 C.ar  710  848710      0.0205
     13  C13       28.8950    0.9110   -1.0350 C.ar  710  848710      0.0989
     14  N12       27.7300    0.6880   -1.6710 N.ar  710  848710     -0.2425
     15  C11       26.6570    0.1680   -1.0300 C.ar  710  848710      0.0982
@<TRIPOS>BOND
     1    14    13   ar
     2    14    15   ar
     3    13    12   ar
     4    15    10   ar
     5    12    11   ar
     6    10    11   ar
     7    10     9    1
     8     1     2    1
     9     9     8    1
    10     2     3   ar
    11     2     4   ar
    12     8     4    1
    13     3     7   ar
    14     4     5   ar
    15     7     6   ar
    16     5     6   ar
