@<TRIPOS>MOLECULE
3fu0_22F_A_1.pdb
 15 16 0 0 0
SMALL
GASTEIGER

@<TRIPOS>ATOM
      1  F15       29.6910   -0.7530    1.3560 F     710  22F710     -0.2042
      2  C12       28.5660   -0.6370    0.6190 C.ar  710  22F710      0.1401
      3  C11       28.5360   -0.0180   -0.6350 C.ar  710  22F710      0.0297
      4  C10       27.3520    0.0850   -1.3830 C.ar  710  22F710      0.0055
      5  C13       27.3950   -1.1530    1.1220 C.ar  710  22F710      0.0297
      6  C14       26.2330   -1.0510    0.3660 C.ar  710  22F710      0.0055
      7  C9        26.1810   -0.4690   -0.8880 C.ar  710  22F710      0.0391
      8  C7        24.8210   -0.4170   -1.5570 C.2   710  22F710      0.1956
      9  O8        24.0040    0.2620   -0.9700 O.2   710  22F710     -0.2866
     10  C1        24.2950   -1.1060   -2.8090 C.ar  710  22F710      0.0420
     11  C6        23.9340   -2.4480   -2.8180 C.ar  710  22F710      0.0239
     12  C5        23.4180   -3.0300   -3.9750 C.ar  710  22F710      0.0990
     13  N4        23.2340   -2.3150   -5.0910 N.ar  710  22F710     -0.2423
     14  C3        23.5400   -1.0170   -5.1120 C.ar  710  22F710      0.0990
     15  C2        24.0580   -0.3890   -3.9770 C.ar  710  22F710      0.0239
@<TRIPOS>BOND
     1    14    13   ar
     2    14    15   ar
     3    13    12   ar
     4    15    10   ar
     5    12    11   ar
     6    11    10   ar
     7    10     8    1
     8     8     9    2
     9     8     7    1
    10     4     7   ar
    11     4     3   ar
    12     7     6   ar
    13     3     2   ar
    14     6     5   ar
    15     2     5   ar
    16     2     1    1
