@<TRIPOS>MOLECULE
3fu3_92G_A_1.pdb
 13 14 0 0 0
SMALL
GASTEIGER

@<TRIPOS>ATOM
      1  O7        -9.5380   21.5230   10.8300 O.3   710  92G710     -0.2866
      2  C5        -9.7540   23.9700   13.5300 C.ar  710  92G710      0.0055
      3  C6        -9.2780   23.2740   12.4260 C.ar  710  92G710      0.0421
      4  C1       -10.0040   22.2050   11.9120 C.ar  710  92G710      0.1957
      5  C3       -11.6820   22.5300   13.6090 C.ar  710  92G710      0.0055
      6  C2       -11.2060   21.8330   12.5040 C.ar  710  92G710      0.0421
      7  C4       -10.9560   23.5980   14.1220 C.ar  710  92G710      0.0266
      8  C8       -11.4650   24.3450   15.3060 C.2   710  92G710      0.1226
      9  C10      -12.3320   24.5540   17.4020 C.2   710  92G710      0.2460
     10  C12      -11.5240   25.7530   15.3370 C.3   710  92G710      0.1248
     11  S11      -12.1890   26.2530   16.9200 S.3   710  92G710     -0.0564
     12  N9       -11.9100   23.7030   16.4420 N.2   710  92G710     -0.3812
     13  N13      -12.8110   24.1520   18.6040 N.pl3 710  92G710     -0.0867
@<TRIPOS>BOND
     1     1     4    1
     2     4     3   ar
     3     4     6   ar
     4     3     2   ar
     5     6     5   ar
     6     2     7   ar
     7     5     7   ar
     8     7     8    1
     9     8    10    1
    10     8    12    2
    11    10    11    1
    12    12     9    2
    13    11     9    1
    14     9    13    1
