@<TRIPOS>MOLECULE
3fu5_492_A_1.pdb
 12 13 0 0 0
SMALL
GASTEIGER

@<TRIPOS>ATOM
      1  N18       34.3770    1.4710    1.6840 N.3   710  492710     -0.1257
      2  C17       34.2750    2.3060    0.4980 C.3   710  492710      0.1420
      3  C8        33.0110    1.9750   -0.2540 C.ar  710  492710      0.0264
      4  S7        31.6320    1.4920    0.7720 S.2   710  492710     -0.0893
      5  C6        30.6100    1.2580   -0.6670 C.ar  710  492710      0.0352
      6  C10       31.3010    1.5490   -1.8430 C.ar  710  492710      0.0072
      7  C9        32.6370    1.9430   -1.6030 C.ar  710  492710      0.0042
      8  C1        29.1780    0.8230   -0.5700 C.ar  710  492710      0.0355
      9  S2        27.9840    0.9590   -1.8720 S.2   710  492710     -0.0859
     10  C3        26.6880    0.2600   -0.8360 C.ar  710  492710      0.0355
     11  C4        27.2530   -0.0370    0.4070 C.ar  710  492710      0.0075
     12  C5        28.6110    0.2650    0.5660 C.ar  710  492710      0.0075
@<TRIPOS>BOND
     1     9    10   ar
     2     9     8   ar
     3     6     7   ar
     4     6     5   ar
     5     7     3   ar
     6    10    11   ar
     7     5     8    1
     8     5     4   ar
     9     8    12   ar
    10     3     2    1
    11     3     4   ar
    12    11    12   ar
    13     2     1    1
