@<TRIPOS>MOLECULE
3fu6_80G_A_1.pdb
 13 14 0 0 0
SMALL
GASTEIGER

@<TRIPOS>ATOM
      1  C1        25.8510    0.5640    1.3510 C.ar  710  80G710      0.0060
      2  C2        25.5350    1.0840    0.1010 C.ar  710  80G710      0.0002
      3  C3        26.4660    1.0340   -0.9290 C.ar  710  80G710     -0.0028
      4  C4        27.7140    0.4620   -0.7100 C.ar  710  80G710     -0.0032
      5  C5        28.0310   -0.0580    0.5400 C.ar  710  80G710     -0.0028
      6  C6        27.0990   -0.0080    1.5700 C.ar  710  80G710      0.0002
      7  C7        24.8520    0.6180    2.4550 C.ar  710  80G710      0.0295
      8  C9        22.9170    1.4920    3.9530 C.ar  710  80G710      0.0354
      9  C10       23.4830    0.2700    4.3210 C.ar  710  80G710      0.0075
     10  C11       24.5290   -0.2150    3.5210 C.ar  710  80G710      0.0070
     11  C12       28.7270    0.4070   -1.8300 C.3   710  80G710      0.1356
     12  N13       29.7880    1.3610   -1.5700 N.3   710  80G710     -0.1262
     13  S8        23.7870    2.0420    2.4920 S.2   710  80G710     -0.0864
@<TRIPOS>BOND
     1    11    12    1
     2    11     4    1
     3     3     4   ar
     4     3     2   ar
     5     4     5   ar
     6     2     1   ar
     7     5     6   ar
     8     1     6   ar
     9     1     7    1
    10     7    13   ar
    11     7    10   ar
    12    13     8   ar
    13    10     9   ar
    14     8     9   ar
