@<TRIPOS>MOLECULE
3fu7_3DM_A_1.pdb
 11 11 0 0 0
SMALL
GASTEIGER

@<TRIPOS>ATOM
      1  O1       -16.5780   31.8570   20.5590 O.3   3900  3DM3900    -0.2801
      2  C1       -15.2850   31.7760   20.2070 C.ar  3900  3DM3900     0.2627
      3  C2       -14.9100   31.7940   18.7680 C.ar  3900  3DM3900     0.1805
      4  O2       -15.8850   31.8920   17.8140 O.3   3900  3DM3900    -0.4681
      5  C7       -16.1440   30.7960   16.9500 C.3   3900  3DM3900     0.2526
      6  C3       -13.5670   31.7060   18.3920 C.ar  3900  3DM3900     0.0404
      7  C4       -12.5530   31.6070   19.3470 C.ar  3900  3DM3900     0.0064
      8  C5       -12.8540   31.5900   20.7120 C.ar  3900  3DM3900     0.0404
      9  C6       -14.1640   31.6710   21.1970 C.ar  3900  3DM3900     0.1805
     10  O3       -14.3130   31.6510   22.5720 O.3   3900  3DM3900    -0.4681
     11  C8       -15.5340   31.8030   23.2990 C.3   3900  3DM3900     0.2526
@<TRIPOS>BOND
     1     5     4    1
     2     4     3    1
     3     6     3   ar
     4     6     7   ar
     5     3     2   ar
     6     7     8   ar
     7     2     1    1
     8     2     9   ar
     9     8     9   ar
    10     9    10    1
    11    10    11    1
