@<TRIPOS>MOLECULE
3fu7_D2M_B_1.pdb
 22 23 0 0 0
SMALL
GASTEIGER

@<TRIPOS>ATOM
      1  O29      -15.3550   31.5590   20.8970 O.3   2100  D2M2100    -0.2800
      2  C28      -14.0010   31.5320   20.7320 C.ar  2100  D2M2100     0.2629
      3  C26      -13.4700   31.7410   19.4640 C.ar  2100  D2M2100     0.1835
      4  O32      -14.3080   31.9740   18.4000 O.3   2100  D2M2100    -0.4680
      5  C34      -14.9320   30.8950   17.7040 C.3   2100  D2M2100     0.2526
      6  C23      -12.0870   31.7220   19.2760 C.ar  2100  D2M2100     0.0779
      7  C21      -11.2390   31.4840   20.3570 C.ar  2100  D2M2100     0.1519
      8  C22      -11.7760   31.2800   21.6270 C.ar  2100  D2M2100     0.0779
      9  C24      -13.1580   31.3070   21.8200 C.ar  2100  D2M2100     0.1835
     10  O31      -13.6630   31.0860   23.0820 O.3   2100  D2M2100    -0.4680
     11  C33      -14.2470   32.1150   23.8820 C.3   2100  D2M2100     0.2526
     12  O20       -9.8800   31.4790   20.1730 O.3   2100  D2M2100    -0.4471
     13  C3        -9.1340   30.3330   20.0660 C.ar  2100  D2M2100     0.2125
     14  C4        -8.9510   29.7410   18.8210 C.ar  2100  D2M2100     0.1760
     15  O10       -9.5300   30.2870   17.7010 O.3   2100  D2M2100    -0.4682
     16  C11       -8.8580   31.2940   16.9440 C.3   2100  D2M2100     0.2526
     17  C5        -8.1830   28.5810   18.7080 C.ar  2100  D2M2100     0.0403
     18  C6        -7.5950   28.0190   19.8390 C.ar  2100  D2M2100     0.0064
     19  C1        -7.7730   28.6190   21.0830 C.ar  2100  D2M2100     0.0403
     20  C2        -8.5430   29.7780   21.1980 C.ar  2100  D2M2100     0.1760
     21  O15       -8.7140   30.3700   22.4260 O.3   2100  D2M2100    -0.4682
     22  C16       -9.3120   29.6410   23.5360 C.3   2100  D2M2100     0.2526
@<TRIPOS>BOND
     1    16    15    1
     2    15    14    1
     3     5     4    1
     4     4     3    1
     5    17    14   ar
     6    17    18   ar
     7    14    13   ar
     8     6     3   ar
     9     6     7   ar
    10     3     2   ar
    11    18    19   ar
    12    13    12    1
    13    13    20   ar
    14    12     7    1
    15     7     8   ar
    16     2     1    1
    17     2     9   ar
    18    19    20   ar
    19    20    21    1
    20     8     9   ar
    21     9    10    1
    22    21    22    1
    23    10    11    1
