@<TRIPOS>MOLECULE
3fu7_MAN_B_1.pdb
 11 11 0 0 0
SMALL
GASTEIGER

@<TRIPOS>ATOM
      1  C1         0.2370    8.4850   14.7130 C.3   714  MAN714      0.1777
      2  C2         1.2700    8.0320   15.7220 C.3   714  MAN714      0.2141
      3  C3         1.5280    6.5320   15.6940 C.3   714  MAN714      0.2173
      4  C4         0.2320    5.7170   15.6540 C.3   714  MAN714      0.2142
      5  C5        -0.7780    6.2940   14.6550 C.3   714  MAN714      0.1810
      6  C6        -2.1310    5.5920   14.7910 C.3   714  MAN714      0.2141
      7  O2         0.7210    8.3330   16.9720 O.3   714  MAN714     -0.2176
      8  O3         2.2160    6.2250   16.8830 O.3   714  MAN714     -0.2175
      9  O4         0.5220    4.3660   15.3500 O.3   714  MAN714     -0.2176
     10  O5        -0.9420    7.6950   14.8390 O.3   714  MAN714     -0.3481
     11  O6        -3.1560    6.3440   14.1700 O.3   714  MAN714     -0.2176
@<TRIPOS>BOND
     1    11     6    1
     2     5     6    1
     3     5    10    1
     4     5     4    1
     5     1    10    1
     6     1     2    1
     7     9     4    1
     8     4     3    1
     9     3     2    1
    10     3     8    1
    11     2     7    1
