@<TRIPOS>MOLECULE
3fu8_3DM_A_1.pdb
 11 11 0 0 0
SMALL
GASTEIGER

@<TRIPOS>ATOM
      1  O1       -17.2390   31.9910   21.4790 O.3   2900  3DM2900    -0.2801
      2  C1       -15.9330   31.8930   21.2310 C.ar  2900  3DM2900     0.2627
      3  C2       -15.4480   31.8660   19.8240 C.ar  2900  3DM2900     0.1805
      4  O2       -16.3470   31.9320   18.7990 O.3   2900  3DM2900    -0.4681
      5  C7       -16.1790   31.1540   17.6140 C.3   2900  3DM2900     0.2526
      6  C3       -14.0830   31.7800   19.5710 C.ar  2900  3DM2900     0.0404
      7  C4       -13.1710   31.7220   20.6180 C.ar  2900  3DM2900     0.0064
      8  C5       -13.5550   31.7520   21.9510 C.ar  2900  3DM2900     0.0404
      9  C6       -14.9000   31.8360   22.3210 C.ar  2900  3DM2900     0.1805
     10  O3       -15.2520   31.8690   23.6570 O.3   2900  3DM2900    -0.4681
     11  C8       -14.4540   31.1870   24.6440 C.3   2900  3DM2900     0.2526
@<TRIPOS>BOND
     1     5     4    1
     2     4     3    1
     3     6     3   ar
     4     6     7   ar
     5     3     2   ar
     6     7     8   ar
     7     2     1    1
     8     2     9   ar
     9     8     9   ar
    10     9    10    1
    11    10    11    1
