@<TRIPOS>MOLECULE
3fu8_MAN_A_1.pdb
 11 11 0 0 0
SMALL
GASTEIGER

@<TRIPOS>ATOM
      1  C1       -19.5270   51.8110   15.6420 C.3   714  MAN714      0.1777
      2  C2       -19.9470   53.1640   16.2040 C.3   714  MAN714      0.2141
      3  C3       -18.8610   54.2260   15.8930 C.3   714  MAN714      0.2173
      4  C4       -17.4590   53.7370   16.2400 C.3   714  MAN714      0.2142
      5  C5       -17.1910   52.3110   15.7170 C.3   714  MAN714      0.1810
      6  C6       -15.8130   51.7820   16.1260 C.3   714  MAN714      0.2141
      7  O2       -20.2280   52.9850   17.5820 O.3   714  MAN714     -0.2176
      8  O3       -19.0840   55.4920   16.5030 O.3   714  MAN714     -0.2175
      9  O4       -16.5720   54.6550   15.6460 O.3   714  MAN714     -0.2176
     10  O5       -18.2330   51.4190   16.1200 O.3   714  MAN714     -0.3481
     11  O6       -15.8680   50.9760   17.2790 O.3   714  MAN714     -0.2176
@<TRIPOS>BOND
     1     1    10    1
     2     1     2    1
     3     9     4    1
     4     5    10    1
     5     5     6    1
     6     5     4    1
     7     3     2    1
     8     3     4    1
     9     3     8    1
    10     6    11    1
    11     2     7    1
