@<TRIPOS>MOLECULE
3fu9_KIB_A_1.pdb
 12 12 0 0 0
SMALL
GASTEIGER

@<TRIPOS>ATOM
      1  O1       -16.4060   31.3170   21.3590 O.2   1001  KIB1001    -0.2800
      2  C1       -15.1610   31.2550   21.1520 C.2   1001  KIB1001     0.2630
      3  C6       -14.3080   31.2340   22.3280 C.2   1001  KIB1001     0.1837
      4  O3       -14.9470   31.2640   23.5710 O.2   1001  KIB1001    -0.4680
      5  C7       -14.2430   31.0900   24.8060 C.3   1001  KIB1001     0.2526
      6  C5       -12.9240   31.1580   22.1100 C.2   1001  KIB1001     0.0824
      7  C2       -14.5260   31.2150   19.7900 C.2   1001  KIB1001     0.1837
      8  O4       -15.3420   31.2390   18.6990 O.2   1001  KIB1001    -0.4680
      9  C8       -14.8550   31.0010   17.3750 C.3   1001  KIB1001     0.2526
     10  C3       -13.1510   31.1580   19.6660 C.2   1001  KIB1001     0.0824
     11  C4       -12.3560   31.1090   20.8180 C.2   1001  KIB1001     0.2020
     12  O2       -11.0880   31.0420   20.6810 O.2   1001  KIB1001    -0.2864
@<TRIPOS>BOND
     1     9     8    1
     2     8     7    1
     3    10     7    2
     4    10    11    1
     5     7     2    1
     6    12    11    2
     7    11     6    1
     8     2     1    2
     9     2     3    1
    10     6     3    2
    11     3     4    1
    12     4     5    1
