@<TRIPOS>MOLECULE
3fuc_9D9_A_1.pdb
 11 10 0 0 0
SMALL
GASTEIGER

@<TRIPOS>ATOM
      1  O2P       32.3860  -14.9410   24.9800 O.3   400  9D9400     -0.3536
      2  P         31.3390  -14.0990   24.1700 P.3   400  9D9400      0.1787
      3  O3P       30.0310  -13.8640   25.0680 O.3   400  9D9400     -0.3536
      4  O1P       30.9710  -14.6990   22.8460 O.2   400  9D9400     -0.4546
      5  C14       31.9840  -12.4160   23.8580 C.3   400  9D9400      0.3064
      6  F1        32.9330  -12.4970   22.8860 F     400  9D9400     -0.1968
      7  F2        30.9860  -11.6460   23.4100 F     400  9D9400     -0.1968
      8  C13       32.6100  -11.8350   25.1200 C.3   400  9D9400      0.0738
      9  C12       32.7940  -10.3110   24.9620 C.3   400  9D9400      0.0061
     10  C11       33.3950   -9.6850   26.2270 C.3   400  9D9400      0.0002
     11  C10       32.6170  -10.1110   27.4920 C.3   400  9D9400      0.0000
@<TRIPOS>BOND
     1     4     2    2
     2     6     5    1
     3     7     5    1
     4     5     2    1
     5     5     8    1
     6     2     1    1
     7     2     3    1
     8     9     8    1
     9     9    10    1
    10    10    11    1
