@<TRIPOS>MOLECULE
3fuc_9DG_A_1.pdb
 11 12 0 0 0
SMALL
GASTEIGER

@<TRIPOS>ATOM
      1  C9        33.0520   -9.3200   28.7270 C.2   401  9DG401      0.0561
      2  C8        34.1090   -9.5590   29.5300 C.2   401  9DG401      0.1025
      3  N7        34.1320   -8.6250   30.5030 N.2   401  9DG401     -0.2289
      4  C5        33.0950   -7.7550   30.3580 C.2   401  9DG401      0.2068
      5  C6        32.6570   -6.6250   31.0250 C.1   401  9DG401      0.2362
      6  O6        33.1950   -6.1300   32.0220 O.2   401  9DG401     -0.2069
      7  N1        31.4850   -5.9810   30.5030 N.2   401  9DG401     -0.2486
      8  C2        30.8530   -6.5460   29.3350 C.1   401  9DG401      0.2519
      9  N2        29.7440   -5.8420   29.0170 N.pl3 401  9DG401     -0.0226
     10  N3        31.2320   -7.5640   28.7140 N.2   401  9DG401     -0.3229
     11  C4        32.4070   -8.1990   29.2290 C.2   401  9DG401      0.1764
@<TRIPOS>BOND
     1    10    11    2
     2    10     8    2
     3     1    11    1
     4     1     2    2
     5     9     8    1
     6    11     4    1
     7     8     7    2
     8     2     3    1
     9     4     3    2
    10     4     5    1
    11     7     5    2
    12     5     6    2
