@<TRIPOS>MOLECULE
3fud_692_A_1.pdb
 14 15 0 0 0
SMALL
GASTEIGER

@<TRIPOS>ATOM
      1  C14       -4.3410   18.7510  -24.0810 C.3   710  692710      0.1079
      2  N13       -4.9740   19.1900  -22.8420 N.3   710  692710     -0.2118
      3  C12       -5.2120   18.2670  -21.7340 C.3   710  692710      0.1150
      4  C2        -4.0390   18.2720  -20.7650 C.ar  710  692710     -0.0043
      5  C3        -2.7490   18.3940  -21.2980 C.ar  710  692710     -0.0029
      6  C4        -1.6210   18.4070  -20.4850 C.ar  710  692710     -0.0003
      7  C5        -1.7830   18.2900  -19.1120 C.ar  710  692710     -0.0000
      8  C6        -3.0550   18.1650  -18.5610 C.ar  710  692710      0.0002
      9  C1        -4.1920   18.1550  -19.3740 C.ar  710  692710      0.0034
     10  C7        -5.5040   18.0090  -18.6680 C.ar  710  692710      0.0292
     11  C11       -6.8410   18.3310  -18.8860 C.ar  710  692710      0.0070
     12  C10       -7.6950   17.9520  -17.8270 C.ar  710  692710      0.0075
     13  C9        -7.1320   17.3140  -16.7170 C.ar  710  692710      0.0354
     14  S8        -5.3870   17.2110  -17.0840 S.2   710  692710     -0.0864
@<TRIPOS>BOND
     1     1     2    1
     2     2     3    1
     3     3     4    1
     4     5     4   ar
     5     5     6   ar
     6     4     9   ar
     7     6     7   ar
     8     9    10    1
     9     9     8   ar
    10     7     8   ar
    11    11    10   ar
    12    11    12   ar
    13    10    14   ar
    14    12    13   ar
    15    14    13   ar
