@<TRIPOS>MOLECULE
3fue_BES_A_1.pdb
 22 22 0 0 0
SMALL
GASTEIGER

@<TRIPOS>ATOM
      1  N2        34.9090   -1.5040   -1.6160 N.3   720  BES720     -0.1293
      2  C1        34.5980   -2.9330   -1.5400 C.3   720  BES720      0.1355
      3  C6        34.1180   -3.3610   -0.1560 C.3   720  BES720      0.0485
      4  C7        32.9290   -2.5280    0.3220 C.ar  720  BES720     -0.0206
      5  C8        32.9330   -2.0160    1.6420 C.ar  720  BES720     -0.0042
      6  C12       31.8020   -2.2730   -0.4770 C.ar  720  BES720     -0.0042
      7  C9        31.8530   -1.2340    2.1400 C.ar  720  BES720     -0.0003
      8  C11       30.7200   -1.5170    0.0300 C.ar  720  BES720     -0.0003
      9  C10       30.7270   -0.9920    1.3470 C.ar  720  BES720     -0.0000
     10  C2        35.8200   -3.7790   -1.9250 C.3   720  BES720      0.2467
     11  O2        36.4890   -3.2460   -3.0770 O.3   720  BES720     -0.2116
     12  C3        35.3330   -5.1800   -2.1770 C.2   720  BES720      0.2738
     13  O3        34.3860   -5.3800   -2.9140 O.2   720  BES720     -0.2705
     14  N1        35.9360   -6.1990   -1.5770 N.am  720  BES720     -0.1934
     15  C4        35.4500   -7.5810   -1.7920 C.3   720  BES720      0.1978
     16  C13       36.5130   -8.3830   -2.5780 C.3   720  BES720      0.0333
     17  C14       36.2720   -8.4460   -4.0920 C.3   720  BES720      0.0023
     18  C15       34.8770   -9.0000   -4.3940 C.3   720  BES720      0.0001
     19  C16       37.2960   -9.3350   -4.7980 C.3   720  BES720      0.0001
     20  C5        35.1970   -8.1720   -0.4290 C.2   720  BES720      0.3842
     21  O1        35.4750   -7.4580    0.5690 O.co2 720  BES720     -0.2437
     22  O4        34.7310   -9.3190   -0.3200 O.co2 720  BES720     -0.2437
@<TRIPOS>BOND
     1    19    17    1
     2    18    17    1
     3    17    16    1
     4    11    10    1
     5    13    12    2
     6    16    15    1
     7    12    10    1
     8    12    14   am
     9    10     2    1
    10    15    14    1
    11    15    20    1
    12     1     2    1
    13     2     3    1
    14     6     8   ar
    15     6     4   ar
    16    20    22   ar
    17    20    21   ar
    18     3     4    1
    19     8     9   ar
    20     4     5   ar
    21     9     7   ar
    22     5     7   ar
