@<TRIPOS>MOLECULE
3fue_11S_A_1.pdb
 10 11 0 0 0
SMALL
GASTEIGER

@<TRIPOS>ATOM
      1  C8        22.4820   -3.0260   -5.5770 C.2   710  11S710      0.0985
      2  C9        22.8700   -3.2290   -4.2550 C.2   710  11S710      0.0218
      3  C1        24.3200    0.0370   -4.8090 C.3   710  11S710      0.0726
      4  C2        24.9350    0.3370   -3.6040 C.2   710  11S710     -0.0084
      5  C3        24.8990   -0.5280   -2.5340 C.2   710  11S710      0.0538
      6  C4        24.2210   -1.7530   -2.6250 C.2   710  11S710      0.0123
      7  C5        23.6020   -2.0660   -3.8510 C.2   710  11S710      0.0163
      8  C6        23.6500   -1.1810   -4.9230 C.2   710  11S710      0.0634
      9 CL10       25.7670    0.1420   -1.1100 Cl    710  11S710     -0.0826
     10  N7        22.9650   -1.7820   -5.9480 N.2   710  11S710     -0.2478
@<TRIPOS>BOND
     1    10     1    1
     2    10     8    2
     3     1     2    2
     4     8     3    1
     5     8     7    1
     6     3     4    1
     7     2     7    1
     8     7     6    2
     9     4     5    2
    10     6     5    1
    11     5     9    1
