@<TRIPOS>MOLECULE
3fuf_BES_A_1.pdb
 22 22 0 0 0
SMALL
GASTEIGER

@<TRIPOS>ATOM
      1  N2         4.2840   -1.5150    1.7390 N.3   720  BES720     -0.1293
      2  C1         4.5450   -2.9500    1.6250 C.3   720  BES720      0.1355
      3  C6         4.9730   -3.3080    0.2070 C.3   720  BES720      0.0485
      4  C7         6.1700   -2.5250   -0.3180 C.ar  720  BES720     -0.0206
      5  C8         6.1580   -2.0350   -1.6180 C.ar  720  BES720     -0.0042
      6  C12        7.3200   -2.2810    0.4300 C.ar  720  BES720     -0.0042
      7  C9         7.2560   -1.3110   -2.1550 C.ar  720  BES720     -0.0003
      8  C11        8.4140   -1.5640   -0.1080 C.ar  720  BES720     -0.0003
      9  C10        8.3950   -1.0740   -1.4130 C.ar  720  BES720     -0.0000
     10  C2         3.3300   -3.8050    2.0060 C.3   720  BES720      0.2467
     11  O2         2.6590   -3.2910    3.1540 O.3   720  BES720     -0.2116
     12  C3         3.7920   -5.2130    2.2650 C.2   720  BES720      0.2738
     13  O3         4.7250   -5.4770    3.0190 O.2   720  BES720     -0.2705
     14  N1         3.1560   -6.1880    1.6300 N.am  720  BES720     -0.1934
     15  C4         3.5520   -7.5910    1.8150 C.3   720  BES720      0.1978
     16  C13        2.4650   -8.2980    2.6510 C.3   720  BES720      0.0333
     17  C14        2.7410   -8.4060    4.1610 C.3   720  BES720      0.0023
     18  C15        4.1010   -9.0510    4.4290 C.3   720  BES720      0.0001
     19  C16        1.6770   -9.2750    4.8290 C.3   720  BES720      0.0001
     20  C5         3.7400   -8.2170    0.4500 C.2   720  BES720      0.3842
     21  O1         3.5710   -7.5080   -0.5810 O.co2 720  BES720     -0.2437
     22  O4         4.0440   -9.4230    0.3800 O.co2 720  BES720     -0.2437
@<TRIPOS>BOND
     1     7     5   ar
     2     7     9   ar
     3     5     4   ar
     4     9     8   ar
     5    21    20   ar
     6     4     3    1
     7     4     6   ar
     8     8     6   ar
     9     3     2    1
    10    22    20   ar
    11    20    15    1
    12     2     1    1
    13     2    10    1
    14    14    15    1
    15    14    12   am
    16    15    16    1
    17    10    12    1
    18    10    11    1
    19    12    13    2
    20    16    17    1
    21    17    18    1
    22    17    19    1
