@<TRIPOS>MOLECULE
3fuf_14O_A_1.pdb
 10 11 0 0 0
SMALL
GASTEIGER

@<TRIPOS>ATOM
      1  C1        14.2750   -0.0260    4.3190 C.3   710  14O710      0.0741
      2  C2        13.8010    0.2660    3.0390 C.2   710  14O710      0.0098
      3  C3        14.0930   -0.5400    1.9480 C.2   710  14O710      0.1363
      4  C4        14.8910   -1.6760    2.1150 C.2   710  14O710      0.0305
      5  C5        15.3830   -1.9530    3.4010 C.2   710  14O710      0.0177
      6  C6        15.0730   -1.1400    4.4880 C.2   710  14O710      0.0635
      7  C8        16.3640   -2.8250    5.1840 C.2   710  14O710      0.0985
      8  C9        16.2050   -3.0490    3.8130 C.2   710  14O710      0.0219
      9  F10       13.5790   -0.1670    0.7650 F     710  14O710     -0.2045
     10  N7        15.7000   -1.6830    5.5640 N.2   710  14O710     -0.2478
@<TRIPOS>BOND
     1     9     3    1
     2     3     4    1
     3     3     2    2
     4     4     5    2
     5     2     1    1
     6     5     8    1
     7     5     6    1
     8     8     7    2
     9     1     6    1
    10     6    10    2
    11     7    10    1
