@<TRIPOS>MOLECULE
3fug_2E3_A_1.pdb
 27 29 0 0 0
SMALL
GASTEIGER

@<TRIPOS>ATOM
      1  CAA      -20.7680    1.1250    1.0420 C.3     1  2E31        0.0310
      2  CAS      -19.9490    1.1380    2.3500 C.ar    1  2E31       -0.0221
      3  CAN      -20.1580    0.0970    3.2590 C.ar    1  2E31       -0.0089
      4  CAX      -19.4810    0.0260    4.4810 C.ar    1  2E31       -0.0271
      5  CAZ      -19.7980   -1.1690    5.4270 C.3     1  2E31        0.0186
      6  CAB      -21.3040   -1.2680    5.6790 C.3     1  2E31        0.0044
      7  CAC      -19.3310   -2.4800    4.7750 C.3     1  2E31        0.0044
      8  CAP      -19.1990   -1.0090    6.8170 C.3     1  2E31        0.0044
      9  CAQ      -17.8760   -0.2710    6.9240 C.3     1  2E31        0.0044
     10  CBA      -17.7550    1.0360    6.1210 C.3     1  2E31        0.0186
     11  CAD      -16.2910    1.1500    5.7920 C.3     1  2E31        0.0044
     12  CAE      -18.1820    2.2550    6.9530 C.3     1  2E31        0.0044
     13  CAY      -18.5540    1.0410    4.7970 C.ar    1  2E31       -0.0268
     14  CAO      -18.3380    2.0830    3.8700 C.ar    1  2E31       -0.0048
     15  CAV      -19.0300    2.1510    2.6500 C.ar    1  2E31       -0.0012
     16  CAW      -18.7720    3.2320    1.7810 C.ar    1  2E31        0.0386
     17  CAM      -19.2680    4.5070    2.0850 C.ar    1  2E31        0.0032
     18  CAU      -17.9870    3.0620    0.6310 C.ar    1  2E31        0.1956
     19  OAH      -17.4850    1.8220    0.3400 O.3     1  2E31       -0.2866
     20  CAL      -17.7270    4.1580   -0.2070 C.ar    1  2E31        0.0420
     21  CAK      -18.2420    5.4290    0.1080 C.ar    1  2E31        0.0033
     22  CAT      -19.0300    5.6100    1.2570 C.ar    1  2E31        0.0004
     23  CAJ      -19.5570    6.8560    1.6540 C.2     1  2E31        0.0068
     24  CAI      -18.9020    8.0600    1.3730 C.2     1  2E31        0.0861
     25  CAR      -19.3390    9.3330    1.7740 C.2     1  2E31        0.3880
     26  OAG      -20.3880    9.4520    2.4390 O.co2   1  2E31       -0.2405
     27  OAF      -18.6270   10.3070    1.4430 O.co2   1  2E31       -0.2405
@<TRIPOS>BOND
     1    20    21   ar
     2    20    18   ar
     3    21    22   ar
     4    19    18    1
     5    18    16   ar
     6     1     2    1
     7    22    23    1
     8    22    17   ar
     9    24    23    2
    10    24    25    1
    11    27    25   ar
    12    25    26   ar
    13    16    17   ar
    14    16    15    1
    15     2    15   ar
    16     2     3   ar
    17    15    14   ar
    18     3     4   ar
    19    14    13   ar
    20     4    13   ar
    21     4     5    1
    22     7     5    1
    23    13    10    1
    24     5     6    1
    25     5     8    1
    26    11    10    1
    27    10     9    1
    28    10    12    1
    29     8     9    1
