@<TRIPOS>MOLECULE
3fuh_BES_A_1.pdb
 22 22 0 0 0
SMALL
GASTEIGER

@<TRIPOS>ATOM
      1  N2        34.7500   85.7780   -1.3550 N.3   720  BES720     -0.1293
      2  C1        34.3180   84.4000   -1.5470 C.3   720  BES720      0.1355
      3  C6        33.7200   83.8780   -0.2430 C.3   720  BES720      0.0485
      4  C7        32.5640   84.7540    0.2170 C.ar  720  BES720     -0.0206
      5  C8        32.6220   85.3380    1.4840 C.ar  720  BES720     -0.0042
      6  C12       31.4450   84.9480   -0.5920 C.ar  720  BES720     -0.0042
      7  C9        31.5620   86.1290    1.9470 C.ar  720  BES720     -0.0003
      8  C11       30.3770   85.7400   -0.1400 C.ar  720  BES720     -0.0003
      9  C10       30.4400   86.3230    1.1310 C.ar  720  BES720     -0.0000
     10  C2        35.5050   83.5390   -1.9670 C.3   720  BES720      0.2467
     11  O2        36.1430   84.1080   -3.1010 O.3   720  BES720     -0.2116
     12  C3        35.0340   82.1750   -2.3630 C.2   720  BES720      0.2738
     13  O3        34.3500   82.0400   -3.3630 O.2   720  BES720     -0.2705
     14  N1        35.4120   81.1550   -1.5930 N.am  720  BES720     -0.1934
     15  C4        34.9820   79.7790   -1.8680 C.3   720  BES720      0.1978
     16  C13       36.1330   79.0450   -2.5500 C.3   720  BES720      0.0333
     17  C14       36.0570   78.9160   -4.0720 C.3   720  BES720      0.0023
     18  C15       34.7280   78.3400   -4.5680 C.3   720  BES720      0.0001
     19  C16       37.1840   77.9970   -4.5250 C.3   720  BES720      0.0001
     20  C5        34.7610   79.1160   -0.5380 C.2   720  BES720      0.3842
     21  O1        35.1210   79.7310    0.4820 O.co2 720  BES720     -0.2437
     22  O4        34.2560   77.9720   -0.4780 O.co2 720  BES720     -0.2437
@<TRIPOS>BOND
     1    18    17    1
     2    19    17    1
     3    17    16    1
     4    13    12    2
     5    11    10    1
     6    16    15    1
     7    12    10    1
     8    12    14   am
     9    10     2    1
    10    15    14    1
    11    15    20    1
    12     2     1    1
    13     2     3    1
    14     6     8   ar
    15     6     4   ar
    16    20    22   ar
    17    20    21   ar
    18     3     4    1
    19     8     9   ar
    20     4     5   ar
    21     9     7   ar
    22     5     7   ar
