@<TRIPOS>MOLECULE
3fuh_5H1_A_1.pdb
 10 11 0 0 0
SMALL
GASTEIGER

@<TRIPOS>ATOM
      1  O10       27.0100   86.7500    0.3160 O.2   710  5H1710     -0.2869
      2  C5        26.1960   86.8480   -0.7710 C.2   710  5H1710      0.1922
      3  C6        26.3050   87.9610   -1.6140 C.2   710  5H1710      0.0429
      4  C7        25.4650   88.0660   -2.7250 C.2   710  5H1710      0.0186
      5  C8        24.5400   87.0550   -2.9880 C.2   710  5H1710      0.0670
      6  N1        23.6070   86.8500   -3.9570 N.2   710  5H1710     -0.2478
      7  C4        25.2550   85.8390   -1.0310 C.2   710  5H1710      0.0259
      8  C9        24.4270   85.9560   -2.1450 C.3   710  5H1710      0.0888
      9  C3        23.4190   85.0500   -2.5970 C.2   710  5H1710      0.0046
     10  C2        22.9370   85.6760   -3.7400 C.2   710  5H1710      0.0946
@<TRIPOS>BOND
     1     6    10    1
     2     6     5    2
     3    10     9    2
     4     5     4    1
     5     5     8    1
     6     4     3    2
     7     9     8    1
     8     8     7    1
     9     3     2    1
    10     7     2    2
    11     2     1    1
