@<TRIPOS>MOLECULE
3fui_812_A_1.pdb
 21 23 0 0 0
SMALL
GASTEIGER

@<TRIPOS>ATOM
      1  C1S        4.8220   -2.2950   -1.0420 C.3   710  812710      0.0888
      2  N1T        5.7930   -1.6680   -1.9290 N.3   710  812710     -0.2157
      3  C1R        5.4830   -3.5610   -0.5080 C.3   710  812710      0.0204
      4  C1Q        6.9640   -3.3400   -0.7850 C.3   710  812710      0.0227
      5  C1P        6.9990   -2.4690   -2.0290 C.3   710  812710      0.1164
      6  C1O        8.3120   -1.7020   -2.2240 C.3   710  812710      0.2225
      7  O1N        8.6590   -0.7850   -1.1960 O.3   710  812710     -0.4740
      8  C1K        9.9770   -0.6380   -0.7700 C.ar  710  812710      0.1387
      9  C1J       11.0440   -0.8880   -1.6430 C.ar  710  812710      0.0382
     10  C1I       12.3510   -0.7670   -1.1790 C.ar  710  812710      0.0192
     11  C1H       12.6150   -0.3970    0.1560 C.ar  710  812710      0.0659
     12  C1M       11.5380   -0.1390    1.0060 C.ar  710  812710      0.0192
     13  C1L       10.2270   -0.2510    0.5530 C.ar  710  812710      0.0382
     14  N1        13.9100   -0.2820    0.5850 N.pl3 710  812710     -0.2328
     15  C1G       14.2820    0.2420    1.8950 C.3   710  812710      0.1385
     16  C1C       14.7580   -0.8630    2.8540 C.ar  710  812710     -0.0007
     17  C1D       15.1470   -0.5440    4.1590 C.ar  710  812710     -0.0026
     18  C1E       15.5790   -1.5280    5.0390 C.ar  710  812710     -0.0003
     19  C1F       15.6360   -2.8400    4.6190 C.ar  710  812710     -0.0000
     20  C1A       15.2540   -3.1770    3.3250 C.ar  710  812710     -0.0003
     21  C1B       14.8240   -2.2010    2.4390 C.ar  710  812710     -0.0026
@<TRIPOS>BOND
     1     6     5    1
     2     6     7    1
     3     5     2    1
     4     5     4    1
     5     2     1    1
     6     9    10   ar
     7     9     8   ar
     8     7     8    1
     9    10    11   ar
    10     1     3    1
    11     4     3    1
    12     8    13   ar
    13    11    14    1
    14    11    12   ar
    15    13    12   ar
    16    14    15    1
    17    15    16    1
    18    21    16   ar
    19    21    20   ar
    20    16    17   ar
    21    20    19   ar
    22    17    18   ar
    23    19    18   ar
