@<TRIPOS>MOLECULE
3fuj_00G_A_1.pdb
 17 19 0 0 0
SMALL
GASTEIGER

@<TRIPOS>ATOM
      1  C17      -31.0550   -2.9130   -0.4530 C.ar  710  00G710      0.0760
      2  C16      -32.4660   -3.3690   -0.0690 C.ar  710  00G710      0.0202
      3  C15      -33.4640   -2.7030   -1.0070 C.ar  710  00G710      0.0202
      4  C14      -32.6800   -1.7590   -1.9200 C.ar  710  00G710      0.0760
      5  N13      -31.2950   -1.9290   -1.5020 N.ar  710  00G710     -0.3223
      6  C12      -30.2440   -1.1550   -2.1650 C.3   710  00G710      0.1381
      7  C11      -28.8440   -1.3330   -1.5640 C.3   710  00G710      0.1673
      8  O10      -28.5850   -0.2660   -0.6360 O.3   710  00G710     -0.3454
      9  C3       -27.5370   -0.1810    0.2710 C.3   710  00G710      0.1594
     10  C2       -27.6720    0.8050    1.2410 C.2   710  00G710      0.0089
     11  C4       -26.4050   -0.9950    0.2790 C.2   710  00G710      0.0089
     12  C5       -25.4130   -0.8020    1.2720 C.2   710  00G710      0.0176
     13  C9       -24.1840   -1.4980    1.4890 C.2   710  00G710      0.0219
     14  C8       -23.6470   -0.8750    2.6210 C.2   710  00G710      0.0989
     15  N7       -24.4830    0.1380    3.0340 N.2   710  00G710     -0.2439
     16  C6       -25.5610    0.1910    2.2270 C.2   710  00G710      0.0809
     17  C1       -26.6810    0.9880    2.2010 C.2   710  00G710      0.0173
@<TRIPOS>BOND
     1     6     7    1
     2     6     5    1
     3     4     5   ar
     4     4     3   ar
     5     7     8    1
     6     5     1   ar
     7     3     2   ar
     8     8     9    1
     9     1     2   ar
    10     9    11    1
    11     9    10    1
    12    11    12    2
    13    10    17    2
    14    12    13    1
    15    12    16    1
    16    13    14    2
    17    17    16    1
    18    16    15    2
    19    14    15    1
