@<TRIPOS>MOLECULE
3fuk_58Z_A_1.pdb
 21 23 0 0 0
SMALL
GASTEIGER

@<TRIPOS>ATOM
      1  O21      -36.3690   -3.7590    2.5380 O.co2 710  58Z710     -0.2457
      2  C19      -35.2230   -4.1670    2.2180 C.2   710  58Z710      0.3644
      3  O20      -34.2970   -4.1950    3.0580 O.co2 710  58Z710     -0.2457
      4  C16      -34.9630   -4.6440    0.7980 C.3   710  58Z710      0.1062
      5  C15      -33.5030   -4.9300    0.4550 C.3   710  58Z710      0.0286
      6  C14      -32.6090   -3.6810    0.3700 C.3   710  58Z710      0.0728
      7  C17      -35.4290   -3.6440   -0.2550 C.3   710  58Z710      0.0286
      8  C18      -34.5970   -2.3800   -0.4460 C.3   710  58Z710      0.0728
      9  N13      -33.1890   -2.7230   -0.5620 N.3   710  58Z710     -0.2695
     10  C12      -32.3930   -2.0500   -1.5960 C.3   710  58Z710      0.1200
     11  C11      -30.9030   -2.1940   -1.2620 C.3   710  58Z710      0.2226
     12  O10      -30.0730   -1.1100   -1.7170 O.2   710  58Z710     -0.4743
     13  C3       -29.1020   -0.6670   -0.8350 C.2   710  58Z710      0.1348
     14  C2       -29.4110    0.3420    0.0840 C.2   710  58Z710      0.0171
     15  C4       -27.8150   -1.2230   -0.8090 C.2   710  58Z710      0.0378
     16  C5       -26.8650   -0.7640    0.1190 C.2   710  58Z710      0.0184
     17  C7       -25.5160   -1.2000    0.3110 C.2   710  58Z710      0.0219
     18  C8       -25.0580   -0.4070    1.3500 C.2   710  58Z710      0.0985
     19  N9       -26.0600    0.4320    1.7530 N.2   710  58Z710     -0.2478
     20  C6       -27.1860    0.2330    1.0140 C.2   710  58Z710      0.0636
     21  C1       -28.4620    0.7970    1.0020 C.3   710  58Z710      0.0749
@<TRIPOS>BOND
     1    12    11    1
     2    12    13    1
     3    10    11    1
     4    10     9    1
     5    13    15    1
     6    13    14    2
     7    15    16    2
     8     9     8    1
     9     9     6    1
    10     8     7    1
    11     7     4    1
    12    14    21    1
    13    16    17    1
    14    16    20    1
    15    17    18    2
    16     6     5    1
    17     5     4    1
    18     4     2    1
    19    21    20    1
    20    20    19    2
    21    18    19    1
    22     2     1   ar
    23     2     3   ar
