@<TRIPOS>MOLECULE
3ful_52D_A_1.pdb
 22 24 0 0 0
SMALL
GASTEIGER

@<TRIPOS>ATOM
      1  O8       -24.8920    1.1990    2.6490 O.2   710  52D710     -0.2866
      2  C7       -25.1170    0.0300    2.4050 C.2   710  52D710      0.1956
      3  C9       -24.3440   -1.0220    3.1900 C.ar  710  52D710      0.0420
      4  C14      -23.9790   -2.2550    2.6650 C.ar  710  52D710      0.0239
      5  C13      -23.2920   -3.1470    3.4920 C.ar  710  52D710      0.0990
      6  N12      -22.9570   -2.8330    4.7470 N.ar  710  52D710     -0.2423
      7  C11      -23.2810   -1.6610    5.2760 C.ar  710  52D710      0.0990
      8  C10      -23.9650   -0.7440    4.5060 C.ar  710  52D710      0.0239
      9  C6       -26.1770   -0.1650    1.3510 C.ar  710  52D710      0.0392
     10  C1       -27.4930    0.2860    1.5550 C.ar  710  52D710      0.0063
     11  C5       -25.8220   -0.7300    0.1470 C.ar  710  52D710      0.0063
     12  C4       -26.7890   -0.8820   -0.8280 C.ar  710  52D710      0.0370
     13  C3       -28.1040   -0.4720   -0.6240 C.ar  710  52D710      0.1386
     14  C2       -28.4690    0.1230    0.5760 C.ar  710  52D710      0.0370
     15  O15      -28.9800   -0.6730   -1.6680 O.3   710  52D710     -0.4740
     16  C16      -30.3870   -0.6820   -1.5040 C.3   710  52D710      0.2226
     17  C17      -31.0370   -1.7890   -2.2990 C.3   710  52D710      0.1200
     18  N23      -32.1620   -2.2520   -1.4770 N.3   710  52D710     -0.2696
     19  C19      -33.5270   -1.8830   -1.7950 C.3   710  52D710      0.0722
     20  C22      -31.9960   -3.1430   -0.3390 C.3   710  52D710      0.0722
     21  C21      -33.3940   -3.7170   -0.1240 C.3   710  52D710      0.0188
     22  C20      -34.3420   -2.9070   -0.9910 C.3   710  52D710      0.0188
@<TRIPOS>BOND
     1    17    16    1
     2    17    18    1
     3    19    18    1
     4    19    22    1
     5    15    16    1
     6    15    13    1
     7    18    20    1
     8    22    21    1
     9    12    13   ar
    10    12    11   ar
    11    13    14   ar
    12    20    21    1
    13    11     9   ar
    14    14    10   ar
    15     9    10   ar
    16     9     2    1
    17     2     1    2
    18     2     3    1
    19     4     3   ar
    20     4     5   ar
    21     3     8   ar
    22     5     6   ar
    23     8     7   ar
    24     6     7   ar
