@<TRIPOS>MOLECULE
3fum_80A_A_1.pdb
 22 24 0 0 0
SMALL
GASTEIGER

@<TRIPOS>ATOM
      1  C1       -27.1110   -0.3150   -1.5110 C.ar  710  80A710      0.0016
      2  C2       -28.1710   -0.1470   -0.6170 C.ar  710  80A710      0.0367
      3  C3       -27.9010    0.5350    0.5600 C.ar  710  80A710      0.1386
      4  C4       -26.6120    1.0170    0.8040 C.ar  710  80A710      0.0367
      5  C5       -25.5680    0.8570   -0.0960 C.ar  710  80A710      0.0016
      6  C6       -25.8240    0.2040   -1.2730 C.ar  710  80A710      0.0121
      7  C7       -24.6990   -0.0210   -2.2340 C.3   710  80A710      0.1967
      8  O8       -25.1410   -1.1170   -3.0620 O.3   710  80A710     -0.2134
      9  C9       -24.1390    1.0830   -3.0920 C.ar  710  80A710      0.0150
     10  C14      -23.7850    0.8120   -4.4140 C.ar  710  80A710      0.0192
     11  C13      -23.2530    1.7700   -5.2400 C.ar  710  80A710      0.0986
     12  N12      -23.0390    2.9810   -4.7410 N.ar  710  80A710     -0.2423
     13  C11      -23.3370    3.2930   -3.4720 C.ar  710  80A710      0.0986
     14  C10      -23.8820    2.3530   -2.6040 C.ar  710  80A710      0.0192
     15  O15      -28.8360    0.7540    1.5350 O.3   710  80A710     -0.4740
     16  C16      -30.1870    0.9140    1.2060 C.3   710  80A710      0.2226
     17  C17      -30.8960    1.8310    2.1880 C.3   710  80A710      0.1200
     18  N23      -32.0240    2.3380    1.4070 N.3   710  80A710     -0.2696
     19  C19      -33.3710    1.9340    1.7270 C.3   710  80A710      0.0722
     20  C20      -34.2220    2.7990    0.7780 C.3   710  80A710      0.0188
     21  C21      -33.3240    3.7760    0.0550 C.3   710  80A710      0.0188
     22  C22      -31.8980    3.2600    0.2810 C.3   710  80A710      0.0722
@<TRIPOS>BOND
     1    11    12   ar
     2    11    10   ar
     3    12    13   ar
     4    10     9   ar
     5    13    14   ar
     6     9    14   ar
     7     9     7    1
     8     8     7    1
     9     7     6    1
    10     1     6   ar
    11     1     2   ar
    12     6     5   ar
    13     2     3   ar
    14     5     4   ar
    15    21    22    1
    16    21    20    1
    17    22    18    1
    18     3     4   ar
    19     3    15    1
    20    20    19    1
    21    16    15    1
    22    16    17    1
    23    18    19    1
    24    18    17    1
