@<TRIPOS>MOLECULE
3fun_798_A_1.pdb
 26 29 0 0 0
SMALL
GASTEIGER

@<TRIPOS>ATOM
      1  O8       -24.8150    1.2580    0.4690 O.2   710  798710     -0.2866
      2  C7       -25.3660    0.3200    0.9820 C.2   710  798710      0.1955
      3  C9       -24.7520   -0.4750    2.1000 C.ar  710  798710      0.0390
      4  C10      -24.4280    0.1240    3.3110 C.ar  710  798710      0.0032
      5  C11      -23.8680   -0.6440    4.3400 C.ar  710  798710      0.0001
      6  C12      -23.6240   -2.0120    4.1680 C.ar  710  798710      0.0005
      7  C15      -23.0210   -2.8450    5.2720 C.ar  710  798710      0.0070
      8  C16      -23.2500   -2.4650    6.6000 C.ar  710  798710      0.0354
      9  S17      -22.4250   -3.6310    7.6440 S.2   710  798710     -0.0859
     10  C18      -21.7050   -4.6270    6.3220 C.ar  710  798710      0.0355
     11  C19      -22.1670   -3.9940    5.1250 C.ar  710  798710      0.0075
     12  C13      -23.9620   -2.5950    2.9560 C.ar  710  798710      0.0001
     13  C14      -24.5100   -1.8300    1.9210 C.ar  710  798710      0.0032
     14  C6       -26.7030   -0.0400    0.4580 C.ar  710  798710      0.0391
     15  C5       -26.8180   -0.4920   -0.8570 C.ar  710  798710      0.0063
     16  C4       -28.0930   -0.8340   -1.3700 C.ar  710  798710      0.0370
     17  C3       -29.1820   -0.7090   -0.5180 C.ar  710  798710      0.1386
     18  C2       -29.0340   -0.2400    0.7770 C.ar  710  798710      0.0370
     19  C1       -27.7900    0.0900    1.2920 C.ar  710  798710      0.0063
     20  O20      -30.4610   -1.0410   -0.9150 O.3   710  798710     -0.4740
     21  C21      -30.6530   -1.8840   -2.0300 C.3   710  798710      0.2225
     22  C22      -32.0010   -2.5500   -1.8810 C.3   710  798710      0.1164
     23  N23      -33.1190   -1.6510   -1.6530 N.3   710  798710     -0.2157
     24  C24      -34.2390   -2.4760   -1.1780 C.3   710  798710      0.0888
     25  C25      -33.5980   -3.6710   -0.4860 C.3   710  798710      0.0204
     26  C26      -32.0880   -3.5050   -0.6940 C.3   710  798710      0.0227
@<TRIPOS>BOND
     1    21    22    1
     2    21    20    1
     3    22    23    1
     4    22    26    1
     5    23    24    1
     6    16    15   ar
     7    16    17   ar
     8    24    25    1
     9    20    17    1
    10    15    14   ar
    11    26    25    1
    12    17    18   ar
    13    14     2    1
    14    14    19   ar
    15     1     2    2
    16    18    19   ar
    17     2     3    1
    18    13     3   ar
    19    13    12   ar
    20     3     4   ar
    21    12     6   ar
    22     4     5   ar
    23     6     5   ar
    24     6     7    1
    25    11     7   ar
    26    11    10   ar
    27     7     8   ar
    28    10     9   ar
    29     8     9   ar
