@<TRIPOS>MOLECULE
3fup_MI1_A_1.pdb
 23 25 0 0 0
SMALL
GASTEIGER

@<TRIPOS>ATOM
      1  C1       -57.4340    9.4780    0.5310 C.3     1  MI11        0.1795
      2  C2       -56.3220    8.4320    0.4380 C.3     1  MI11        0.1398
      3  C4       -55.8400    8.7950    2.9180 C.3     1  MI11        0.0937
      4  C5       -56.8560    9.9570    3.0180 C.3     1  MI11        0.0255
      5  C6       -57.1750   10.5680    1.6340 C.3     1  MI11        0.0462
      6  N3       -56.1520    7.9000    1.7880 N.am    1  MI11       -0.2746
      7  O21      -56.5060    5.8990    0.9780 O.2     1  MI11       -0.2737
      8  C20      -56.2650    6.6170    1.9400 C.2     1  MI11        0.2412
      9  C22      -56.0830    6.1110    3.3000 C.3     1  MI11        0.1901
     10  C23      -56.5170    4.9590    3.5980 C.1     1  MI11        0.0830
     11  N24      -56.6770    3.8260    3.8130 N.1     1  MI11       -0.1954
     12  C7       -56.1490   11.6450    1.2840 C.3     1  MI11        0.0042
     13  N8       -57.5700   10.1590   -0.7640 N.pl3   1  MI11       -0.1918
     14  C9       -56.4410   10.2590   -1.7270 C.3     1  MI11        0.2532
     15  C10      -58.8020   10.6870   -1.0900 C.2     1  MI11        0.3148
     16  C15      -59.8920   10.6100   -0.2150 C.3     1  MI11        0.2132
     17  C16      -60.1110   10.0400    1.0990 C.2     1  MI11        0.0219
     18  C11      -61.4560   10.3500    1.3320 C.2     1  MI11        0.1063
     19  N12      -62.0250   11.0510    0.2990 N.2     1  MI11       -0.1961
     20  C14      -61.1230   11.2650   -0.6710 C.1     1  MI11        0.0266
     21  N17      -61.1610   11.8620   -1.8740 N.2     1  MI11       -0.1687
     22  C18      -60.0950   11.9030   -2.6540 C.3     1  MI11        0.3998
     23  N19      -58.9600   11.3430   -2.2770 N.2     1  MI11       -0.0389
@<TRIPOS>BOND
     1    22    23    1
     2    22    21    1
     3    23    15    2
     4    21    20    2
     5    14    13    1
     6    15    13    1
     7    15    16    1
     8    13     1    1
     9    20    16    1
    10    20    19    2
    11    16    17    1
    12    19    18    1
    13     2     1    1
    14     2     6    1
    15     1     5    1
    16     7     8    2
    17    17    18    2
    18    12     5    1
    19     5     4    1
    20     6     8   am
    21     6     3    1
    22     8     9    1
    23     3     4    1
    24     9    10    1
    25    10    11    3
