@<TRIPOS>MOLECULE
3fur_Z12_A_1.pdb
 31 34 0 0 0
SMALL
GASTEIGER

@<TRIPOS>ATOM
      1 CL32        2.1080    5.0210   27.2770 Cl      1  Z121       -0.0808
      2  C31        3.7200    4.9400   28.0550 C.ar    1  Z121        0.0774
      3  C30        3.6880    4.9240   29.4520 C.ar    1  Z121        0.0241
      4  C28        4.8650    4.8410   30.1890 C.ar    1  Z121        0.0586
      5 CL29        4.7320    4.8240   31.9820 Cl      1  Z121       -0.0822
      6  C27        6.0920    4.7980   29.5130 C.ar    1  Z121        0.0128
      7  C26        6.1210    4.8310   28.1070 C.ar    1  Z121        0.0220
      8  C25        4.9390    4.8990   27.3460 C.ar    1  Z121        0.1376
      9  S20        5.0330    4.8850   25.7120 S.O2    1  Z121        0.0936
     10  O21        4.2050    3.8090   25.2180 O.2     1  Z121       -0.1483
     11  O22        6.4030    4.6910   25.3230 O.2     1  Z121       -0.1483
     12  N23        4.4560    6.2160   25.0500 N.pl3   1  Z121       -0.0965
     13  C13        4.9750    7.4640   25.1130 C.ar    1  Z121        0.0929
     14  C14        4.1680    8.4970   24.6460 C.ar    1  Z121        0.0326
     15  C15        4.6280    9.7950   24.6660 C.ar    1  Z121        0.0943
     16 CL16        3.5620   11.0820   24.0410 Cl      1  Z121       -0.0790
     17  C17        5.8880   10.0820   25.1740 C.ar    1  Z121        0.1663
     18  C18        6.6860    9.0610   25.6370 C.ar    1  Z121        0.0943
     19 CL19        8.2940    9.4900   26.2750 Cl      1  Z121       -0.0790
     20  C12        6.2420    7.7410   25.6070 C.ar    1  Z121        0.0326
     21  O11        6.3780   11.3610   25.2170 O.3     1  Z121       -0.4502
     22  C8         6.3470   12.1650   26.3470 C.ar    1  Z121        0.1645
     23  C7         6.1810   11.6570   27.6440 C.ar    1  Z121        0.0406
     24  C6         6.1820   12.5630   28.7240 C.ar    1  Z121        0.0207
     25  C1         6.0270   12.1070   30.0290 C.ar    1  Z121        0.0016
     26  C9         6.5120   13.5400   26.1820 C.ar    1  Z121        0.1362
     27  N10        6.5030   14.3810   27.2240 N.ar    1  Z121       -0.2406
     28  C5         6.3420   13.9330   28.4850 C.ar    1  Z121        0.0815
     29  C4         6.3440   14.8480   29.5370 C.ar    1  Z121        0.0191
     30  C3         6.1800   14.3840   30.8330 C.ar    1  Z121        0.0015
     31  C2         6.0270   13.0150   31.0820 C.ar    1  Z121        0.0001
@<TRIPOS>BOND
     1    16    15    1
     2    14    15   ar
     3    14    13   ar
     4    15    17   ar
     5    12    13    1
     6    12     9    1
     7    13    20   ar
     8    17    21    1
     9    17    18   ar
    10    21    22    1
    11    10     9    2
    12    11     9    2
    13    20    18   ar
    14    18    19    1
    15     9     8    1
    16    26    22   ar
    17    26    27   ar
    18    22    23   ar
    19    27    28   ar
    20     1     2    1
    21     8     2   ar
    22     8     7   ar
    23    23    24   ar
    24     2     3   ar
    25     7     6   ar
    26    28    24   ar
    27    28    29   ar
    28    24    25   ar
    29     3     4   ar
    30     6     4   ar
    31    29    30   ar
    32    25    31   ar
    33     4     5    1
    34    30    31   ar
