@<TRIPOS>MOLECULE
3fus_FUL_A_1.pdb
 10 10 0 0 0
SMALL
GASTEIGER

@<TRIPOS>ATOM
      1  C1       -13.9870   31.3720   31.2650 C.3    46  FUL46       0.1776
      2  C2       -12.8630   31.3750   32.2930 C.3    46  FUL46       0.2141
      3  O2       -11.5640   31.3750   31.7110 O.3    46  FUL46      -0.2176
      4  C3       -12.9780   32.6810   33.0570 C.3    46  FUL46       0.2172
      5  O3       -12.6420   32.4530   34.4270 O.3    46  FUL46      -0.2175
      6  C4       -14.3500   33.3560   32.9100 C.3    46  FUL46       0.2116
      7  O4       -14.5790   34.3260   33.9460 O.3    46  FUL46      -0.2177
      8  C5       -15.5570   32.4160   32.7080 C.3    46  FUL46       0.1483
      9  C6       -16.2000   31.9450   34.0090 C.3    46  FUL46       0.0349
     10  O5       -15.2570   31.2770   31.8930 O.3    46  FUL46      -0.3508
@<TRIPOS>BOND
     1     1    10    1
     2     1     2    1
     3     3     2    1
     4    10     8    1
     5     2     4    1
     6     8     6    1
     7     8     9    1
     8     6     4    1
     9     6     7    1
    10     4     5    1
