@<TRIPOS>MOLECULE
3fuu_ADN_A_1.pdb
 19 21 0 0 0
SMALL
GASTEIGER

@<TRIPOS>ATOM
      1  O5'       30.6140    9.2860   17.0750 O.3     0  ADN0       -0.2176
      2  C5'       29.4280    9.1520   17.8750 C.3     0  ADN0        0.2143
      3  C4'       29.2420   10.3170   18.8490 C.3     0  ADN0        0.1851
      4  O4'       27.9620   10.1820   19.4900 O.3     0  ADN0       -0.3134
      5  C3'       30.3080   10.3280   19.9530 C.3     0  ADN0        0.2186
      6  O3'       30.7270   11.6760   20.2280 O.3     0  ADN0       -0.2174
      7  C2'       29.5170    9.6960   21.0830 C.3     0  ADN0        0.2570
      8  O2'       30.0310   10.0060   22.3820 O.3     0  ADN0       -0.2130
      9  C1'       28.1520   10.3110   20.9310 C.3     0  ADN0        0.3186
     10  N9        27.0880    9.5000   21.5250 N.pl3   0  ADN0       -0.1439
     11  C8        27.0510    8.1720   21.7430 C.3     0  ADN0        0.3377
     12  N7        25.8600    7.7780   22.2360 N.2     0  ADN0       -0.2095
     13  C5        25.1220    8.9100   22.3260 C.2     0  ADN0        0.2526
     14  C6        23.7800    9.2350   22.7850 C.2     0  ADN0        0.4393
     15  N6        22.9850    8.2290   23.2240 N.pl3   0  ADN0        0.2180
     16  N1        23.4110   10.5390   22.7140 N.2     0  ADN0        0.0021
     17  C2        24.2120   11.5240   22.2650 C.3     0  ADN0        0.5254
     18  N3        25.4620   11.2920   21.8420 N.2     0  ADN0       -0.0055
     19  C4        25.9340   10.0380   21.8490 C.2     0  ADN0        0.3518
@<TRIPOS>BOND
     1     1     2    1
     2     2     3    1
     3     3     4    1
     4     3     5    1
     5     4     9    1
     6     5     6    1
     7     5     7    1
     8     9     7    1
     9     9    10    1
    10     7     8    1
    11    10    11    1
    12    10    19    1
    13    11    12    1
    14    18    19    2
    15    18    17    1
    16    19    13    1
    17    12    13    2
    18    17    16    1
    19    13    14    1
    20    16    14    2
    21    14    15    1
