@<TRIPOS>MOLECULE
3fuw_MTA_A_1.pdb
 20 22 0 0 0
SMALL
GASTEIGER

@<TRIPOS>ATOM
      1  CS        30.2550   -8.0240  -15.5180 C.3   272  MTA272      0.0693
      2  S5'       30.8320   -9.0230  -16.8690 S.3   272  MTA272     -0.1367
      3  C5'       29.4130   -8.9500  -17.8990 C.3   272  MTA272      0.0899
      4  C4'       29.2410  -10.1870  -18.8050 C.3   272  MTA272      0.1630
      5  O4'       28.0010  -10.1050  -19.4970 O.3   272  MTA272     -0.3153
      6  C2'       29.5850   -9.6110  -21.0710 C.3   272  MTA272      0.2569
      7  O2'       30.1600   -9.9150  -22.3450 O.3   272  MTA272     -0.2130
      8  C3'       30.3130  -10.2300  -19.9090 C.3   272  MTA272      0.2168
      9  O3'       30.7110  -11.5950  -20.1270 O.3   272  MTA272     -0.2175
     10  C1'       28.2090  -10.2010  -20.9330 C.3   272  MTA272      0.3185
     11  N9        27.1390   -9.4200  -21.5440 N.pl3 272  MTA272     -0.1439
     12  C8        27.1020   -8.0790  -21.7530 C.3   272  MTA272      0.3377
     13  N7        25.9210   -7.7020  -22.2630 N.2   272  MTA272     -0.2095
     14  C5        25.1710   -8.8280  -22.3650 C.2   272  MTA272      0.2526
     15  C6        23.8210   -9.1330  -22.8350 C.2   272  MTA272      0.4393
     16  N6        23.0100   -8.1480  -23.3050 N.pl3 272  MTA272      0.2180
     17  N1        23.4420  -10.4350  -22.7770 N.2   272  MTA272      0.0021
     18  C2        24.2460  -11.4260  -22.3250 C.3   272  MTA272      0.5254
     19  N3        25.4960  -11.2200  -21.8670 N.2   272  MTA272     -0.0055
     20  C4        25.9780   -9.9490  -21.8750 C.2   272  MTA272      0.3518
@<TRIPOS>BOND
     1    16    15    1
     2    15    17    2
     3    15    14    1
     4    17    18    1
     5    14    13    2
     6    14    20    1
     7     7     6    1
     8    18    19    1
     9    13    12    1
    10    20    19    2
    11    20    11    1
    12    12    11    1
    13    11    10    1
    14     6    10    1
    15     6     8    1
    16    10     5    1
    17     9     8    1
    18     8     4    1
    19     5     4    1
    20     4     3    1
    21     3     2    1
    22     2     1    1
