@<TRIPOS>MOLECULE
3fux_MTA_A_1.pdb
 20 22 0 0 0
SMALL
GASTEIGER

@<TRIPOS>ATOM
      1  CS       -17.0580    4.5400  -23.5210 C.3   272  MTA272      0.0693
      2  S5'      -17.7490    3.2010  -24.4840 S.3   272  MTA272     -0.1367
      3  C5'      -16.4210    2.0890  -24.3570 C.3   272  MTA272      0.0899
      4  C4'      -16.1870    1.1520  -25.5650 C.3   272  MTA272      0.1630
      5  O4'      -14.9760    0.4260  -25.4130 O.3   272  MTA272     -0.3153
      6  C2'      -16.6640   -1.0830  -24.9390 C.3   272  MTA272      0.2569
      7  O2'      -17.2240   -2.3810  -25.2480 O.3   272  MTA272     -0.2130
      8  C3'      -17.3250    0.1210  -25.5980 C.3   272  MTA272      0.2168
      9  O3'      -17.6570   -0.1350  -26.9900 O.3   272  MTA272     -0.2175
     10  C1'      -15.2210   -0.9940  -25.4580 C.3   272  MTA272      0.3185
     11  N9       -14.1870   -1.6480  -24.6490 N.pl3 272  MTA272     -0.1439
     12  C8       -14.1880   -1.8390  -23.3160 C.3   272  MTA272      0.3377
     13  N7       -13.0550   -2.4240  -22.9630 N.2   272  MTA272     -0.2095
     14  C5       -12.2470   -2.5580  -24.0350 C.2   272  MTA272      0.2526
     15  C6       -10.9000   -3.0700  -24.3260 C.2   272  MTA272      0.4393
     16  N6       -10.0770   -3.6120  -23.3450 N.pl3 272  MTA272      0.2180
     17  N1       -10.5070   -3.0420  -25.6320 N.2   272  MTA272      0.0021
     18  C2       -11.2890   -2.5430  -26.6320 C.3   272  MTA272      0.5254
     19  N3       -12.5180   -2.0380  -26.4310 N.2   272  MTA272     -0.0055
     20  C4       -13.0320   -2.0480  -25.1670 C.2   272  MTA272      0.3518
@<TRIPOS>BOND
     1     9     8    1
     2    18    19    1
     3    18    17    1
     4    19    20    2
     5    17    15    2
     6     8     4    1
     7     8     6    1
     8     4     5    1
     9     4     3    1
    10    10     5    1
    11    10     6    1
    12    10    11    1
    13     7     6    1
    14    20    11    1
    15    20    14    1
    16    11    12    1
    17     2     3    1
    18     2     1    1
    19    15    14    1
    20    15    16    1
    21    14    13    2
    22    12    13    1
