@<TRIPOS>MOLECULE
3fuz_GLU_A_1.pdb
 10 9 0 0 0
SMALL
GASTEIGER

@<TRIPOS>ATOM
      1  N          5.9510  -13.8910   18.3860 N.3   301  GLU301     -0.1208
      2  CA         5.6120  -15.2470   18.9120 C.3   301  GLU301      0.1949
      3  C          4.1220  -15.5160   18.7440 C.2   301  GLU301      0.3819
      4  O          3.5650  -16.5210   19.2020 O.co2 301  GLU301     -0.2441
      5  CB         5.9990  -15.3600   20.3780 C.3   301  GLU301      0.0424
      6  CG         7.4870  -15.5830   20.6030 C.3   301  GLU301      0.1161
      7  CD         7.9830  -16.9740   20.1480 C.2   301  GLU301      0.3649
      8  OE1        9.2110  -17.1600   19.9680 O.co2 301  GLU301     -0.2457
      9  OE2        7.1550  -17.8910   19.9640 O.co2 301  GLU301     -0.2457
     10  OXT        3.4580  -14.7010   18.1390 O.co2 301  GLU301     -0.2441
@<TRIPOS>BOND
     1    10     3   ar
     2     1     2    1
     3     3     2    1
     4     3     4   ar
     5     2     5    1
     6     9     7   ar
     7     8     7   ar
     8     7     6    1
     9     5     6    1
