@<TRIPOS>MOLECULE
3fv1_DYH_A_1.pdb
 21 22 0 0 0
SMALL
GASTEIGER

@<TRIPOS>ATOM
      1  CAA       -9.0150   11.3910   19.7050 C.3     1  DYH1        0.1076
      2  NH        -9.9920   12.4710   19.8030 N.3     1  DYH1       -0.2127
      3  CAH      -10.0650   13.2430   21.0470 C.3     1  DYH1        0.1351
      4  CAG      -11.2010   14.2510   20.9770 C.3     1  DYH1        0.1997
      5  OAC      -11.1390   14.9900   19.7440 O.3     1  DYH1       -0.2189
      6  CAP      -11.1220   15.2350   22.1390 C.3     1  DYH1        0.1764
      7  OAQ       -9.9040   15.9730   22.0770 O.3     1  DYH1       -0.3509
      8  CAR       -8.7580   15.1170   22.2720 C.3     1  DYH1        0.1467
      9  CAS       -7.5280   15.8850   21.8370 C.3     1  DYH1        0.0704
     10  CAI       -8.7380   13.9400   21.3060 C.3     1  DYH1        0.1612
     11  OAJ       -8.2900   14.5050   20.0750 O.3     1  DYH1       -0.3461
     12  CAK       -7.4600   15.6540   20.3290 C.3     1  DYH1        0.1897
     13  CAE       -8.0510   16.8610   19.6090 C.2     1  DYH1        0.3886
     14  OAB       -9.2220   16.7820   19.1390 O.co2   1  DYH1       -0.2431
     15  OAF       -7.3530   17.8920   19.4920 O.co2   1  DYH1       -0.2431
     16  CB        -6.0250   15.3570   19.9050 C.3     1  DYH1        0.0690
     17  CA        -5.7980   15.2430   18.3960 C.3     1  DYH1        0.1972
     18  C         -4.3360   15.4470   18.1430 C.2     1  DYH1        0.3820
     19  OXT       -3.6970   14.5950   17.4910 O.co2   1  DYH1       -0.2440
     20  O         -3.8250   16.4790   18.6080 O.co2   1  DYH1       -0.2440
     21  N         -6.2230   13.9540   17.8620 N.3     1  DYH1       -0.1207
@<TRIPOS>BOND
     1    19    18   ar
     2    21    17    1
     3    18    17    1
     4    18    20   ar
     5    17    16    1
     6    14    13   ar
     7    15    13   ar
     8    13    12    1
     9     1     2    1
    10     5     4    1
    11     2     3    1
    12    16    12    1
    13    11    12    1
    14    11    10    1
    15    12     9    1
    16     4     3    1
    17     4     6    1
    18     3    10    1
    19    10     8    1
    20     9     8    1
    21     7     6    1
    22     7     8    1
