@<TRIPOS>MOLECULE
3fv2_NDZ_A_1.pdb
 20 21 0 0 0
SMALL
GASTEIGER

@<TRIPOS>ATOM
      1  O         -3.3740   14.3160   17.3480 O.co2 791  NDZ791     -0.2440
      2  C         -4.0420   15.1370   18.0250 C.2   791  NDZ791      0.3820
      3  OXT       -3.5440   16.1570   18.5470 O.co2 791  NDZ791     -0.2440
      4  CA        -5.5100   14.9030   18.2720 C.3   791  NDZ791      0.1972
      5  N         -5.9230   13.6230   17.7090 N.3   791  NDZ791     -0.1207
      6  CB        -5.7850   15.0030   19.7730 C.3   791  NDZ791      0.0690
      7  CAJ       -7.2530   15.2080   20.1480 C.3   791  NDZ791      0.1898
      8  CAD       -7.8230   16.4930   19.5790 C.2   791  NDZ791      0.3886
      9  OAA       -9.0390   16.4910   19.2390 O.co2 791  NDZ791     -0.2431
     10  OAE       -7.0590   17.4880   19.4470 O.co2 791  NDZ791     -0.2431
     11  CAR       -7.4110   15.1890   21.6760 C.3   791  NDZ791      0.0705
     12  OAI       -8.0480   14.1220   19.6570 O.3   791  NDZ791     -0.3449
     13  CAH       -8.3820   13.2310   20.7160 C.3   791  NDZ791      0.1755
     14  CAQ       -8.5000   14.1530   21.9240 C.3   791  NDZ791      0.1478
     15  OAP       -9.7640   14.8320   21.9940 O.3   791  NDZ791     -0.3508
     16  CAO      -10.9150   14.0000   21.8060 C.3   791  NDZ791      0.1776
     17  CAF      -10.8710   13.3470   20.4260 C.3   791  NDZ791      0.2140
     18  OAB      -10.8380   14.3750   19.4220 O.3   791  NDZ791     -0.2176
     19  CAG       -9.6370   12.4590   20.3260 C.3   791  NDZ791      0.2139
     20  OAC       -9.4990   11.9160   19.0000 O.3   791  NDZ791     -0.2176
@<TRIPOS>BOND
     1     1     2   ar
     2     5     4    1
     3     2     4    1
     4     2     3   ar
     5     4     6    1
     6    20    19    1
     7     9     8   ar
     8    18    17    1
     9    10     8   ar
    10     8     7    1
    11    12     7    1
    12    12    13    1
    13     6     7    1
    14     7    11    1
    15    19    17    1
    16    19    13    1
    17    17    16    1
    18    13    14    1
    19    11    14    1
    20    16    15    1
    21    14    15    1
