@<TRIPOS>MOLECULE
3fv3_III_I_1.pdb
 48 47 0 0 0
SMALL
GASTEIGER

@<TRIPOS>ATOM
      1  CA        19.8790    7.1520   18.2800 C.3   501  IVA501      0.0868
      2  CB        19.0600    7.1600   19.5690 C.3   501  IVA501      0.0091
      3  CG1       19.2250    5.8690   20.3670 C.3   501  IVA501      0.0005
      4  CG2       19.4150    8.3870   20.4020 C.3   501  IVA501      0.0005
      5  C         19.4610    6.0170   17.3670 C.2   501  IVA501      0.2418
      6  O         18.2800    5.8610   17.0620 O.2   501  IVA501     -0.2733
      7  N         20.4520    5.2180   16.9420 N.am  502  VAL502     -0.1978
      8  CA        20.2020    4.1290   16.0110 C.3   502  VAL502      0.1726
      9  C         20.7700    2.8400   16.5380 C.2   502  VAL502      0.2616
     10  O         21.6700    2.8340   17.3900 O.2   502  VAL502     -0.2715
     11  CB        20.7200    4.4660   14.5880 C.3   502  VAL502      0.0290
     12  CG1       19.9730    5.6680   14.0230 C.3   502  VAL502      0.0023
     13  CG2       22.2400    4.6870   14.5220 C.3   502  VAL502      0.0023
     14  N         20.2230    1.7240   16.0380 N.am  503  VAL503     -0.1963
     15  CA        20.7010    0.3980   16.3860 C.3   503  VAL503      0.1727
     16  C         20.6710   -0.4230   15.1180 C.2   503  VAL503      0.2612
     17  O         19.5950   -0.7820   14.6700 O.2   503  VAL503     -0.2715
     18  CB        19.8020   -0.2990   17.4290 C.3   503  VAL503      0.0290
     19  CG1       20.3650   -1.6870   17.7450 C.3   503  VAL503      0.0023
     20  CG2       19.5750    0.5630   18.6820 C.3   503  VAL503      0.0023
     21  N         21.8550   -0.6760   14.5410 N.am  504  STA504     -0.2031
     22  CA        21.9680   -1.2300   13.1970 C.3   504  STA504      0.1261
     23  CB        22.4440   -0.1540   12.1990 C.3   504  STA504      0.0243
     24  CG        21.6510    1.1490   12.1850 C.3   504  STA504      0.0018
     25  CD1       22.4830    2.2370   11.4850 C.3   504  STA504      0.0001
     26  CD2       20.2930    0.9900   11.4750 C.3   504  STA504      0.0001
     27  CH        22.9060   -2.4340   13.1720 C.3   504  STA504      0.1809
     28  OH        24.1840   -2.0120   13.6840 O.3   504  STA504     -0.2208
     29  CM        22.4460   -3.6050   14.0470 C.3   504  STA504      0.1214
     30  C         21.3940   -4.4430   13.3600 C.2   504  STA504      0.2444
     31  O         20.2180   -4.1490   13.4430 O.2   504  STA504     -0.2732
     32  N         21.8160   -5.4790   12.6480 N.am  505  ALA505     -0.1977
     33  CA        20.8640   -6.4570   12.1570 C.3   505  ALA505      0.1728
     34  C         20.8910   -7.6020   13.1230 C.2   505  ALA505      0.2612
     35  O         21.8970   -8.3110   13.1880 O.2   505  ALA505     -0.2715
     36  CB        21.2180   -6.8680   10.7290 C.3   505  ALA505      0.0334
     37  N         19.8040   -7.7150   13.9090 N.am  506  STA506     -0.2031
     38  CA        19.7940   -8.4600   15.1720 C.3   506  STA506      0.1262
     39  CB        19.2880   -7.6070   16.3460 C.3   506  STA506      0.0243
     40  CG        20.0630   -6.3170   16.6250 C.3   506  STA506      0.0018
     41  CD1       19.5180   -5.6140   17.8690 C.3   506  STA506      0.0001
     42  CD2       21.5700   -6.5230   16.7680 C.3   506  STA506      0.0001
     43  CH        18.9100   -9.7020   15.0580 C.3   506  STA506      0.1830
     44  OH        19.2510  -10.4290   13.8820 O.3   506  STA506     -0.2207
     45  CM        19.1270  -10.6480   16.2340 C.3   506  STA506      0.1486
     46  C         18.3680  -11.9400   15.9900 C.2   506  STA506      0.3675
     47  O         18.9540  -12.8870   15.3860 O.co2 506  STA506     -0.2456
     48  OXT       17.1790  -11.9930   16.3960 O.co2 506  STA506     -0.2456
@<TRIPOS>BOND
     1    36    33    1
     2    26    24    1
     3    25    24    1
     4    33    32    1
     5    33    34    1
     6    24    23    1
     7    23    22    1
     8    32    30   am
     9    34    35    2
    10    34    37   am
    11    27    22    1
    12    27    28    1
    13    27    29    1
    14    22    21    1
    15    30    31    2
    16    30    29    1
    17    44    43    1
    18    37    38    1
    19    12    11    1
    20    13    11    1
    21    21    16   am
    22    11     8    1
    23    17    16    2
    24    43    38    1
    25    43    45    1
    26    16    15    1
    27    38    39    1
    28    47    46   ar
    29    46    45    1
    30    46    48   ar
    31     8     9    1
    32     8     7    1
    33    14    15    1
    34    14     9   am
    35    39    40    1
    36    15    18    1
    37     9    10    2
    38    40    42    1
    39    40    41    1
    40     7     5   am
    41     6     5    2
    42     5     1    1
    43    18    19    1
    44    18    20    1
    45     1     2    1
    46     2     3    1
    47     2     4    1
