@<TRIPOS>MOLECULE
3fv4_1U4_A_1.pdb
 35 36 0 0 0
SMALL
GASTEIGER

@<TRIPOS>ATOM
      1  C9       -13.1350   41.0240    8.9250 C.2   322  1U4322      0.4220
      2  O10      -13.7910   41.8520    8.2890 O.2   322  1U4322     -0.2245
      3  O8       -13.0850   40.9010   10.2470 O.3   322  1U4322     -0.4285
      4  C7       -13.8030   41.9040   11.0060 C.3   322  1U4322      0.2368
      5  C6       -15.1620   41.3200   11.4240 C.ar  322  1U4322      0.0213
      6  C4       -15.3080   40.6580   12.6490 C.ar  322  1U4322     -0.0007
      7  C2       -16.5650   40.2100   13.0670 C.ar  322  1U4322     -0.0002
      8  C1       -17.6820   40.4250   12.2470 C.ar  322  1U4322     -0.0000
      9  C63      -17.5480   41.1230   11.0470 C.ar  322  1U4322     -0.0002
     10  C61      -16.2840   41.5400   10.6170 C.ar  322  1U4322     -0.0007
     11  N11      -12.4180   40.0910    8.2810 N.am  322  1U4322     -0.1565
     12  C12      -12.1430   40.2800    6.8860 C.3   322  1U4322      0.2238
     13  P13      -11.5850   38.7300    6.1090 P.3   322  1U4322      0.3472
     14  O54      -12.6540   37.7000    6.2720 O.2   322  1U4322     -0.2668
     15  O55      -10.2660   38.2770    6.6460 O.3   322  1U4322     -0.1484
     16  N14      -11.4170   39.2050    4.5330 N.3   322  1U4322     -0.1349
     17  C15      -10.3180   38.6740    3.7170 C.3   322  1U4322      0.1637
     18  C16       -9.0680   39.5140    3.8500 C.2   322  1U4322      0.2585
     19  O17       -7.9490   39.0160    3.6960 O.2   322  1U4322     -0.2718
     20  C38      -10.7730   38.7310    2.2190 C.3   322  1U4322      0.0536
     21  C41       -9.8240   37.9520    1.3000 C.ar  322  1U4322     -0.0203
     22  C42       -9.2510   38.6330    0.2170 C.ar  322  1U4322     -0.0042
     23  C50       -9.5410   36.6110    1.5410 C.ar  322  1U4322     -0.0042
     24  C44       -8.3840   37.9370   -0.6350 C.ar  322  1U4322     -0.0003
     25  C48       -8.7120   35.9210    0.6680 C.ar  322  1U4322     -0.0003
     26  C46       -8.1070   36.5860   -0.3900 C.ar  322  1U4322     -0.0000
     27  N18       -9.1800   40.8210    4.1310 N.am  322  1U4322     -0.1944
     28  C19       -8.0390   41.6650    4.4560 C.3   322  1U4322      0.1978
     29  C33       -8.3840   42.7060    5.4870 C.2   322  1U4322      0.3842
     30  O34       -9.5810   42.7820    5.8900 O.co2 322  1U4322     -0.2437
     31  C20       -7.4950   42.2220    3.1070 C.3   322  1U4322      0.0333
     32  C21       -8.4660   43.1040    2.2980 C.3   322  1U4322      0.0023
     33  C26       -9.2100   42.2380    1.2250 C.3   322  1U4322      0.0001
     34  C22       -7.6460   44.2270    1.5790 C.3   322  1U4322      0.0001
     35  O35       -7.4920   43.4800    5.9480 O.co2 322  1U4322     -0.2437
@<TRIPOS>BOND
     1    24    26   ar
     2    24    22   ar
     3    26    25   ar
     4    22    21   ar
     5    25    23   ar
     6    33    32    1
     7    21    23   ar
     8    21    20    1
     9    34    32    1
    10    20    17    1
    11    32    31    1
    12    31    28    1
    13    19    18    2
    14    17    18    1
    15    17    16    1
    16    18    27   am
    17    27    28    1
    18    28    29    1
    19    16    13    1
    20    29    30   ar
    21    29    35   ar
    22    13    14    2
    23    13    15    1
    24    13    12    1
    25    12    11    1
    26    11     1   am
    27     2     1    2
    28     1     3    1
    29     3     4    1
    30    10     9   ar
    31    10     5   ar
    32     4     5    1
    33     9     8   ar
    34     5     6   ar
    35     8     7   ar
    36     6     7   ar
