@<TRIPOS>MOLECULE
3fv5_1EU_A_1.pdb
 24 26 0 0 0
SMALL
GASTEIGER

@<TRIPOS>ATOM
      1  C1        17.8160   -1.1000    4.0500 C.3     2  1EU2        0.0253
      2  C2        16.7290   -1.1890    5.1220 C.3     2  1EU2        0.1169
      3  N3        15.5690   -1.8930    4.5640 N.am    2  1EU2       -0.1863
      4  C4        14.2980   -1.5390    4.8560 C.2     2  1EU2        0.3542
      5  O5        14.0650   -0.5980    5.6140 O.2     2  1EU2       -0.2480
      6  N6        13.2870   -2.2550    4.2820 N.am    2  1EU2       -0.0705
      7  C7        11.9380   -1.9870    4.4890 C.1     2  1EU2        0.2286
      8  N8        10.9730   -2.4670    3.7450 N.2     2  1EU2       -0.3240
      9  C9         9.7780   -2.0140    4.1950 C.ar    2  1EU2        0.1755
     10  C10        8.4380   -2.2150    3.7660 C.ar    2  1EU2        0.0358
     11  C11        7.3630   -1.5850    4.4570 C.ar    2  1EU2        0.0043
     12  C12        7.6360   -0.7540    5.5860 C.ar    2  1EU2        0.0057
     13  C13        8.9810   -0.5440    6.0300 C.ar    2  1EU2        0.0678
     14  C14        9.2820    0.3250    7.2080 C.2     2  1EU2        0.1761
     15  O15       10.4400    0.5410    7.5240 O.2     2  1EU2       -0.2912
     16  C16        8.1710    0.9520    8.0270 C.3     2  1EU2        0.0774
     17  C17       10.0520   -1.1830    5.3210 C.ar    2  1EU2        0.1781
     18  N18       11.4170   -1.1910    5.4740 N.2     2  1EU2       -0.3239
     19  C20        5.9460   -1.7890    3.9950 C.ar    2  1EU2        0.0193
     20  C21        4.8980   -2.1010    4.9200 C.ar    2  1EU2        0.0031
     21  C22        3.5800   -2.2820    4.4420 C.ar    2  1EU2        0.0207
     22  C23        3.3320   -2.1490    3.0650 C.ar    2  1EU2        0.0989
     23  N24        4.3340   -1.8550    2.2120 N.ar    2  1EU2       -0.2423
     24  C25        5.6070   -1.6730    2.6170 C.ar    2  1EU2        0.0988
@<TRIPOS>BOND
     1    23    24   ar
     2    23    22   ar
     3    24    19   ar
     4    22    21   ar
     5     8     9    2
     6     8     7    2
     7    10     9   ar
     8    10    11   ar
     9    19    11    1
    10    19    20   ar
    11     1     2    1
    12     9    17   ar
    13     6     7    1
    14     6     4   am
    15    21    20   ar
    16    11    12   ar
    17     7    18    2
    18     3     4   am
    19     3     2    1
    20     4     5    2
    21    17    18    2
    22    17    13   ar
    23    12    13   ar
    24    13    14    1
    25    14    15    2
    26    14    16    1
