@<TRIPOS>MOLECULE
3fv7_MXS_A_1.pdb
 27 28 0 0 0
SMALL
GASTEIGER

@<TRIPOS>ATOM
      1  C1       107.1830   32.7590   27.1710 C.ar  300  MXS300      0.0796
      2  C2       106.4370   31.4620   27.1960 C.ar  300  MXS300      0.0343
      3  C3       105.1910   31.3880   28.0080 C.ar  300  MXS300      0.0663
      4  C4       104.2760   30.2960   28.2320 C.ar  300  MXS300      0.0186
      5  C5       103.2970   30.7160   29.0610 C.ar  300  MXS300      0.0437
      6  C6       103.5160   32.2150   29.4630 C.ar  300  MXS300      0.1312
      7  C7       105.4630   33.8310   28.7150 C.ar  300  MXS300      0.0825
      8  C8       106.6950   33.9550   27.9280 C.ar  300  MXS300      0.0358
      9  C9       102.0290   29.9080   29.6360 C.3   300  MXS300      0.2114
     10  C10      102.6690   33.4110   31.7520 C.3   300  MXS300      0.2161
     11  C11      103.4000   34.7670   31.9380 C.2   300  MXS300      0.3858
     12  C12      101.1380   33.4170   32.2000 C.3   300  MXS300      0.1369
     13  C13      100.4030   34.7550   31.8070 C.3   300  MXS300      0.0257
     14  C14      101.0610   33.2140   33.7540 C.3   300  MXS300      0.0257
     15  C15      109.1880   32.0920   25.6400 C.2   300  MXS300      0.4255
     16  C16      109.2620   30.0030   24.3060 C.3   300  MXS300      0.2574
     17  N1       104.7920   32.5420   28.7030 N.ar  300  MXS300     -0.2926
     18  N2       102.7290   33.0200   30.3030 N.pl3 300  MXS300     -0.2100
     19  O6       108.6060   31.1760   24.7320 O.3   300  MXS300     -0.4292
     20  O1       101.2080   29.9700   28.4350 O.3   300  MXS300     -0.2151
     21  O2       103.9260   35.3930   31.0390 O.co2 300  MXS300     -0.2437
     22  O3       103.4840   35.4070   33.3010 O.co2 300  MXS300     -0.2437
     23  O4        98.9020   31.9120   32.0120 O.3   300  MXS300     -0.0782
     24  O5       101.0860   30.6210   31.4770 O.3   300  MXS300     -0.0782
     25  N3       108.3480   32.8110   26.4330 N.am  300  MXS300     -0.1423
     26  O7       110.4080   32.2400   25.7390 O.2   300  MXS300     -0.2242
     27  S1       100.2170   32.0610   31.3640 S.3   300  MXS300     -0.0194
@<TRIPOS>BOND
     1    16    19    1
     2    19    15    1
     3    15    26    2
     4    15    25   am
     5    25     1    1
     6     1     2   ar
     7     1     8   ar
     8     2     3   ar
     9     8     7   ar
    10     3     4   ar
    11     3    17   ar
    12     4     5   ar
    13    20     9    1
    14    17     7   ar
    15    17     6   ar
    16     5     6   ar
    17     5     9    1
    18     6    18    1
    19    18    10    1
    20    21    11   ar
    21    27    24    1
    22    27    23    1
    23    27    12    1
    24    10    11    1
    25    10    12    1
    26    13    12    1
    27    11    22   ar
    28    12    14    1
