@<TRIPOS>MOLECULE
3fv8_JK3_A_1.pdb
 25 27 0 0 0
SMALL
GASTEIGER

@<TRIPOS>ATOM
      1 CL15      -10.5140  -30.9900   15.5440 Cl    500  JK3500     -0.0809
      2  C01      -11.4650  -36.4200    8.5680 C.ar  500  JK3500      0.0460
      3  C02      -12.8420  -36.6270    8.4310 C.ar  500  JK3500      0.0478
      4  C03      -13.5750  -35.9520    9.4700 C.ar  500  JK3500      0.1793
      5  O05      -12.5490  -35.3070   10.2730 O.2   500  JK3500     -0.4423
      6  C06      -11.3070  -35.5690    9.7600 C.ar  500  JK3500      0.2011
      7  C07      -10.0670  -34.9970   10.4110 C.2   500  JK3500      0.3037
      8  O08       -8.9720  -35.2130   10.0410 O.2   500  JK3500     -0.2646
      9  N09      -10.4040  -34.1510   11.5330 N.am  500  JK3500     -0.1716
     10  C10       -9.5550  -33.3900   12.4050 C.ar  500  JK3500      0.0879
     11  C11       -8.1820  -33.3490   12.3270 C.ar  500  JK3500      0.0179
     12  C12       -7.4740  -32.5710   13.2540 C.ar  500  JK3500      0.0023
     13  C13       -8.1670  -31.8320   14.2700 C.ar  500  JK3500      0.0127
     14  C14       -9.5770  -31.8940   14.3250 C.ar  500  JK3500      0.0722
     15  C16      -10.2630  -32.6370   13.4200 C.ar  500  JK3500      0.0741
     16  N17      -11.7070  -32.7430   13.5020 N.pl3 500  JK3500     -0.3030
     17  C18      -12.2700  -34.0140   13.9750 C.3   500  JK3500      0.1082
     18  C19      -13.5890  -33.8860   14.5820 C.3   500  JK3500      0.0941
     19  C20      -12.6040  -31.5790   13.0900 C.3   500  JK3500      0.1082
     20  C21      -14.1850  -31.8880   13.1290 C.3   500  JK3500      0.0941
     21  N22      -14.5490  -33.3010   13.6380 N.3   500  JK3500     -0.2660
     22  C23      -16.0410  -33.5880   13.8910 C.3   500  JK3500      0.0990
     23  C24      -16.7830  -34.5200   12.9220 C.2   500  JK3500     -0.0088
     24  C25      -17.2850  -34.0600   11.7940 C.2   500  JK3500     -0.0035
     25 BR04      -15.5210  -35.8640    9.8060 Br    500  JK3500     -0.0078
@<TRIPOS>BOND
     1     3     2   ar
     2     3     4   ar
     3     2     6   ar
     4     4    25    1
     5     4     5   ar
     6     6     5   ar
     7     6     7    1
     8     8     7    2
     9     7     9   am
    10     9    10    1
    11    24    23    2
    12    11    10   ar
    13    11    12   ar
    14    10    15   ar
    15    23    22    1
    16    19    20    1
    17    19    16    1
    18    20    21    1
    19    12    13   ar
    20    15    16    1
    21    15    14   ar
    22    16    17    1
    23    21    22    1
    24    21    18    1
    25    17    18    1
    26    13    14   ar
    27    14     1    1
