@<TRIPOS>MOLECULE
3fvb_HEM_A_1.pdb
 42 46 0 0 0
SMALL
GASTEIGER

@<TRIPOS>ATOM
      1  CHA       16.5950  -16.5190  -43.6960 C.2   162  HEM162      0.0981
      2  CHB       12.5900  -15.7960  -40.9340 C.2   162  HEM162      0.1301
      3  CHC       11.5840  -11.8240  -43.6230 C.2   162  HEM162      0.1304
      4  CHD       15.6580  -12.4280  -46.3400 C.2   162  HEM162      0.0985
      5  NA        14.4680  -15.9230  -42.5450 N.2   162  HEM162     -0.3673
      6  C1A       15.6640  -16.6200  -42.6590 C.2   162  HEM162      0.1469
      7  C2A       15.7440  -17.4780  -41.4880 C.2   162  HEM162      0.0143
      8  C3A       14.6450  -17.2780  -40.7220 C.2   162  HEM162      0.0336
      9  C4A       13.8100  -16.2890  -41.3820 C.1   162  HEM162      0.0084
     10  CMA       14.2720  -17.9480  -39.3780 C.3   162  HEM162      0.0412
     11  CAA       16.9300  -18.4290  -41.2120 C.3   162  HEM162      0.0411
     12  CBA       16.5100  -19.8950  -41.3040 C.3   162  HEM162      0.1188
     13  CGA       17.1810  -20.6140  -40.1530 C.2   162  HEM162      0.3652
     14  O1A       18.4320  -20.5000  -40.0260 O.co2 162  HEM162     -0.2456
     15  O2A       16.4820  -21.2910  -39.3480 O.co2 162  HEM162     -0.2456
     16  NB        12.3660  -13.8700  -42.4560 N.2   162  HEM162     -0.3324
     17  C1B       11.9390  -14.6650  -41.4040 C.1   162  HEM162      0.0186
     18  C2B       10.7030  -14.0920  -40.8950 C.2   162  HEM162      0.0448
     19  C3B       10.4330  -13.0030  -41.6500 C.2   162  HEM162      0.0626
     20  C4B       11.4750  -12.8300  -42.6600 C.1   162  HEM162      0.0223
     21  CMB        9.8900  -14.6700  -39.7000 C.3   162  HEM162      0.0422
     22  CAB        9.2180  -12.0660  -41.4850 C.2   162  HEM162      0.0099
     23  CBB        8.0400  -12.6130  -41.1600 C.2   162  HEM162      0.0007
     24  NC        13.6940  -12.4080  -44.8250 N.2   162  HEM162     -0.3670
     25  C1C       12.6000  -11.5970  -44.5590 C.1   162  HEM162      0.0088
     26  C2C       12.7180  -10.4730  -45.4790 C.2   162  HEM162      0.0376
     27  C3C       13.8250  -10.6220  -46.2370 C.2   162  HEM162      0.0360
     28  C4C       14.4820  -11.8670  -45.8370 C.2   162  HEM162      0.1508
     29  CMC       11.7140   -9.3010  -45.5580 C.3   162  HEM162      0.0415
     30  CAC       14.2980   -9.6280  -47.3270 C.2   162  HEM162      0.0029
     31  CBC       14.9110  -10.0330  -48.4430 C.2   162  HEM162      0.0001
     32  ND        15.9650  -14.3890  -44.8440 N.2   162  HEM162     -0.3338
     33  C1D       16.2330  -13.6550  -46.0000 C.1   162  HEM162      0.0112
     34  C2D       17.2120  -14.4170  -46.7610 C.2   162  HEM162      0.0402
     35  C3D       17.4940  -15.6880  -45.9210 C.2   162  HEM162      0.0404
     36  C4D       16.6670  -15.5910  -44.7400 C.1   162  HEM162      0.0112
     37  CMD       17.8260  -14.0310  -48.1270 C.3   162  HEM162      0.0418
     38  CAD       18.4500  -16.8560  -46.2510 C.3   162  HEM162      0.0482
     39  CBD       19.9020  -16.3820  -46.2500 C.3   162  HEM162      0.1194
     40  CGD       20.6500  -17.1250  -47.3360 C.2   162  HEM162      0.3652
     41  O1D       21.2410  -16.4740  -48.2430 O.co2 162  HEM162     -0.2456
     42  O2D       20.6580  -18.3880  -47.3020 O.co2 162  HEM162     -0.2456
@<TRIPOS>BOND
     1    31    30    2
     2    41    40   ar
     3    37    34    1
     4    40    42   ar
     5    40    39    1
     6    30    27    1
     7    34    33    1
     8    34    35    2
     9     4    33    2
    10     4    28    1
    11    38    39    1
    12    38    35    1
    13    27    28    1
    14    27    26    2
    15    33    32    2
    16    35    36    1
    17    28    24    2
    18    29    26    1
    19    26    25    1
    20    32    36    2
    21    24    25    2
    22    36     1    2
    23    25     3    2
    24     1     6    1
    25     3    20    1
    26    20    16    2
    27    20    19    2
    28     6     5    2
    29     6     7    1
    30     5     9    2
    31    16    17    2
    32    19    22    1
    33    19    18    1
    34     7    11    1
    35     7     8    2
    36    22    23    2
    37    17     2    1
    38    17    18    2
    39     9     2    2
    40     9     8    1
    41    12    11    1
    42    12    13    1
    43    18    21    1
    44     8    10    1
    45    13    14   ar
    46    13    15   ar
