@<TRIPOS>MOLECULE
3fvf_1JZ_B_1.pdb
 12 12 0 0 0
SMALL
GASTEIGER

@<TRIPOS>ATOM
      1  C10       10.2680   35.9920   -0.8710 C.cat   1  1JZ1        0.5393
      2  C12       11.7830   35.9470    3.6720 C.ar    1  1JZ1        0.0013
      3  C8        11.6480   34.5650    1.2880 C.ar    1  1JZ1        0.0369
      4  C7        12.2120   33.9730    2.4040 C.ar    1  1JZ1        0.0013
      5  C5        12.8770   34.0810    4.8140 C.3     1  1JZ1        0.2086
      6  O2        12.1100   34.1850    5.8230 O.3     1  1JZ1       -0.2152
      7  C6        12.2920   34.6660    3.5950 C.ar    1  1JZ1        0.0108
      8  C9        11.1210   35.8530    1.3560 C.ar    1  1JZ1        0.1592
      9  C11       11.1840   36.5190    2.5520 C.ar    1  1JZ1        0.0369
     10  N3        10.6110   36.5090    0.2940 N.pl3   1  1JZ1       -0.0605
     11  N4        10.0060   34.6690   -0.8720 N.pl3   1  1JZ1        0.1358
     12  N5        10.0230   36.7210   -1.9580 N.pl3   1  1JZ1        0.1358
@<TRIPOS>BOND
     1    12     1    1
     2    11     1    1
     3     1    10    2
     4    10     8    1
     5     3     8   ar
     6     3     4   ar
     7     8     9   ar
     8     4     7   ar
     9     9     2   ar
    10     7     2   ar
    11     7     5    1
    12     5     6    1
