@<TRIPOS>MOLECULE
3fvg_MS8_A_1.pdb
 18 19 0 0 0
SMALL
GASTEIGER

@<TRIPOS>ATOM
      1  O         -3.5700   16.3350   18.5940 O.co2 901  MS8901     -0.2440
      2  C         -4.0510   15.2950   18.0960 C.2   901  MS8901      0.3820
      3  OXT       -3.3750   14.4550   17.4540 O.co2 901  MS8901     -0.2440
      4  CA        -5.5160   15.0580   18.2710 C.3   901  MS8901      0.1972
      5  N         -5.8850   13.7700   17.6760 N.3   901  MS8901     -0.1207
      6  CB        -5.8450   15.1520   19.7660 C.3   901  MS8901      0.0690
      7  CAS       -7.3390   15.3630   20.0200 C.3   901  MS8901      0.1896
      8  CAJ       -7.6640   15.3370   21.5210 C.3   901  MS8901      0.0704
      9  CAN       -7.7960   16.6740   19.4120 C.2   901  MS8901      0.3886
     10  OAC       -7.0560   17.6760   19.5190 O.co2 901  MS8901     -0.2431
     11  OAE       -8.8990   16.6870   18.8260 O.co2 901  MS8901     -0.2431
     12  OAL       -8.0860   14.2750   19.4980 O.3   901  MS8901     -0.3476
     13  CAR       -8.1160   13.2510   20.4910 C.3   901  MS8901      0.1428
     14  CAQ       -8.3840   14.0250   21.7770 C.3   901  MS8901      0.1451
     15  CAH       -9.1100   12.1450   20.1290 C.3   901  MS8901      0.0347
     16  CAP      -10.5400   12.5740   20.4150 C.3   901  MS8901      0.0346
     17  CAG      -10.6390   13.1670   21.8200 C.3   901  MS8901      0.1422
     18  OAK       -9.7840   14.3090   21.9660 O.3   901  MS8901     -0.3537
@<TRIPOS>BOND
     1     3     2   ar
     2     5     4    1
     3     2     4    1
     4     2     1   ar
     5     4     6    1
     6    11     9   ar
     7     9    10   ar
     8     9     7    1
     9    12     7    1
    10    12    13    1
    11     6     7    1
    12     7     8    1
    13    15    16    1
    14    15    13    1
    15    16    17    1
    16    13    14    1
    17     8    14    1
    18    14    18    1
    19    17    18    1
