@<TRIPOS>MOLECULE
3fvi_OSF_A_1.pdb
 13 12 0 0 0
SMALL
GASTEIGER

@<TRIPOS>ATOM
      1  S         -6.7000   21.4040   12.1990 S.3   127  OSF127     -0.0001
      2  O1        -5.3660   22.2510   12.8220 O.3   127  OSF127     -0.2412
      3  O2        -7.8050   21.0680   13.4440 O.3   127  OSF127     -0.2682
      4  O3        -6.1720   19.9550   11.5090 O.2   127  OSF127     -0.3452
      5  O4        -7.4550   22.3490   11.0170 O.2   127  OSF127     -0.3452
      6  C1        -4.5060   22.5030   11.7520 C.3   127  OSF127      0.1725
      7  C2        -3.2350   23.2420   12.1440 C.3   127  OSF127      0.0346
      8  C3        -2.3980   22.4430   13.1560 C.3   127  OSF127      0.0027
      9  C4        -1.0990   23.1990   13.4820 C.3   127  OSF127      0.0001
     10  C5        -0.2670   23.3790   12.1890 C.3   127  OSF127      0.0000
     11  C6         1.0470   24.1350   12.4220 C.3   127  OSF127      0.0000
     12  C7         1.9560   23.4030   13.4050 C.3   127  OSF127      0.0000
     13  C8         3.2420   24.1990   13.5940 C.3   127  OSF127      0.0000
@<TRIPOS>BOND
     1     5     1    2
     2     4     1    2
     3     6     7    1
     4     6     2    1
     5     7     8    1
     6    10    11    1
     7    10     9    1
     8     1     2    1
     9     1     3    1
    10    11    12    1
    11     8     9    1
    12    12    13    1
