@<TRIPOS>MOLECULE
3fvk_8DX_A_1.pdb
 19 20 0 0 0
SMALL
GASTEIGER

@<TRIPOS>ATOM
      1  O         -3.6690   16.2690   18.6560 O.co2   1  8DX1       -0.2440
      2  C         -4.1570   15.2260   18.1780 C.2     1  8DX1        0.3820
      3  OXT       -3.4860   14.3940   17.5220 O.co2   1  8DX1       -0.2440
      4  CA        -5.6300   15.0170   18.3980 C.3     1  8DX1        0.1972
      5  N         -6.0110   13.7190   17.8370 N.3     1  8DX1       -0.1207
      6  CB        -5.8970   15.1290   19.9100 C.3     1  8DX1        0.0690
      7  CAS       -7.3580   15.3890   20.2800 C.3     1  8DX1        0.1896
      8  CAJ       -7.5520   15.4550   21.7960 C.3     1  8DX1        0.0704
      9  CAN       -7.9170   16.6530   19.6510 C.2     1  8DX1        0.3886
     10  OAC       -9.1080   16.6300   19.2460 O.co2   1  8DX1       -0.2431
     11  OAE       -7.1690   17.6520   19.5570 O.co2   1  8DX1       -0.2431
     12  OAL       -8.1330   14.2700   19.8200 O.3     1  8DX1       -0.3475
     13  CAR       -8.4680   13.4380   20.9200 C.3     1  8DX1        0.1454
     14  CAQ       -8.6020   14.4040   22.0830 C.3     1  8DX1        0.1453
     15  CAH       -9.7240   12.6260   20.5910 C.3     1  8DX1        0.0676
     16  CAP      -10.9830   13.4830   20.6440 C.3     1  8DX1        0.1839
     17  OAF      -10.9550   14.5070   19.6420 O.3     1  8DX1       -0.2204
     18  CAG      -11.0050   14.1530   22.0060 C.3     1  8DX1        0.1749
     19  OAK       -9.8860   15.0410   22.0920 O.3     1  8DX1       -0.3510
@<TRIPOS>BOND
     1     3     2   ar
     2     5     4    1
     3     2     4    1
     4     2     1   ar
     5     4     6    1
     6    10     9   ar
     7    11     9   ar
     8    17    16    1
     9     9     7    1
    10    12     7    1
    11    12    13    1
    12     6     7    1
    13     7     8    1
    14    15    16    1
    15    15    13    1
    16    16    18    1
    17    13    14    1
    18     8    14    1
    19    18    19    1
    20    14    19    1
