@<TRIPOS>MOLECULE
3fvl_BHK_A_1.pdb
 16 16 0 0 0
SMALL
GASTEIGER

@<TRIPOS>ATOM
      1  CAH      -27.0000    0.6110   -8.8690 C.ar  311  BHK311     -0.0043
      2  CAI      -28.2910    0.1580   -8.6170 C.ar  311  BHK311     -0.0003
      3  CAJ      -28.7030   -0.0690   -7.3090 C.ar  311  BHK311     -0.0000
      4  CAK      -27.8240    0.1550   -6.2550 C.ar  311  BHK311     -0.0003
      5  CAL      -26.5330    0.6060   -6.5100 C.ar  311  BHK311     -0.0043
      6  CAG      -26.1200    0.8370   -7.8170 C.ar  311  BHK311     -0.0216
      7  CAD      -24.7100    1.3740   -8.0790 C.3   311  BHK311      0.0380
      8  CAB      -23.8660    0.4410   -8.9500 C.3   311  BHK311      0.1151
      9  CAC      -24.4280    0.4130  -10.3740 C.2   311  BHK311      0.3651
     10  OAN      -24.6820   -0.7090  -10.8640 O.co2 311  BHK311     -0.2456
     11  OAM      -24.5940    1.5150  -10.9390 O.co2 311  BHK311     -0.2456
     12  CAA      -22.4370    0.9880   -8.9940 C.3   311  BHK311      0.0789
     13  CAE      -21.4980    0.0780   -9.7910 C.2   311  BHK311      0.1843
     14  OAO      -21.1710   -1.0220   -9.3500 O.2   311  BHK311     -0.2933
     15  CAF      -20.9490    0.5640  -11.1350 C.3   311  BHK311      0.2458
     16  OAP      -19.6300    0.0600  -11.3630 O.3   311  BHK311     -0.2119
@<TRIPOS>BOND
     1    16    15    1
     2    15    13    1
     3    11     9   ar
     4    10     9   ar
     5     9     8    1
     6    13    14    2
     7    13    12    1
     8    12     8    1
     9     8     7    1
    10     1     2   ar
    11     1     6   ar
    12     2     3   ar
    13     7     6    1
    14     6     5   ar
    15     3     4   ar
    16     5     4   ar
