@<TRIPOS>MOLECULE
3fvn_9DX_A_1.pdb
 19 20 0 0 0
SMALL
GASTEIGER

@<TRIPOS>ATOM
      1  OAC       -7.0560   17.7670   19.4970 O.co2   1  9DX1       -0.2431
      2  CAN       -7.7730   16.7380   19.4510 C.2     1  9DX1        0.3886
      3  OAE       -8.8810   16.6960   18.8790 O.co2   1  9DX1       -0.2431
      4  CAS       -7.2700   15.4580   20.1610 C.3     1  9DX1        0.1897
      5  CB        -5.8130   15.1900   19.8510 C.3     1  9DX1        0.0690
      6  CA        -5.4930   15.1160   18.3530 C.3     1  9DX1        0.1972
      7  N         -5.8840   13.7970   17.7580 N.3     1  9DX1       -0.1207
      8  C         -4.0270   15.3480   18.1550 C.2     1  9DX1        0.3820
      9  OXT       -3.5180   16.3880   18.6220 O.co2   1  9DX1       -0.2440
     10  O         -3.3600   14.4930   17.4890 O.co2   1  9DX1       -0.2440
     11  OAL       -8.0700   14.3160   19.7840 O.3     1  9DX1       -0.3450
     12  CAR       -8.7900   13.8130   20.8890 C.3     1  9DX1        0.1730
     13  CAP      -10.2510   13.5930   20.4770 C.3     1  9DX1        0.1838
     14  OAF      -10.7390   14.5670   19.5530 O.3     1  9DX1       -0.2204
     15  CAH      -11.1930   13.7490   21.6840 C.3     1  9DX1        0.0675
     16  CAG      -11.0600   15.1750   22.3040 C.3     1  9DX1        0.1449
     17  OAK       -9.8210   15.7880   21.8970 O.3     1  9DX1       -0.3535
     18  CAQ       -8.6820   14.8890   21.9620 C.3     1  9DX1        0.1476
     19  CAJ       -7.4360   15.6590   21.6690 C.3     1  9DX1        0.0705
@<TRIPOS>BOND
     1    10     8   ar
     2     7     6    1
     3     8     6    1
     4     8     9   ar
     5     6     5    1
     6     3     2   ar
     7     2     1   ar
     8     2     4    1
     9    14    13    1
    10    11     4    1
    11    11    12    1
    12     5     4    1
    13     4    19    1
    14    13    12    1
    15    13    15    1
    16    12    18    1
    17    19    18    1
    18    15    16    1
    19    17    18    1
    20    17    16    1
