@<TRIPOS>MOLECULE
3fvo_8EP_A_1.pdb
 20 21 0 0 0
SMALL
GASTEIGER

@<TRIPOS>ATOM
      1  OAC        9.0520  -16.9030   19.7030 O.co2   1  8EP1       -0.2431
      2  CAN        7.8600  -16.8880   20.0970 C.2     1  8EP1        0.3886
      3  OAE        7.1230  -17.8970   20.0360 O.co2   1  8EP1       -0.2431
      4  CAT        7.3120  -15.6030   20.6830 C.3     1  8EP1        0.1898
      5  CB         5.8460  -15.3600   20.3170 C.3     1  8EP1        0.0690
      6  CA         5.5890  -15.3110   18.8090 C.3     1  8EP1        0.1972
      7  N          6.0050  -14.0370   18.2200 N.3     1  8EP1       -0.1207
      8  C          4.1200  -15.5290   18.5780 C.2     1  8EP1        0.3820
      9  OXT        3.6180  -16.5640   19.0590 O.co2   1  8EP1       -0.2440
     10  O          3.4720  -14.6940   17.9060 O.co2   1  8EP1       -0.2440
     11  OAL        8.1230  -14.5180   20.2310 O.3     1  8EP1       -0.3449
     12  CAS        8.5390  -13.7170   21.3180 C.3     1  8EP1        0.1755
     13  CAQ        9.8340  -13.0250   20.9000 C.3     1  8EP1        0.2139
     14  OAG       10.0420  -11.9130   21.7660 O.3     1  8EP1       -0.2176
     15  CAP       11.0380  -13.9470   21.0180 C.3     1  8EP1        0.2140
     16  OAF       10.9680  -14.9240   19.9770 O.3     1  8EP1       -0.2176
     17  CAH       11.0280  -14.6470   22.3700 C.3     1  8EP1        0.1776
     18  OAK        9.8520  -15.4480   22.4520 O.3     1  8EP1       -0.3508
     19  CAR        8.6370  -14.6880   22.4860 C.3     1  8EP1        0.1478
     20  CAJ        7.4990  -15.6480   22.2010 C.3     1  8EP1        0.0705
@<TRIPOS>BOND
     1    10     8   ar
     2     7     6    1
     3     8     6    1
     4     8     9   ar
     5     6     5    1
     6     1     2   ar
     7    16    15    1
     8     3     2   ar
     9     2     4    1
    10    11     4    1
    11    11    12    1
    12     5     4    1
    13     4    20    1
    14    13    15    1
    15    13    12    1
    16    13    14    1
    17    15    17    1
    18    12    19    1
    19    20    19    1
    20    17    18    1
    21    18    19    1
