@<TRIPOS>MOLECULE
3fvp_UB2_A_1.pdb
 29 29 0 0 0
SMALL
GASTEIGER

@<TRIPOS>ATOM
      1  C3       -15.0390   40.6810   12.6000 C.ar  323  UB2323     -0.0007
      2  C2       -16.2780   40.2100   13.0550 C.ar  323  UB2323     -0.0002
      3  C1       -17.4070   40.3120   12.2190 C.ar  323  UB2323     -0.0000
      4  C29      -17.2850   40.8950   10.9390 C.ar  323  UB2323     -0.0002
      5  C28      -16.0520   41.3710   10.4960 C.ar  323  UB2323     -0.0007
      6  C4       -14.9110   41.2300   11.3070 C.ar  323  UB2323      0.0213
      7  C5       -13.5730   41.7340   10.7640 C.3   323  UB2323      0.2368
      8  O6       -12.9030   40.6580   10.0970 O.3   323  UB2323     -0.4285
      9  C7       -12.6350   40.9200    8.8100 C.2   323  UB2323      0.4220
     10  O27      -12.9360   41.9790    8.3480 O.2   323  UB2323     -0.2245
     11  N8       -12.1270   39.9450    8.0780 N.am  323  UB2323     -0.1565
     12  C9       -11.6930   40.1120    6.7400 C.3   323  UB2323      0.2238
     13  P10      -11.2520   38.5230    5.9680 P.3   323  UB2323      0.3472
     14  O12      -12.3120   37.5290    6.2050 O.2   323  UB2323     -0.2668
     15  O11       -9.9260   38.0640    6.5240 O.3   323  UB2323     -0.1484
     16  N13      -11.0210   38.8500    4.4460 N.3   323  UB2323     -0.1352
     17  C14       -9.8550   38.3600    3.6750 C.3   323  UB2323      0.1595
     18  C16       -8.6220   39.2520    3.8050 C.2   323  UB2323      0.2582
     19  O26       -7.4920   38.7910    3.6590 O.2   323  UB2323     -0.2718
     20  C15      -10.2640   38.3470    2.1660 C.3   323  UB2323      0.0292
     21  N17       -8.8360   40.5720    4.0890 N.am  323  UB2323     -0.1944
     22  C18       -7.6960   41.4610    4.3390 C.3   323  UB2323      0.1978
     23  C22       -7.1560   42.0940    3.0340 C.3   323  UB2323      0.0333
     24  C23       -8.1430   42.8780    2.1570 C.3   323  UB2323      0.0023
     25  C25       -9.1900   42.0130    1.4180 C.3   323  UB2323      0.0001
     26  C24       -7.3180   43.7470    1.1530 C.3   323  UB2323      0.0001
     27  C19       -8.0050   42.4590    5.4170 C.2   323  UB2323      0.3842
     28  O21       -9.1930   42.5290    5.8230 O.co2 323  UB2323     -0.2437
     29  O20       -7.0980   43.2170    5.8480 O.co2 323  UB2323     -0.2437
@<TRIPOS>BOND
     1    26    24    1
     2    25    24    1
     3    24    23    1
     4    20    17    1
     5    23    22    1
     6    19    18    2
     7    17    18    1
     8    17    16    1
     9    18    21   am
    10    21    22    1
    11    22    27    1
    12    16    13    1
    13    27    28   ar
    14    27    29   ar
    15    13    14    2
    16    13    15    1
    17    13    12    1
    18    12    11    1
    19    11     9   am
    20    10     9    2
    21     9     8    1
    22     8     7    1
    23     5     4   ar
    24     5     6   ar
    25     7     6    1
    26     4     3   ar
    27     6     1   ar
    28     3     2   ar
    29     1     2   ar
