@<TRIPOS>MOLECULE
3fvq_ATP_A_1.pdb
 31 33 0 0 0
SMALL
GASTEIGER

@<TRIPOS>ATOM
      1  PG       -31.4720  -13.0710   16.9170 P.3   401  ATP401      0.5373
      2  O1G      -30.6640  -14.0780   17.6980 O.3   401  ATP401     -0.1143
      3  O2G      -32.6810  -12.5800   17.7100 O.3   401  ATP401     -0.1143
      4  O3G      -30.7180  -11.9950   16.1980 O.2   401  ATP401     -0.2221
      5  PB       -31.6220  -14.9590   14.6960 P.3   401  ATP401      0.2277
      6  O1B      -31.4450  -14.2940   13.3760 O.2   401  ATP401     -0.5168
      7  O2B      -30.5220  -15.8730   15.1790 O.3   401  ATP401     -0.4368
      8  O3B      -32.2710  -13.9450   15.7900 O.3   401  ATP401     -0.2258
      9  PA       -33.1830  -17.4440   14.6520 P.3   401  ATP401      0.2189
     10  O1A      -32.9670  -17.8950   16.0630 O.3   401  ATP401     -0.4371
     11  O2A      -32.5370  -18.1120   13.5160 O.2   401  ATP401     -0.5170
     12  O3A      -32.9950  -15.8430   14.4850 O.3   401  ATP401     -0.2700
     13  O5'      -34.7780  -17.5390   14.3830 O.3   401  ATP401     -0.3112
     14  C5'      -35.3030  -17.1780   13.0960 C.3   401  ATP401      0.1813
     15  C4'      -36.8300  -17.0700   13.2190 C.3   401  ATP401      0.1821
     16  O4'      -37.3270  -18.3730   13.4650 O.3   401  ATP401     -0.3135
     17  C3'      -37.2980  -16.2140   14.3820 C.3   401  ATP401      0.2184
     18  O3'      -38.2530  -15.2380   13.9100 O.3   401  ATP401     -0.2174
     19  C2'      -37.9810  -17.1720   15.3350 C.3   401  ATP401      0.2570
     20  O2'      -39.1370  -16.5590   15.8390 O.3   401  ATP401     -0.2130
     21  C1'      -38.3740  -18.3270   14.4300 C.3   401  ATP401      0.3186
     22  N9       -38.4970  -19.6120   15.1320 N.pl3 401  ATP401     -0.1439
     23  C8       -37.5670  -20.3300   15.7920 C.3   401  ATP401      0.3377
     24  N7       -38.1060  -21.4850   16.2850 N.2   401  ATP401     -0.2095
     25  C5       -39.4040  -21.4980   15.9170 C.2   401  ATP401      0.2526
     26  C6       -40.5620  -22.4050   16.0570 C.2   401  ATP401      0.4393
     27  N6       -40.4660  -23.5780   16.7540 N.pl3 401  ATP401      0.2180
     28  N1       -41.7230  -22.0070   15.4990 N.2   401  ATP401      0.0021
     29  C2       -41.8780  -20.8770   14.8080 C.3   401  ATP401      0.5254
     30  N3       -40.8600  -20.0070   14.6210 N.2   401  ATP401     -0.0055
     31  C4       -39.6420  -20.2700   15.1560 C.2   401  ATP401      0.3518
@<TRIPOS>BOND
     1    14    15    1
     2    14    13    1
     3    15    16    1
     4    15    17    1
     5     6     5    2
     6    16    21    1
     7    11     9    2
     8    18    17    1
     9    17    19    1
    10    13     9    1
    11    21    22    1
    12    21    19    1
    13    12     9    1
    14    12     5    1
    15    30    29    1
    16    30    31    2
    17     9    10    1
    18     5     7    1
    19     5     8    1
    20    29    28    1
    21    22    31    1
    22    22    23    1
    23    31    25    1
    24    19    20    1
    25    28    26    2
    26     8     1    1
    27    23    24    1
    28    25    26    1
    29    25    24    2
    30    26    27    1
    31     4     1    2
    32     1     2    1
    33     1     3    1
