@<TRIPOS>MOLECULE
3fvu_IAC_A_1.pdb
 13 14 0 0 0
SMALL
GASTEIGER

@<TRIPOS>ATOM
      1  C         23.3670    5.1620    6.0070 C.2   423  IAC423      0.0631
      2  C1        24.5310    4.4270    5.8020 C.2   423  IAC423      0.0119
      3  C2        25.0260    3.5620    6.7680 C.2   423  IAC423      0.0006
      4  C3        24.3240    3.4460    7.9760 C.2   423  IAC423     -0.0042
      5  C4        23.1580    4.1770    8.1960 C.2   423  IAC423     -0.0198
      6  C5        22.6730    5.0550    7.2150 C.3   423  IAC423      0.0717
      7  C7        25.0300    4.7290    4.5460 C.2   423  IAC423      0.0093
      8  C8        24.1400    5.6550    3.9950 C.2   423  IAC423      0.0947
      9  C17       26.2700    4.1590    3.8950 C.3   423  IAC423      0.1419
     10  C18       26.5910    5.0440    2.7170 C.2   423  IAC423      0.3693
     11  N         23.1480    5.9000    4.8990 N.2   423  IAC423     -0.2481
     12  O2        26.2080    4.6680    1.5780 O.co2 423  IAC423     -0.2453
     13  O3        27.1680    6.1360    2.9710 O.co2 423  IAC423     -0.2453
@<TRIPOS>BOND
     1    12    10   ar
     2    10    13   ar
     3    10     9    1
     4     9     7    1
     5     8     7    2
     6     8    11    1
     7     7     2    1
     8    11     1    2
     9     2     1    1
    10     2     3    2
    11     1     6    1
    12     3     4    1
    13     6     5    1
    14     4     5    2
