@<TRIPOS>MOLECULE
3fw0_HH3_A_1.pdb
 14 14 0 0 0
SMALL
GASTEIGER

@<TRIPOS>ATOM
      1  O1        -0.4780    4.8440   27.2980 O.2     1  HH31       -0.2683
      2  O2         0.8440    7.5630   27.3920 O.3     1  HH31       -0.1863
      3  C1        -1.9440    3.2200   22.8220 C.ar    1  HH31        0.0000
      4  C6        -2.6030    2.9660   24.0270 C.ar    1  HH31        0.0001
      5  C5        -2.2700    3.6950   25.1680 C.ar    1  HH31        0.0046
      6  C4        -1.2800    4.6740   25.1050 C.ar    1  HH31        0.0551
      7  C3        -0.6190    4.9250   23.9030 C.ar    1  HH31        0.0046
      8  C2        -0.9510    4.1980   22.7600 C.ar    1  HH31        0.0001
      9  C7        -0.9230    5.4520   26.3370 C.2     1  HH31        0.2673
     10  N1        -1.1050    6.7730   26.3440 N.am    1  HH31       -0.1614
     11  C9        -0.5860    7.6210   27.4040 C.3     1  HH31        0.3499
     12  C10       -1.0750    9.0440   27.3330 C.2     1  HH31        0.4157
     13  O3        -2.2150    9.2940   27.7750 O.co2   1  HH31       -0.2408
     14  O4        -0.3410    9.9260   26.8470 O.co2   1  HH31       -0.2408
@<TRIPOS>BOND
     1     8     3   ar
     2     8     7   ar
     3     3     4   ar
     4     7     6   ar
     5     4     5   ar
     6     6     5   ar
     7     6     9    1
     8     9    10   am
     9     9     1    2
    10    10    11    1
    11    14    12   ar
    12    12    11    1
    13    12    13   ar
    14     2    11    1
