@<TRIPOS>MOLECULE
3fw3_GLC_A_1.pdb
 11 11 0 0 0
SMALL
GASTEIGER

@<TRIPOS>ATOM
      1  C1        12.8820  -16.2930   21.4160 C.3   304  GLC304      0.1777
      2  C2        13.0940  -16.9760   22.7770 C.3   304  GLC304      0.2141
      3  C3        14.6030  -17.1360   22.9950 C.3   304  GLC304      0.2173
      4  C4        15.2020  -17.9630   21.8690 C.3   304  GLC304      0.2142
      5  C5        14.8290  -17.3460   20.5330 C.3   304  GLC304      0.1810
      6  C6        15.3370  -18.2170   19.3860 C.3   304  GLC304      0.2141
      7  O2        12.5150  -16.1750   23.7770 O.3   304  GLC304     -0.2176
      8  O3        14.9330  -17.7560   24.2100 O.3   304  GLC304     -0.2175
      9  O4        16.6100  -17.9630   22.0580 O.3   304  GLC304     -0.2176
     10  O5        13.4190  -17.2070   20.4520 O.3   304  GLC304     -0.3481
     11  O6        15.1000  -17.5280   18.1830 O.3   304  GLC304     -0.2176
@<TRIPOS>BOND
     1    11     6    1
     2     6     5    1
     3    10     5    1
     4    10     1    1
     5     5     4    1
     6     1     2    1
     7     4     9    1
     8     4     3    1
     9     2     3    1
    10     2     7    1
    11     3     8    1
