@<TRIPOS>MOLECULE
3fw3_ETS_A_1.pdb
 19 20 0 0 0
SMALL
GASTEIGER

@<TRIPOS>ATOM
      1  S1         3.5390    7.3870   21.0440 S.2   302  ETS302     -0.0492
      2  C2         3.3660    7.0790   19.3060 C.ar  302  ETS302      0.1554
      3  C3         2.1230    7.5230   18.9740 C.ar  302  ETS302      0.0256
      4  C4         1.3540    8.0980   20.0050 C.ar  302  ETS302      0.0187
      5  C5        -0.0230    8.7530   19.8020 C.3   302  ETS302      0.0984
      6  C6        -0.3310    9.7780   20.8950 C.3   302  ETS302      0.0459
      7  C7        -0.2740    9.2020   22.3320 C.3   302  ETS302      0.1361
      8  S8         1.4540    8.8690   22.7280 S.O2  302  ETS302      0.0124
      9  C9         1.9710    8.1570   21.2190 C.ar  302  ETS302      0.1335
     10  S10        4.7520    6.4260   18.5050 S.O2  302  ETS302      0.0992
     11  O11        5.4310    5.6620   19.5070 O.2   302  ETS302     -0.1498
     12  O12        5.3820    7.5460   17.8690 O.2   302  ETS302     -0.1498
     13  N13        4.1370    5.4950   17.2910 N.3   302  ETS302      0.0397
     14  N14       -1.0620    7.7060   19.8070 N.3   302  ETS302     -0.2149
     15  C15       -0.7580   10.2000   23.3920 C.3   302  ETS302      0.0258
     16  O16        2.1600   10.0790   22.7470 O.2   302  ETS302     -0.1682
     17  O17        1.6480    7.8690   23.7090 O.2   302  ETS302     -0.1682
     18  C18       -1.2840    7.1270   18.4880 C.3   302  ETS302      0.0891
     19  C19       -2.5530    6.2770   18.5180 C.3   302  ETS302      0.0203
@<TRIPOS>BOND
     1    13    10    1
     2    12    10    2
     3    18    19    1
     4    18    14    1
     5    10     2    1
     6    10    11    2
     7     3     2   ar
     8     3     4   ar
     9     2     1   ar
    10     5    14    1
    11     5     4    1
    12     5     6    1
    13     4     9   ar
    14     6     7    1
    15     1     9   ar
    16     9     8    1
    17     7     8    1
    18     7    15    1
    19     8    16    2
    20     8    17    2
