@<TRIPOS>MOLECULE
3fw9_SLX_A_1.pdb
 24 27 0 0 0
SMALL
GASTEIGER

@<TRIPOS>ATOM
      1  C1       -29.3030   -8.3170  -10.9520 C.ar    2  SLX2       -0.0080
      2  C2       -28.7020   -9.5160  -10.6540 C.ar    2  SLX2        0.0419
      3  C3       -28.7200  -10.5670  -11.5600 C.ar    2  SLX2        0.2290
      4  C5       -29.3350  -10.4340  -12.7700 C.ar    2  SLX2        0.1770
      5  C8       -29.9690   -9.2180  -13.1180 C.ar    2  SLX2        0.0357
      6  C9       -29.9500   -8.1420  -12.1880 C.ar    2  SLX2       -0.0203
      7  C10      -30.8240   -6.9080  -12.4280 C.3     2  SLX2        0.0435
      8  C11      -30.2900   -5.7470  -11.5970 C.3     2  SLX2        0.0773
      9  N12      -30.3160   -6.2330  -10.2210 N.3     2  SLX2       -0.2659
     10  C14      -29.2910   -7.2330   -9.9380 C.3     2  SLX2        0.0845
     11  C16      -29.5430   -7.8830   -8.5830 C.3     2  SLX2        0.0466
     12  C17      -29.5260   -6.7780   -7.5280 C.ar    2  SLX2       -0.0199
     13  C25      -29.1350   -7.0660   -6.2360 C.ar    2  SLX2       -0.0012
     14  C24      -29.1220   -6.0710   -5.2900 C.ar    2  SLX2        0.0399
     15  C21      -29.5130   -4.7460   -5.6570 C.ar    2  SLX2        0.1771
     16  O22      -29.5040   -3.7780   -4.7600 O.3     2  SLX2       -0.4682
     17  C23      -28.9010   -4.0060   -3.4660 C.3     2  SLX2        0.2526
     18  C19      -29.8910   -4.4770   -6.9180 C.ar    2  SLX2        0.2263
     19  O20      -30.2610   -3.2040   -7.2560 O.3     2  SLX2       -0.2836
     20  C18      -29.9010   -5.4640   -7.8650 C.ar    2  SLX2        0.0320
     21  C13      -30.3290   -5.1170   -9.2730 C.3     2  SLX2        0.1024
     22  O6       -29.3320  -11.4900  -13.6240 O.3     2  SLX2       -0.4682
     23  C7       -29.4320  -11.2880  -14.9570 C.3     2  SLX2        0.2526
     24  O4       -28.1230  -11.7380  -11.2430 O.3     2  SLX2       -0.2833
@<TRIPOS>BOND
     1    23    22    1
     2    22     4    1
     3     5     4   ar
     4     5     6   ar
     5     4     3   ar
     6     7     6    1
     7     7     8    1
     8     6     1   ar
     9     8     9    1
    10     3    24    1
    11     3     2   ar
    12     1     2   ar
    13     1    10    1
    14     9    10    1
    15     9    21    1
    16    10    11    1
    17    21    20    1
    18    11    12    1
    19    20    12   ar
    20    20    18   ar
    21    12    13   ar
    22    19    18    1
    23    18    15   ar
    24    13    14   ar
    25    15    14   ar
    26    15    16    1
    27    16    17    1
