@<TRIPOS>MOLECULE
3fwa_REN_A_1.pdb
 24 26 0 0 0
SMALL
GASTEIGER

@<TRIPOS>ATOM
      1  C2       -28.6050   -9.3670  -11.0090 C.ar    2  REN2        0.0419
      2  C3       -28.4120  -10.4590  -11.8170 C.ar    2  REN2        0.2290
      3  C5       -28.9070  -10.4610  -13.1170 C.ar    2  REN2        0.1770
      4  C8       -29.5940   -9.3640  -13.5990 C.ar    2  REN2        0.0357
      5  C9       -29.7930   -8.2530  -12.7900 C.ar    2  REN2       -0.0203
      6  C10      -30.2430   -6.9500  -13.4260 C.3     2  REN2        0.0435
      7  C11      -30.7620   -6.0240  -12.3530 C.3     2  REN2        0.0771
      8  N12      -29.6140   -5.8100  -11.5090 N.3     2  REN2       -0.2685
      9  C14      -29.2680   -6.9530  -10.6500 C.3     2  REN2        0.0843
     10  C16      -30.1710   -6.9450   -9.3620 C.3     2  REN2        0.0469
     11  C17      -29.2140   -7.2760   -8.1690 C.ar    2  REN2       -0.0171
     12  C25      -28.5790   -8.5110   -8.1160 C.ar    2  REN2       -0.0009
     13  C24      -27.7260   -8.8240   -7.0750 C.ar    2  REN2        0.0399
     14  C21      -27.4920   -7.9200   -6.0700 C.ar    2  REN2        0.1773
     15  O22      -26.6430   -8.2510   -5.0490 O.3     2  REN2       -0.4682
     16  C23      -25.5170   -9.1140   -5.3130 C.3     2  REN2        0.2526
     17  C19      -28.1160   -6.6670   -6.0920 C.ar    2  REN2        0.2290
     18  O20      -27.8740   -5.7530   -5.0710 O.3     2  REN2       -0.2833
     19  C18      -28.9890   -6.3380   -7.1530 C.ar    2  REN2        0.0410
     20  C1       -29.2930   -8.2550  -11.4730 C.ar    2  REN2       -0.0080
     21  C13      -29.4670   -4.4910  -10.8920 C.3     2  REN2        0.0899
     22  O6       -28.7150  -11.5420  -13.9150 O.3     2  REN2       -0.4682
     23  C7       -29.6290  -12.6190  -13.8740 C.3     2  REN2        0.2526
     24  O4       -27.7280  -11.5520  -11.3370 O.3     2  REN2       -0.2833
@<TRIPOS>BOND
     1    22    23    1
     2    22     3    1
     3     4     3   ar
     4     4     5   ar
     5     6     5    1
     6     6     7    1
     7     3     2   ar
     8     5    20   ar
     9     7     8    1
    10     2    24    1
    11     2     1   ar
    12     8    21    1
    13     8     9    1
    14    20     1   ar
    15    20     9    1
    16     9    10    1
    17    10    11    1
    18    11    12   ar
    19    11    19   ar
    20    12    13   ar
    21    19    17   ar
    22    13    14   ar
    23    17    14   ar
    24    17    18    1
    25    14    15    1
    26    16    15    1
