@<TRIPOS>MOLECULE
3fwf_CAM_A_1.pdb
 11 12 0 0 0
SMALL
GASTEIGER

@<TRIPOS>ATOM
      1  C1        22.8270   -4.1180   46.9920 C.3   420  CAM420      0.0282
      2  C2        23.6040   -3.9800   48.2750 C.3   420  CAM420      0.1519
      3  O         23.9190   -5.0400   49.1030 O.3   420  CAM420     -0.2232
      4  C3        23.9980   -2.5500   48.5100 C.3   420  CAM420      0.0329
      5  C4        23.3730   -1.9420   47.2540 C.3   420  CAM420      0.0026
      6  C5        24.2810   -2.4460   46.1180 C.3   420  CAM420      0.0002
      7  C6        23.8970   -3.9170   45.9080 C.3   420  CAM420      0.0024
      8  C7        22.1170   -2.7760   47.0460 C.3   420  CAM420      0.0024
      9  C8        21.1420   -2.6810   48.2260 C.3   420  CAM420      0.0001
     10  C9        21.3970   -2.4180   45.7450 C.3   420  CAM420      0.0001
     11  C10       21.9140   -5.3530   46.9460 C.3   420  CAM420      0.0025
@<TRIPOS>BOND
     1    10     8    1
     2     7     6    1
     3     7     1    1
     4     6     5    1
     5    11     1    1
     6     1     8    1
     7     1     2    1
     8     8     5    1
     9     8     9    1
    10     5     4    1
    11     2     4    1
    12     2     3    1
