@<TRIPOS>MOLECULE
3fwf_HEM_A_1.pdb
 43 50 0 0 0
SMALL
GASTEIGER

@<TRIPOS>ATOM
      1 FE         23.8150    1.0290   43.8500 Fe    417  HEM417      0.0000
      2  CHA       24.4930    1.5280   47.1860 C.2   417  HEM417      0.0000
      3  CHB       20.4240    1.3360   44.5340 C.2   417  HEM417      0.0000
      4  CHC       23.0970    0.2810   40.6270 C.2   417  HEM417      0.0000
      5  CHD       27.0300   -0.2160   43.3940 C.2   417  HEM417      0.0000
      6  NA        22.6660    1.3720   45.5580 N.2   417  HEM417      0.0000
      7  C1A       23.1750    1.5660   46.8290 C.2   417  HEM417      0.0000
      8  C2A       22.0710    1.8780   47.7120 C.2   417  HEM417      0.0000
      9  C3A       20.9660    1.8090   46.9660 C.2   417  HEM417      0.0000
     10  C4A       21.3070    1.4770   45.6090 C.2   417  HEM417      0.0000
     11  CMA       19.5170    2.0350   47.4370 C.3   417  HEM417      0.0000
     12  CAA       22.1670    2.2040   49.2270 C.3   417  HEM417      0.0000
     13  CBA       22.1580    0.8900   50.0350 C.3   417  HEM417      0.0000
     14  CGA       22.1290    1.1270   51.5440 C.2   417  HEM417      0.0000
     15  O1A       22.1310    2.2950   51.9960 O.co2 417  HEM417      0.0000
     16  O2A       22.1170    0.1210   52.3090 O.co2 417  HEM417      0.0000
     17  NB        22.0570    0.7790   42.7980 N.ar  417  HEM417      0.0000
     18  C1B       20.7800    1.0890   43.2220 C.ar  417  HEM417      0.0000
     19  C2B       19.8980    1.0670   42.0530 C.ar  417  HEM417      0.0000
     20  C3B       20.6480    0.7780   40.9710 C.ar  417  HEM417      0.0000
     21  C4B       22.0220    0.5850   41.4310 C.ar  417  HEM417      0.0000
     22  CMB       18.3810    1.3680   42.0970 C.3   417  HEM417      0.0000
     23  CAB       20.2220    0.6550   39.4800 C.2   417  HEM417      0.0000
     24  CBB       19.0140    1.0570   39.0360 C.2   417  HEM417      0.0000
     25  NC        24.8820    0.1500   42.3000 N.2   417  HEM417      0.0000
     26  C1C       24.3890    0.0670   41.0130 C.2   417  HEM417      0.0000
     27  C2C       25.4860   -0.3360   40.1430 C.2   417  HEM417      0.0000
     28  C3C       26.5810   -0.5000   40.9160 C.2   417  HEM417      0.0000
     29  C4C       26.2130   -0.2070   42.2920 C.2   417  HEM417      0.0000
     30  CMC       25.3310   -0.5290   38.6120 C.3   417  HEM417      0.0000
     31  CAC       28.0010   -0.9210   40.4610 C.2   417  HEM417      0.0000
     32  CBC       28.6130   -1.9410   41.0720 C.2   417  HEM417      0.0000
     33  ND        25.4610    0.6980   45.0930 N.ar  417  HEM417      0.0000
     34  C1D       26.6980    0.2050   44.6680 C.ar  417  HEM417      0.0000
     35  C2D       27.6290    0.2340   45.7780 C.ar  417  HEM417      0.0000
     36  C3D       26.8460    0.7840   46.9490 C.ar  417  HEM417      0.0000
     37  C4D       25.5180    1.0250   46.4500 C.ar  417  HEM417      0.0000
     38  CMD       29.1020   -0.2100   45.8020 C.3   417  HEM417      0.0000
     39  CAD       27.3260    0.9670   48.3970 C.3   417  HEM417      0.0000
     40  CBD       27.7880    2.3820   48.6770 C.3   417  HEM417      0.0000
     41  CGD       28.1170    2.4420   50.1570 C.2   417  HEM417      0.0000
     42  O1D       28.8740    3.3580   50.5580 O.co2 417  HEM417      0.0000
     43  O2D       27.5780    1.6010   50.9160 O.co2 417  HEM417      0.0000
@<TRIPOS>BOND
     1    30    27    1
     2    24    23    2
     3    23    20    1
     4    27    28    2
     5    27    26    1
     6    31    28    1
     7    31    32    2
     8     4    26    2
     9     4    21    1
    10    28    29    1
    11    20    21   ar
    12    20    19   ar
    13    26    25    1
    14    21    17   ar
    15    19    22    1
    16    19    18   ar
    17    29    25    2
    18    29     5    1
    19    25     1    1
    20    17    18   ar
    21    17     1    1
    22    18     3    1
    23     5    34    2
    24     1    33    1
    25     1     6    1
    26     3    10    2
    27    34    33   ar
    28    34    35   ar
    29    33    37   ar
    30     6    10    1
    31     6     7    2
    32    10     9    1
    33    35    38    1
    34    35    36   ar
    35    37    36   ar
    36    37     2    2
    37     7     2    1
    38     7     8    1
    39    36    39    1
    40     9    11    1
    41     9     8    2
    42     8    12    1
    43    39    40    1
    44    40    41    1
    45    12    13    1
    46    13    14    1
    47    41    42   ar
    48    41    43   ar
    49    14    15   ar
    50    14    16   ar
