@<TRIPOS>MOLECULE
3fwg_CAM_A_1.pdb
 11 12 0 0 0
SMALL
GASTEIGER

@<TRIPOS>ATOM
      1  C1        22.7660   -3.2500   47.3570 C.3   420  CAM420      0.0282
      2  C2        23.5950   -3.1030   48.6010 C.3   420  CAM420      0.1519
      3  O         23.9830   -4.1590   49.4240 O.3   420  CAM420     -0.2232
      4  C3        23.9510   -1.6530   48.8140 C.3   420  CAM420      0.0329
      5  C4        23.2600   -1.0700   47.5780 C.3   420  CAM420      0.0026
      6  C5        24.1450   -1.5600   46.4220 C.3   420  CAM420      0.0002
      7  C6        23.8000   -3.0470   46.2560 C.3   420  CAM420      0.0024
      8  C7        22.0110   -1.9320   47.4060 C.3   420  CAM420      0.0024
      9  C8        21.0390   -1.8510   48.5840 C.3   420  CAM420      0.0001
     10  C9        21.2940   -1.6240   46.0940 C.3   420  CAM420      0.0001
     11  C10       21.9360   -4.5280   47.3060 C.3   420  CAM420      0.0025
@<TRIPOS>BOND
     1    10     8    1
     2     7     6    1
     3     7     1    1
     4     6     5    1
     5    11     1    1
     6     1     8    1
     7     1     2    1
     8     8     5    1
     9     8     9    1
    10     5     4    1
    11     2     4    1
    12     2     3    1
