@<TRIPOS>MOLECULE
3fwg_HEM_A_1.pdb
 43 50 0 0 0
SMALL
GASTEIGER

@<TRIPOS>ATOM
      1 FE         23.8440    1.7630   44.0290 Fe    417  HEM417      0.0000
      2  CHA       24.5230    2.3560   47.3600 C.2   417  HEM417      0.0000
      3  CHB       20.4740    2.0770   44.7220 C.2   417  HEM417      0.0000
      4  CHC       23.0750    0.9050   40.8260 C.2   417  HEM417      0.0000
      5  CHD       27.0570    0.6080   43.5620 C.2   417  HEM417      0.0000
      6  NA        22.7240    2.0990   45.7010 N.2   417  HEM417      0.0000
      7  C1A       23.2180    2.4020   46.9720 C.2   417  HEM417      0.0000
      8  C2A       22.1070    2.7370   47.8450 C.2   417  HEM417      0.0000
      9  C3A       20.9870    2.6660   47.1110 C.2   417  HEM417      0.0000
     10  C4A       21.3540    2.2620   45.7650 C.2   417  HEM417      0.0000
     11  CMA       19.5390    2.9360   47.5780 C.3   417  HEM417      0.0000
     12  CAA       22.2180    3.1370   49.3400 C.3   417  HEM417      0.0000
     13  CBA       22.0720    1.9170   50.2480 C.3   417  HEM417      0.0000
     14  CGA       22.1350    2.2740   51.7190 C.2   417  HEM417      0.0000
     15  O1A       22.1240    3.4710   52.0920 O.co2 417  HEM417      0.0000
     16  O2A       22.1770    1.3370   52.5460 O.co2 417  HEM417      0.0000
     17  NB        22.0810    1.4620   42.9950 N.ar  417  HEM417      0.0000
     18  C1B       20.8190    1.7910   43.4240 C.ar  417  HEM417      0.0000
     19  C2B       19.9110    1.7770   42.2830 C.ar  417  HEM417      0.0000
     20  C3B       20.6440    1.4620   41.1910 C.ar  417  HEM417      0.0000
     21  C4B       22.0140    1.2660   41.6270 C.ar  417  HEM417      0.0000
     22  CMB       18.4020    2.0910   42.3480 C.3   417  HEM417      0.0000
     23  CAB       20.2080    1.2990   39.7210 C.2   417  HEM417      0.0000
     24  CBB       19.0180    1.6520   39.2310 C.2   417  HEM417      0.0000
     25  NC        24.8760    0.8940   42.5000 N.2   417  HEM417      0.0000
     26  C1C       24.3640    0.6520   41.2450 C.2   417  HEM417      0.0000
     27  C2C       25.4220    0.0930   40.4300 C.2   417  HEM417      0.0000
     28  C3C       26.5290   -0.0060   41.1730 C.2   417  HEM417      0.0000
     29  C4C       26.2010    0.5000   42.4910 C.2   417  HEM417      0.0000
     30  CMC       25.2810   -0.3340   38.9560 C.3   417  HEM417      0.0000
     31  CAC       27.8920   -0.5560   40.7200 C.2   417  HEM417      0.0000
     32  CBC       28.5510   -1.4120   41.5000 C.2   417  HEM417      0.0000
     33  ND        25.4790    1.5180   45.2430 N.ar  417  HEM417      0.0000
     34  C1D       26.7250    1.0590   44.8100 C.ar  417  HEM417      0.0000
     35  C2D       27.6770    1.1410   45.9070 C.ar  417  HEM417      0.0000
     36  C3D       26.8990    1.6900   47.0860 C.ar  417  HEM417      0.0000
     37  C4D       25.5550    1.8780   46.5970 C.ar  417  HEM417      0.0000
     38  CMD       29.1630    0.7320   45.9120 C.3   417  HEM417      0.0000
     39  CAD       27.4240    1.9300   48.5170 C.3   417  HEM417      0.0000
     40  CBD       27.7660    3.3810   48.8200 C.3   417  HEM417      0.0000
     41  CGD       28.0280    3.5090   50.3100 C.2   417  HEM417      0.0000
     42  O1D       28.7130    4.4730   50.7170 O.co2 417  HEM417      0.0000
     43  O2D       27.5630    2.6460   51.0950 O.co2 417  HEM417      0.0000
@<TRIPOS>BOND
     1    30    27    1
     2    24    23    2
     3    23    20    1
     4    27    28    2
     5    27    26    1
     6    31    28    1
     7    31    32    2
     8     4    26    2
     9     4    21    1
    10    28    29    1
    11    20    21   ar
    12    20    19   ar
    13    26    25    1
    14    21    17   ar
    15    19    22    1
    16    19    18   ar
    17    29    25    2
    18    29     5    1
    19    25     1    1
    20    17    18   ar
    21    17     1    1
    22    18     3    1
    23     5    34    2
    24     1    33    1
    25     1     6    1
    26     3    10    2
    27    34    33   ar
    28    34    35   ar
    29    33    37   ar
    30     6    10    1
    31     6     7    2
    32    10     9    1
    33    35    38    1
    34    35    36   ar
    35    37    36   ar
    36    37     2    2
    37     7     2    1
    38     7     8    1
    39    36    39    1
    40     9    11    1
    41     9     8    2
    42     8    12    1
    43    39    40    1
    44    40    41    1
    45    12    13    1
    46    13    14    1
    47    41    42   ar
    48    41    43   ar
    49    14    15   ar
    50    14    16   ar
