@<TRIPOS>MOLECULE
3fwi_CAM_A_1.pdb
 11 12 0 0 0
SMALL
GASTEIGER

@<TRIPOS>ATOM
      1  C1       -12.6450   19.4660   20.6420 C.3   420  CAM420      0.0282
      2  C2       -12.8780   18.0560   21.1060 C.3   420  CAM420      0.1519
      3  O        -11.8400   17.1090   21.3270 O.3   420  CAM420     -0.2232
      4  C3       -14.3590   17.8690   21.3770 C.3   420  CAM420      0.0329
      5  C4       -14.8690   19.2620   20.9210 C.3   420  CAM420      0.0026
      6  C5       -14.4190   20.1110   22.1160 C.3   420  CAM420      0.0002
      7  C6       -12.9100   20.2440   21.9440 C.3   420  CAM420      0.0024
      8  C7       -13.9010   19.7610   19.8190 C.3   420  CAM420      0.0024
      9  C8       -14.0430   19.0610   18.4640 C.3   420  CAM420      0.0001
     10  C9       -13.9920   21.2760   19.5580 C.3   420  CAM420      0.0001
     11  C10      -11.2780   19.7460   20.0410 C.3   420  CAM420      0.0025
@<TRIPOS>BOND
     1     9     8    1
     2    10     8    1
     3     8     1    1
     4     8     5    1
     5    11     1    1
     6     1     2    1
     7     1     7    1
     8     5     4    1
     9     5     6    1
    10     2     3    1
    11     2     4    1
    12     7     6    1
