@<TRIPOS>MOLECULE
3fwi_HEM_A_1.pdb
 43 50 0 0 0
SMALL
GASTEIGER

@<TRIPOS>ATOM
      1 FE        -17.5090   22.5870   22.4330 Fe    417  HEM417      0.0000
      2  CHA      -18.3380   19.1580   22.2240 C.2   417  HEM417      0.0000
      3  CHB      -17.7250   22.8700   19.0930 C.2   417  HEM417      0.0000
      4  CHC      -16.5970   26.0100   22.6370 C.2   417  HEM417      0.0000
      5  CHD      -16.5120   22.1850   25.7140 C.2   417  HEM417      0.0000
      6  NA       -17.9660   21.2310   20.9500 N.ar  417  HEM417      0.0000
      7  C1A      -18.2830   19.8800   21.0370 C.ar  417  HEM417      0.0000
      8  C2A      -18.5060   19.3750   19.6890 C.ar  417  HEM417      0.0000
      9  C3A      -18.3130   20.4230   18.8320 C.ar  417  HEM417      0.0000
     10  C4A      -17.9850   21.6010   19.6160 C.ar  417  HEM417      0.0000
     11  CMA      -18.4250   20.4600   17.2830 C.3   417  HEM417      0.0000
     12  CAA      -18.8740   17.8940   19.3420 C.3   417  HEM417      0.0000
     13  CBA      -17.6810   16.9760   19.1380 C.3   417  HEM417      0.0000
     14  CGA      -18.1720   15.6540   18.5810 C.2   417  HEM417      0.0000
     15  O1A      -19.3710   15.4930   18.2780 O.co2 417  HEM417      0.0000
     16  O2A      -17.3990   14.6860   18.4190 O.co2 417  HEM417      0.0000
     17  NB       -17.1320   24.1460   21.1070 N.2   417  HEM417      0.0000
     18  C1B      -17.4330   24.0630   19.7640 C.2   417  HEM417      0.0000
     19  C2B      -17.3810   25.4190   19.2060 C.2   417  HEM417      0.0000
     20  C3B      -17.0550   26.2880   20.1930 C.2   417  HEM417      0.0000
     21  C4B      -16.9080   25.4990   21.3970 C.2   417  HEM417      0.0000
     22  CMB      -17.6390   25.7270   17.7120 C.3   417  HEM417      0.0000
     23  CAB      -16.8320   27.8400   20.2670 C.2   417  HEM417      0.0000
     24  CBB      -16.8340   28.7730   19.3080 C.2   417  HEM417      0.0000
     25  NC       -16.6690   23.8550   23.8980 N.ar  417  HEM417      0.0000
     26  C1C      -16.4120   25.2250   23.7790 C.ar  417  HEM417      0.0000
     27  C2C      -15.9490   25.6830   25.0490 C.ar  417  HEM417      0.0000
     28  C3C      -15.8800   24.6380   25.8770 C.ar  417  HEM417      0.0000
     29  C4C      -16.3550   23.4590   25.1900 C.ar  417  HEM417      0.0000
     30  CMC      -15.5370   27.1160   25.4290 C.3   417  HEM417      0.0000
     31  CAC      -15.4210   24.7690   27.3370 C.2   417  HEM417      0.0000
     32  CBC      -14.6920   23.8210   27.8350 C.2   417  HEM417      0.0000
     33  ND       -17.4530   20.9220   23.7500 N.2   417  HEM417      0.0000
     34  C1D      -17.0030   21.0400   25.0740 C.2   417  HEM417      0.0000
     35  C2D      -17.1180   19.7300   25.7310 C.2   417  HEM417      0.0000
     36  C3D      -17.6870   18.7800   24.6500 C.2   417  HEM417      0.0000
     37  C4D      -17.8590   19.6040   23.4520 C.2   417  HEM417      0.0000
     38  CMD      -16.7170   19.4000   27.2040 C.3   417  HEM417      0.0000
     39  CAD      -17.9550   17.2620   24.8100 C.3   417  HEM417      0.0000
     40  CBD      -19.4060   16.8950   25.0380 C.3   417  HEM417      0.0000
     41  CGD      -19.5890   15.4230   24.7200 C.2   417  HEM417      0.0000
     42  O1D      -20.5990   14.8490   25.1990 O.co2 417  HEM417      0.0000
     43  O2D      -18.7520   14.8090   24.0090 O.co2 417  HEM417      0.0000
@<TRIPOS>BOND
     1    11     9    1
     2    22    19    1
     3    15    14   ar
     4    16    14   ar
     5    14    13    1
     6     9    10   ar
     7     9     8   ar
     8     3    10    2
     9     3    18    1
    10    13    12    1
    11    19    18    1
    12    19    20    2
    13    24    23    2
    14    12     8    1
    15    10     6   ar
    16     8     7   ar
    17    18    17    2
    18    20    23    1
    19    20    21    1
    20     6     7   ar
    21     6     1    1
    22     7     2    2
    23    17    21    1
    24    17     1    1
    25    21     4    2
    26     2    37    1
    27     1    33    1
    28     1    25    1
    29     4    26    1
    30    37    33    2
    31    37    36    1
    32    33    34    1
    33    26    25   ar
    34    26    27   ar
    35    25    29   ar
    36    43    41   ar
    37    36    39    1
    38    36    35    2
    39    41    40    1
    40    41    42   ar
    41    39    40    1
    42    27    30    1
    43    27    28   ar
    44    34     5    2
    45    34    35    1
    46    29     5    1
    47    29    28   ar
    48    35    38    1
    49    28    31    1
    50    31    32    2
