@<TRIPOS>MOLECULE
3fwj_HEM_A_1.pdb
 43 50 0 0 0
SMALL
GASTEIGER

@<TRIPOS>ATOM
      1 FE        -19.2740   12.2480   -9.2950 Fe    417  HEM417      0.0000
      2  CHA      -19.9840   10.4410   -6.3910 C.2   417  HEM417      0.0000
      3  CHB      -19.6340    9.3940  -11.1670 C.2   417  HEM417      0.0000
      4  CHC      -18.4250   13.9840  -12.1160 C.2   417  HEM417      0.0000
      5  CHD      -18.1980   14.9160   -7.3530 C.2   417  HEM417      0.0000
      6  NA       -19.7160   10.3420   -8.8500 N.ar  417  HEM417      0.0000
      7  C1A      -20.0060    9.7570   -7.6130 C.ar  417  HEM417      0.0000
      8  C2A      -20.3130    8.3720   -7.8210 C.ar  417  HEM417      0.0000
      9  C3A      -20.2160    8.1100   -9.1270 C.ar  417  HEM417      0.0000
     10  C4A      -19.8450    9.3110   -9.7960 C.ar  417  HEM417      0.0000
     11  CMA      -20.4290    6.7320   -9.8260 C.3   417  HEM417      0.0000
     12  CAA      -20.7090    7.3290   -6.7280 C.3   417  HEM417      0.0000
     13  CBA      -19.4740    6.7320   -6.0280 C.3   417  HEM417      0.0000
     14  CGA      -19.8850    5.6920   -4.9980 C.2   417  HEM417      0.0000
     15  O1A      -21.1050    5.3770   -4.8120 O.co2 417  HEM417      0.0000
     16  O2A      -18.9990    5.1200   -4.3180 O.co2 417  HEM417      0.0000
     17  NB       -18.9920   11.7530  -11.2700 N.2   417  HEM417      0.0000
     18  C1B      -19.2900   10.5290  -11.8390 C.2   417  HEM417      0.0000
     19  C2B      -19.1830   10.6600  -13.2650 C.2   417  HEM417      0.0000
     20  C3B      -18.8490   11.9460  -13.5190 C.2   417  HEM417      0.0000
     21  C4B      -18.7290   12.6560  -12.2580 C.2   417  HEM417      0.0000
     22  CMB      -19.4070    9.4970  -14.2760 C.3   417  HEM417      0.0000
     23  CAB      -18.6110   12.6690  -14.8490 C.2   417  HEM417      0.0000
     24  CBB      -18.9210   12.1290  -16.0370 C.2   417  HEM417      0.0000
     25  NC       -18.4400   14.0640   -9.6390 N.ar  417  HEM417      0.0000
     26  C1C      -18.2420   14.6320  -10.9000 C.ar  417  HEM417      0.0000
     27  C2C      -17.7590   15.9750  -10.7390 C.ar  417  HEM417      0.0000
     28  C3C      -17.6710   16.2490   -9.4380 C.ar  417  HEM417      0.0000
     29  C4C      -18.1020   15.0700   -8.7140 C.ar  417  HEM417      0.0000
     30  CMC      -17.4120   16.9380  -11.9000 C.3   417  HEM417      0.0000
     31  CAC      -17.2090   17.6240   -8.9250 C.2   417  HEM417      0.0000
     32  CBC      -16.5870   17.8240   -7.7670 C.2   417  HEM417      0.0000
     33  ND       -19.1000   12.6000   -7.1900 N.2   417  HEM417      0.0000
     34  C1D      -18.6640   13.8050   -6.6730 C.2   417  HEM417      0.0000
     35  C2D      -18.8080   13.7470   -5.2410 C.2   417  HEM417      0.0000
     36  C3D      -19.3560   12.3850   -4.9230 C.2   417  HEM417      0.0000
     37  C4D      -19.4910   11.7090   -6.2000 C.2   417  HEM417      0.0000
     38  CMD      -18.4330   14.8790   -4.2470 C.3   417  HEM417      0.0000
     39  CAD      -19.6310   11.7870   -3.5130 C.3   417  HEM417      0.0000
     40  CBD      -21.1080   11.7800   -3.1250 C.3   417  HEM417      0.0000
     41  CGD      -21.2350   10.9420   -1.8770 C.2   417  HEM417      0.0000
     42  O1D      -22.2090   11.1910   -1.1390 O.co2 417  HEM417      0.0000
     43  O2D      -20.3810   10.0310   -1.6160 O.co2 417  HEM417      0.0000
@<TRIPOS>BOND
     1    24    23    2
     2    23    20    1
     3    22    19    1
     4    20    19    2
     5    20    21    1
     6    19    18    1
     7    21     4    2
     8    21    17    1
     9     4    26    1
    10    30    27    1
    11    18    17    2
    12    18     3    1
    13    17     1    1
    14     3    10    2
    15    26    27   ar
    16    26    25   ar
    17    27    28   ar
    18    11     9    1
    19    10     9   ar
    20    10     6   ar
    21    25     1    1
    22    25    29   ar
    23    28    31    1
    24    28    29   ar
    25     1     6    1
    26     1    33    1
    27     9     8   ar
    28    31    32    2
    29     6     7   ar
    30    29     5    1
    31     8     7   ar
    32     8    12    1
    33     7     2    2
    34     5    34    2
    35    33    34    1
    36    33    37    2
    37    12    13    1
    38    34    35    1
    39     2    37    1
    40    37    36    1
    41    13    14    1
    42    35    36    2
    43    35    38    1
    44    14    15   ar
    45    14    16   ar
    46    36    39    1
    47    39    40    1
    48    40    41    1
    49    41    43   ar
    50    41    42   ar
