@<TRIPOS>MOLECULE
3fwj_CAM_A_1.pdb
 11 12 0 0 0
SMALL
GASTEIGER

@<TRIPOS>ATOM
      1  C1       -14.4210    9.0980   -7.5160 C.3   420  CAM420      0.0282
      2  C2       -14.5860    8.8260   -6.0300 C.3   420  CAM420      0.1519
      3  O        -13.5530    8.4870   -5.1340 O.3   420  CAM420     -0.2232
      4  C3       -16.0560    8.9500   -5.6630 C.3   420  CAM420      0.0329
      5  C4       -16.6190    9.3170   -7.0500 C.3   420  CAM420      0.0026
      6  C5       -16.1190   10.7380   -7.2580 C.3   420  CAM420      0.0002
      7  C6       -14.6310   10.6000   -7.6160 C.3   420  CAM420      0.0024
      8  C7       -15.7460    8.5390   -8.0470 C.3   420  CAM420      0.0024
      9  C8       -15.8770    7.0400   -7.8960 C.3   420  CAM420      0.0001
     10  C9       -15.9630    8.9000   -9.5170 C.3   420  CAM420      0.0001
     11  C10      -13.1700    8.5270   -8.1940 C.3   420  CAM420      0.0025
@<TRIPOS>BOND
     1    10     8    1
     2    11     1    1
     3     8     9    1
     4     8     1    1
     5     8     5    1
     6     7     1    1
     7     7     6    1
     8     1     2    1
     9     6     5    1
    10     5     4    1
    11     2     4    1
    12     2     3    1
