@<TRIPOS>MOLECULE
3fwk_BGC_A_1.pdb
 12 12 0 0 0
SMALL
GASTEIGER

@<TRIPOS>ATOM
      1  C2        60.1700   -5.4910   -3.0870 C.3   306  BGC306      0.2434
      2  C3        58.7730   -5.3780   -3.6900 C.3   306  BGC306      0.2199
      3  C4        57.7460   -5.1480   -2.5880 C.3   306  BGC306      0.2144
      4  C5        58.1520   -3.9900   -1.6700 C.3   306  BGC306      0.1836
      5  C6        57.2370   -3.9040   -0.4490 C.3   306  BGC306      0.2142
      6  C1        60.4450   -4.2420   -2.2780 C.3   306  BGC306      0.3024
      7  O1        61.7400   -4.3500   -1.7060 O.3   306  BGC306     -0.1869
      8  O2        61.1920   -5.6080   -4.0930 O.3   306  BGC306     -0.2148
      9  O3        58.4640   -6.6130   -4.3640 O.3   306  BGC306     -0.2174
     10  O4        56.4940   -4.8000   -3.1700 O.3   306  BGC306     -0.2176
     11  O5        59.5010   -4.1710   -1.2100 O.3   306  BGC306     -0.3236
     12  O6        57.3930   -5.0860    0.3480 O.3   306  BGC306     -0.2176
@<TRIPOS>BOND
     1     9     2    1
     2     8     1    1
     3     2     1    1
     4     2     3    1
     5    10     3    1
     6     1     6    1
     7     3     4    1
     8     6     7    1
     9     6    11    1
    10     4    11    1
    11     4     5    1
    12     5    12    1
