@<TRIPOS>MOLECULE
3fwn_ATR_B_1.pdb
 31 33 0 0 0
SMALL
GASTEIGER

@<TRIPOS>ATOM
      1  PB       -10.2720   27.9910   34.6190 P.3   2000  ATR2000     0.5373
      2  O1B      -10.6050   27.7500   36.1750 O.3   2000  ATR2000    -0.1143
      3  O2B      -10.7980   26.8630   33.7630 O.2   2000  ATR2000    -0.2221
      4  O3B       -8.7880   28.3050   34.5720 O.3   2000  ATR2000    -0.1143
      5  PA       -10.9240   30.5570   33.1670 P.3   2000  ATR2000     0.2231
      6  O1A       -9.4940   30.9800   33.2770 O.3   2000  ATR2000    -0.4370
      7  O2A      -11.4700   30.1330   31.8530 O.2   2000  ATR2000    -0.5169
      8  O3A      -11.0700   29.3620   34.2530 O.3   2000  ATR2000    -0.2261
      9  O5'      -11.7660   31.7590   33.8440 O.3   2000  ATR2000    -0.3111
     10  C5'      -11.5370   32.1920   35.2390 C.3   2000  ATR2000     0.1813
     11  C4'      -12.5730   33.2330   35.5570 C.3   2000  ATR2000     0.1820
     12  O4'      -12.4430   34.3300   34.6140 O.3   2000  ATR2000    -0.3136
     13  C3'      -13.9800   32.6860   35.3670 C.3   2000  ATR2000     0.2157
     14  O3'      -14.7700   33.1770   36.4840 O.3   2000  ATR2000    -0.2175
     15  C2'      -14.4050   33.3270   34.0770 C.3   2000  ATR2000     0.2314
     16  O2'      -15.8010   33.4830   33.9250 O.3   2000  ATR2000    -0.2630
     17  P2'      -16.7900   32.3240   33.3250 P.3   2000  ATR2000     0.5328
     18  O1P      -17.9740   33.1070   32.8020 O.3   2000  ATR2000    -0.1145
     19  O2P      -15.9200   31.6940   32.1820 O.2   2000  ATR2000    -0.2224
     20  O3P      -17.0100   31.3710   34.4210 O.3   2000  ATR2000    -0.1145
     21  C1'      -13.7330   34.6700   34.1580 C.3   2000  ATR2000     0.3158
     22  N9       -13.7150   35.3300   32.8710 N.pl3 2000  ATR2000    -0.1439
     23  C8       -13.0450   34.9310   31.7030 C.3   2000  ATR2000     0.3377
     24  N7       -13.2520   35.7550   30.7080 N.2   2000  ATR2000    -0.2095
     25  C5       -14.0810   36.7150   31.2140 C.2   2000  ATR2000     0.2526
     26  C6       -14.6660   37.8740   30.6090 C.2   2000  ATR2000     0.4393
     27  N6       -14.4780   38.2230   29.3210 N.pl3 2000  ATR2000     0.2180
     28  N1       -15.4460   38.6330   31.4380 N.2   2000  ATR2000     0.0021
     29  C2       -15.6770   38.3210   32.7300 C.3   2000  ATR2000     0.5254
     30  N3       -15.1930   37.2430   33.3920 N.2   2000  ATR2000    -0.0055
     31  C4       -14.3720   36.4610   32.5550 C.2   2000  ATR2000     0.3518
@<TRIPOS>BOND
     1    27    26    1
     2    26    25    1
     3    26    28    2
     4    24    25    2
     5    24    23    1
     6    25    31    1
     7    28    29    1
     8    23    22    1
     9     7     5    2
    10    19    17    2
    11    31    22    1
    12    31    30    2
    13    29    30    1
    14    18    17    1
    15    22    21    1
    16     5     6    1
    17     5     9    1
    18     5     8    1
    19    17    16    1
    20    17    20    1
    21     3     1    2
    22     9    10    1
    23    16    15    1
    24    15    21    1
    25    15    13    1
    26    21    12    1
    27     8     1    1
    28     4     1    1
    29    12    11    1
    30     1     2    1
    31    10    11    1
    32    13    11    1
    33    13    14    1
