@<TRIPOS>MOLECULE
3fwn_6PG_A_1.pdb
 17 16 0 0 0
SMALL
GASTEIGER

@<TRIPOS>ATOM
      1  C1        25.6160   36.3400   11.2820 C.2   2002  6PG2002     0.3973
      2  C2        25.8790   36.7650   12.7090 C.3   2002  6PG2002     0.2865
      3  C3        25.4730   38.2380   12.7570 C.3   2002  6PG2002     0.2260
      4  C4        26.0650   39.0820   13.9210 C.3   2002  6PG2002     0.2179
      5  C5        25.3240   38.9240   15.2700 C.3   2002  6PG2002     0.2147
      6  C6        25.9040   37.8170   16.2030 C.3   2002  6PG2002     0.1892
      7  O1A       24.7510   35.5140   11.0130 O.co2 2002  6PG2002    -0.2427
      8  O1        26.3460   36.8780   10.3370 O.co2 2002  6PG2002    -0.2427
      9  O2        25.0620   35.8940   13.5230 O.3   2002  6PG2002    -0.2080
     10  O3        24.0430   38.3830   12.7410 O.3   2002  6PG2002    -0.2169
     11  O4        27.5320   38.8640   14.0420 O.3   2002  6PG2002    -0.2175
     12  O5        25.4100   40.2030   15.9740 O.3   2002  6PG2002    -0.2176
     13  O6        24.9240   37.6530   17.2570 O.3   2002  6PG2002    -0.2674
     14  P         25.4180   38.3310   18.6840 P.3   2002  6PG2002     0.5327
     15  O1P       26.0350   39.6720   18.4400 O.2   2002  6PG2002    -0.2224
     16  O2P       24.0710   38.4720   19.4980 O.3   2002  6PG2002    -0.1145
     17  O3P       26.5330   37.3310   19.3700 O.3   2002  6PG2002    -0.1145
@<TRIPOS>BOND
     1     8     1   ar
     2     7     1   ar
     3     1     2    1
     4     2     3    1
     5     2     9    1
     6    10     3    1
     7     3     4    1
     8     4    11    1
     9     4     5    1
    10     5    12    1
    11     5     6    1
    12     6    13    1
    13    13    14    1
    14    15    14    2
    15    14    17    1
    16    14    16    1
