@<TRIPOS>MOLECULE
3fwp_ANU_B_1.pdb
 16 18 0 0 0
SMALL
GASTEIGER

@<TRIPOS>ATOM
      1  O3'        8.0640   -1.0550   93.0050 O.3   7016  ANU7016    -0.2164
      2  C3'        9.3650   -0.8040   92.5300 C.3   7016  ANU7016     0.2255
      3  C2'        9.7260    0.5210   92.2460 C.3   7016  ANU7016     0.2492
      4  O2        10.4050    0.4200   90.9940 O.2   7016  ANU7016    -0.4366
      5  C2        11.7300    0.8030   91.1750 C.2   7016  ANU7016     0.3591
      6  N3        12.8200    0.9630   90.2930 N.2   7016  ANU7016    -0.2807
      7  C4        14.0270    1.3380   90.7820 C.1   7016  ANU7016     0.2105
      8  O4        15.1160    1.5020   89.8870 O.2   7016  ANU7016    -0.2091
      9  C5        14.2280    1.5980   92.2930 C.2   7016  ANU7016     0.1230
     10  C6        13.1320    1.4290   93.1710 C.2   7016  ANU7016     0.0859
     11  N1        11.9210    1.0500   92.6910 N.pl3 7016  ANU7016    -0.2037
     12  C1'       10.8070    0.8350   93.2830 C.3   7016  ANU7016     0.2442
     13  O4'       10.9960   -0.3370   94.0550 O.3   7016  ANU7016    -0.3314
     14  C4'       10.4880   -1.3730   93.3430 C.3   7016  ANU7016     0.1840
     15  C5'       11.4510   -2.3610   92.7050 C.3   7016  ANU7016     0.2142
     16  O5'       12.7400   -2.4010   93.2880 O.3   7016  ANU7016    -0.2176
@<TRIPOS>BOND
     1     8     7    2
     2     6     7    2
     3     6     5    2
     4     7     9    1
     5     4     5    1
     6     4     3    1
     7     5    11    1
     8     3     2    1
     9     3    12    1
    10     9    10    2
    11     2     1    1
    12     2    14    1
    13    11    10    1
    14    11    12    1
    15    15    16    1
    16    15    14    1
    17    12    13    1
    18    14    13    1
