@<TRIPOS>MOLECULE
3fwr_ADP_A_1.pdb
 27 29 0 0 0
SMALL
GASTEIGER

@<TRIPOS>ATOM
      1  PB         0.9360   44.2640   33.2620 P.3   221  ADP221      0.5373
      2  O1B       -0.3550   44.4580   32.5590 O.3   221  ADP221     -0.1143
      3  O2B        2.1830   44.8960   32.3530 O.2   221  ADP221     -0.2221
      4  O3B        1.0580   44.8750   34.8090 O.3   221  ADP221     -0.1143
      5  PA         0.8520   41.4290   33.1920 P.3   221  ADP221      0.2231
      6  O1A        0.6040   40.7280   34.4610 O.3   221  ADP221     -0.4370
      7  O2A        1.8100   40.8780   32.2190 O.2   221  ADP221     -0.5169
      8  O3A        1.3620   42.7770   33.7070 O.3   221  ADP221     -0.2261
      9  O5'       -0.3980   41.8340   32.3490 O.3   221  ADP221     -0.3111
     10  C5'       -0.5060   41.2390   31.0420 C.3   221  ADP221      0.1813
     11  C4'       -1.9180   41.3490   30.4430 C.3   221  ADP221      0.1821
     12  O4'       -2.4670   40.0340   30.2920 O.3   221  ADP221     -0.3135
     13  C3'       -2.9700   42.1210   31.2280 C.3   221  ADP221      0.2184
     14  O3'       -3.9920   42.5150   30.3210 O.3   221  ADP221     -0.2174
     15  C2'       -3.5260   41.0520   32.1590 C.3   221  ADP221      0.2570
     16  O2'       -4.8790   41.3450   32.5610 O.3   221  ADP221     -0.2130
     17  C1'       -3.4780   39.7980   31.2770 C.3   221  ADP221      0.3186
     18  N9        -3.0820   38.6830   32.1880 N.pl3 221  ADP221     -0.1439
     19  C8        -2.3540   38.7940   33.3280 C.3   221  ADP221      0.3377
     20  N7        -2.1990   37.5980   33.9140 N.2   221  ADP221     -0.2095
     21  C5        -2.8370   36.7280   33.1170 C.2   221  ADP221      0.2526
     22  C6        -3.0290   35.3640   33.1810 C.2   221  ADP221      0.4393
     23  N6        -2.5010   34.6930   34.2120 N.pl3 221  ADP221      0.2180
     24  N1        -3.7390   34.7550   32.1940 N.2   221  ADP221      0.0021
     25  C2        -4.2540   35.4260   31.1750 C.3   221  ADP221      0.5254
     26  N3        -4.0770   36.7250   31.0890 N.2   221  ADP221     -0.0055
     27  C4        -3.3860   37.3980   32.0290 C.2   221  ADP221      0.3518
@<TRIPOS>BOND
     1    12    11    1
     2    12    17    1
     3    14    13    1
     4    11    10    1
     5    11    13    1
     6    10     9    1
     7    26    25    1
     8    26    27    2
     9    25    24    1
    10    13    15    1
    11    17    15    1
    12    17    18    1
    13    27    18    1
    14    27    21    1
    15    15    16    1
    16    18    19    1
    17    24    22    2
    18     7     5    2
    19     9     5    1
    20     3     1    2
    21     2     1    1
    22    21    22    1
    23    21    20    2
    24    22    23    1
    25     5     8    1
    26     5     6    1
    27     1     8    1
    28     1     4    1
    29    19    20    1
