@<TRIPOS>MOLECULE
3fws_ANP_A_1.pdb
 31 33 0 0 0
SMALL
GASTEIGER

@<TRIPOS>ATOM
      1  PG         3.2690   43.4710   30.9920 P.3   221  ANP221      0.4884
      2  O1G        4.2840   43.0640   32.1580 O.3   221  ANP221     -0.1240
      3  O2G        2.7450   42.2320   30.2110 O.3   221  ANP221     -0.1240
      4  O3G        4.0670   44.4010   29.8220 O.2   221  ANP221     -0.2331
      5  PB         0.8260   44.4790   32.6760 P.3   221  ANP221      0.4669
      6  O1B        1.0370   45.3760   33.8260 O.3   221  ANP221     -0.1253
      7  O2B       -0.4960   44.6370   32.1050 O.2   221  ANP221     -0.2351
      8  N3B        2.0230   44.5630   31.5280 N.3   221  ANP221     -0.0163
      9  PA         0.7610   41.5640   32.8500 P.3   221  ANP221      0.2220
     10  O1A        1.6970   41.5330   31.7150 O.2   221  ANP221     -0.5170
     11  O2A        0.9080   40.5140   33.8940 O.3   221  ANP221     -0.4370
     12  O3A        0.7940   42.9840   33.5360 O.3   221  ANP221     -0.2360
     13  O5'       -0.6180   41.4830   32.1980 O.3   221  ANP221     -0.3111
     14  C5'       -0.7590   41.4750   30.7050 C.3   221  ANP221      0.1813
     15  C4'       -2.2850   41.4350   30.3440 C.3   221  ANP221      0.1821
     16  O4'       -2.6240   40.0470   30.5660 O.3   221  ANP221     -0.3135
     17  C3'       -3.3090   42.2290   31.2170 C.3   221  ANP221      0.2184
     18  O3'       -4.4430   42.5990   30.4330 O.3   221  ANP221     -0.2174
     19  C2'       -3.7540   41.1540   32.2650 C.3   221  ANP221      0.2570
     20  O2'       -5.0200   41.3520   32.9790 O.3   221  ANP221     -0.2130
     21  C1'       -3.7300   39.8590   31.4470 C.3   221  ANP221      0.3186
     22  N9        -3.2350   38.7210   32.3570 N.pl3 221  ANP221     -0.1439
     23  C8        -2.3890   38.8460   33.4510 C.3   221  ANP221      0.3377
     24  N7        -2.1310   37.6470   33.9810 N.2   221  ANP221     -0.2095
     25  C5        -2.8680   36.7620   33.2650 C.2   221  ANP221      0.2526
     26  C6        -3.0190   35.4020   33.2880 C.2   221  ANP221      0.4393
     27  N6        -2.4550   34.6340   34.2360 N.pl3 221  ANP221      0.2180
     28  N1        -3.7390   34.8170   32.3250 N.2   221  ANP221      0.0021
     29  C2        -4.3880   35.5030   31.3940 C.3   221  ANP221      0.5254
     30  N3        -4.2840   36.7940   31.3100 N.2   221  ANP221     -0.0055
     31  C4        -3.4950   37.4380   32.1990 C.2   221  ANP221      0.3518
@<TRIPOS>BOND
     1     4     1    2
     2     3     1    1
     3    15    16    1
     4    15    14    1
     5    15    17    1
     6    18    17    1
     7    16    21    1
     8    14    13    1
     9     1     8    1
    10     1     2    1
    11    17    19    1
    12    30    29    1
    13    30    31    2
    14    29    28    1
    15    21    19    1
    16    21    22    1
    17     8     5    1
    18    10     9    2
    19     7     5    2
    20    13     9    1
    21    31    22    1
    22    31    25    1
    23    19    20    1
    24    28    26    2
    25    22    23    1
    26     5    12    1
    27     5     6    1
    28     9    12    1
    29     9    11    1
    30    25    26    1
    31    25    24    2
    32    26    27    1
    33    23    24    1
