@<TRIPOS>MOLECULE
3fwv_III_C_1.pdb
 48 48 0 0 0
SMALL
GASTEIGER

@<TRIPOS>ATOM
      1  C        -18.9910    2.9300    0.2240 C.2     0  ACE0        0.2423
      2  O        -19.0760    1.9420    0.9450 O.2     0  ACE0       -0.2733
      3  CH3      -17.8840    3.0750   -0.7760 C.3     0  ACE0        0.0964
      4  N        -20.0210    3.7590    0.1460 N.am    1  MET1       -0.1977
      5  CA       -19.9710    5.0560   -0.5390 C.3     1  MET1        0.1736
      6  C        -19.1620    6.0740    0.2420 C.2     1  MET1        0.2616
      7  O        -18.9870    5.9810    1.4630 O.2     1  MET1       -0.2715
      8  CB       -21.3860    5.6160   -0.7640 C.3     1  MET1        0.0427
      9  CG       -22.3430    4.6730   -1.5080 C.3     1  MET1        0.0599
     10  SD       -24.0190    5.3480   -1.6230 S.3     1  MET1       -0.1393
     11  CE       -23.8410    6.5320   -2.9630 C.3     1  MET1        0.0692
     12  N        -18.6680    7.0380   -0.5110 N.am    2  GLU2       -0.1963
     13  CA       -18.0170    8.2080    0.0460 C.3     2  GLU2        0.1733
     14  C        -18.9820    8.8930    1.0040 C.2     2  GLU2        0.2616
     15  O        -20.1740    9.0360    0.7190 O.2     2  GLU2       -0.2715
     16  CB       -17.6100    9.1760   -1.0740 C.3     2  GLU2        0.0429
     17  CG       -16.5370    8.6280   -1.9930 C.3     2  GLU2        0.1163
     18  CD       -15.2280    8.3840   -1.2760 C.2     2  GLU2        0.3649
     19  OE1      -14.5890    9.3600   -0.8490 O.co2   2  GLU2       -0.2457
     20  OE2      -14.8330    7.2090   -1.1460 O.co2   2  GLU2       -0.2457
     21  N        -18.4550    9.3290    2.1350 N.am    3  GLU3       -0.1963
     22  CA       -19.2710   10.0350    3.1290 C.3     3  GLU3        0.1733
     23  C        -19.6470   11.4170    2.6770 C.2     3  GLU3        0.2616
     24  O        -18.8270   12.1610    2.1350 O.2     3  GLU3       -0.2715
     25  CB       -18.5470   10.1790    4.4690 C.3     3  GLU3        0.0429
     26  CG       -18.2110    8.8850    5.1330 C.3     3  GLU3        0.1163
     27  CD       -17.6810    9.1100    6.5370 C.2     3  GLU3        0.3649
     28  OE1      -17.9860   10.1870    7.1140 O.co2   3  GLU3       -0.2457
     29  OE2      -16.9640    8.2150    7.0480 O.co2   3  GLU3       -0.2457
     30  N        -20.8900   11.7560    2.9670 N.am    4  VAL4       -0.1963
     31  CA       -21.3820   13.1190    2.8190 C.3     4  VAL4        0.1727
     32  C        -21.6230   13.7260    4.1990 C.2     4  VAL4        0.2617
     33  O        -21.9670   13.0360    5.1550 O.2     4  VAL4       -0.2715
     34  CB       -22.6610   13.1970    1.9680 C.3     4  VAL4        0.0290
     35  CG1      -22.3450   12.8300    0.5110 C.3     4  VAL4        0.0023
     36  CG2      -23.7710   12.3130    2.5580 C.3     4  VAL4        0.0023
     37  N        -21.4070   15.0310    4.2840 N.am    5  PHE5       -0.1938
     38  CA       -21.4550   15.7350    5.5590 C.3     5  PHE5        0.2021
     39  C        -22.5830   16.7600    5.5820 C.2     5  PHE5        0.3845
     40  O        -22.7720   17.4420    6.5950 O.co2   5  PHE5       -0.2437
     41  CB       -20.0900   16.3880    5.8210 C.3     5  PHE5        0.0596
     42  CG       -18.9340   15.4200    5.6890 C.ar    5  PHE5       -0.0199
     43  CD1      -18.6010   14.5640    6.7270 C.ar    5  PHE5       -0.0042
     44  CD2      -18.2040   15.3470    4.5160 C.ar    5  PHE5       -0.0042
     45  CE1      -17.5530   13.6670    6.5940 C.ar    5  PHE5       -0.0003
     46  CE2      -17.1570   14.4560    4.3840 C.ar    5  PHE5       -0.0003
     47  CZ       -16.8360   13.6170    5.4190 C.ar    5  PHE5       -0.0000
     48  OXT      -23.3250   16.9010    4.5950 O.co2   5  PHE5       -0.2437
@<TRIPOS>BOND
     1    11    10    1
     2    17    18    1
     3    17    16    1
     4    10     9    1
     5     9     8    1
     6    18    20   ar
     7    18    19   ar
     8    16    13    1
     9     3     1    1
    10     8     5    1
    11     5     4    1
    12     5     6    1
    13    12    13    1
    14    12     6   am
    15    13    14    1
    16     4     1   am
    17     1     2    2
    18     6     7    2
    19    35    34    1
    20    15    14    2
    21    14    21   am
    22    34    36    1
    23    34    31    1
    24    21    22    1
    25    24    23    2
    26    23    30   am
    27    23    22    1
    28    31    30    1
    29    31    32    1
    30    22    25    1
    31    32    37   am
    32    32    33    2
    33    37    38    1
    34    46    44   ar
    35    46    47   ar
    36    25    26    1
    37    44    42   ar
    38    48    39   ar
    39    26    27    1
    40    47    45   ar
    41    38    39    1
    42    38    41    1
    43    39    40   ar
    44    42    41    1
    45    42    43   ar
    46    27    29   ar
    47    27    28   ar
    48    45    43   ar
