@<TRIPOS>MOLECULE
3fwy_ADP_A_1.pdb
 27 29 0 0 0
SMALL
GASTEIGER

@<TRIPOS>ATOM
      1  PB         0.5080   49.0240   70.6760 P.3   501  ADP501      0.5373
      2  O1B       -0.2050   50.3510   70.4650 O.3   501  ADP501     -0.1143
      3  O2B        1.4860   49.0440   71.8060 O.3   501  ADP501     -0.1143
      4  O3B        1.0220   48.4120   69.4150 O.2   501  ADP501     -0.2221
      5  PA        -1.1550   46.5940   70.7020 P.3   501  ADP501      0.2231
      6  O1A       -0.0240   45.6060   70.8610 O.3   501  ADP501     -0.4370
      7  O2A       -1.7830   46.6210   69.3370 O.2   501  ADP501     -0.5169
      8  O3A       -0.7000   48.0670   71.2140 O.3   501  ADP501     -0.2261
      9  O5'       -2.3240   46.2440   71.7450 O.3   501  ADP501     -0.3111
     10  C5'       -2.0530   46.1300   73.1420 C.3   501  ADP501      0.1813
     11  C4'       -2.8820   44.9850   73.7140 C.3   501  ADP501      0.1821
     12  O4'       -4.2790   45.2920   73.5740 O.3   501  ADP501     -0.3135
     13  C3'       -2.6710   43.6590   73.0070 C.3   501  ADP501      0.2184
     14  O3'       -2.6840   42.6010   73.9960 O.3   501  ADP501     -0.2174
     15  C2'       -3.8420   43.5550   72.0570 C.3   501  ADP501      0.2570
     16  O2'       -4.2360   42.2190   71.6950 O.3   501  ADP501     -0.2130
     17  C1'       -4.9370   44.2730   72.8240 C.3   501  ADP501      0.3186
     18  N9        -5.9280   44.9640   71.9750 N.pl3 501  ADP501     -0.1439
     19  C8        -5.6560   46.0030   71.1330 C.3   501  ADP501      0.3377
     20  N7        -6.7910   46.4310   70.5230 N.2   501  ADP501     -0.2095
     21  C5        -7.8070   45.6780   71.0060 C.2   501  ADP501      0.2526
     22  C6        -9.2500   45.6040   70.7720 C.2   501  ADP501      0.4393
     23  N6        -9.8470   46.4380   69.9050 N.pl3 501  ADP501      0.2180
     24  N1        -9.9580   44.6720   71.4430 N.2   501  ADP501      0.0021
     25  C2        -9.3660   43.8320   72.3090 C.3   501  ADP501      0.5254
     26  N3        -8.0570   43.8270   72.5700 N.2   501  ADP501     -0.0055
     27  C4        -7.2370   44.7210   71.9490 C.2   501  ADP501      0.3518
@<TRIPOS>BOND
     1     7     5    2
     2     4     1    2
     3    23    22    1
     4     2     1    1
     5    20    21    2
     6    20    19    1
     7     1     8    1
     8     1     3    1
     9     5     6    1
    10     5     8    1
    11     5     9    1
    12    22    21    1
    13    22    24    2
    14    21    27    1
    15    19    18    1
    16    24    25    1
    17    16    15    1
    18     9    10    1
    19    27    18    1
    20    27    26    2
    21    18    17    1
    22    15    17    1
    23    15    13    1
    24    25    26    1
    25    17    12    1
    26    13    11    1
    27    13    14    1
    28    10    11    1
    29    12    11    1
