@<TRIPOS>MOLECULE
3fwz_AMP_A_1.pdb
 23 25 0 0 0
SMALL
GASTEIGER

@<TRIPOS>ATOM
      1  P         23.4590   25.8510   56.7070 P.3   601  AMP601      0.5327
      2  O1P       24.8000   25.9650   55.9930 O.2   601  AMP601     -0.2224
      3  O2P       23.2200   24.5920   57.5120 O.3   601  AMP601     -0.1145
      4  O3P       22.9920   27.0720   57.4430 O.3   601  AMP601     -0.1145
      5  O5'       22.2840   25.7810   55.5840 O.3   601  AMP601     -0.2675
      6  C5'       22.1700   24.6900   54.6740 C.3   601  AMP601      0.1860
      7  C4'       21.3910   25.2190   53.4560 C.3   601  AMP601      0.1823
      8  O4'       21.2650   24.1230   52.5350 O.3   601  AMP601     -0.3135
      9  C3'       19.9520   25.6660   53.7810 C.3   601  AMP601      0.2184
     10  O3'       19.7690   27.0260   53.3410 O.3   601  AMP601     -0.2174
     11  C2'       19.0470   24.7190   52.9890 C.3   601  AMP601      0.2570
     12  O2'       17.9650   25.3760   52.3280 O.3   601  AMP601     -0.2130
     13  C1'       19.9620   24.1310   51.9420 C.3   601  AMP601      0.3186
     14  N9        19.7030   22.7250   51.5450 N.pl3 601  AMP601     -0.1439
     15  C8        19.5990   21.6710   52.3870 C.3   601  AMP601      0.3377
     16  N7        19.4070   20.5240   51.6920 N.2   601  AMP601     -0.2095
     17  C5        19.3720   20.8760   50.3820 C.2   601  AMP601      0.2526
     18  C6        19.2190   20.1510   49.1100 C.2   601  AMP601      0.4393
     19  N6        19.0430   18.8150   49.1550 N.pl3 601  AMP601      0.2180
     20  N1        19.2570   20.8710   47.9640 N.2   601  AMP601      0.0021
     21  C2        19.4600   22.2020   47.9370 C.3   601  AMP601      0.5254
     22  N3        19.6060   22.9320   49.0690 N.2   601  AMP601     -0.0055
     23  C4        19.5720   22.3160   50.2930 C.2   601  AMP601      0.3518
@<TRIPOS>BOND
     1    21    20    1
     2    21    22    1
     3    20    18    2
     4    22    23    2
     5    18    19    1
     6    18    17    1
     7    23    17    1
     8    23    14    1
     9    17    16    2
    10    14    13    1
    11    14    15    1
    12    16    15    1
    13    13     8    1
    14    13    11    1
    15    12    11    1
    16     8     7    1
    17    11     9    1
    18    10     9    1
    19     7     9    1
    20     7     6    1
    21     6     5    1
    22     5     1    1
    23     2     1    2
    24     1     4    1
    25     1     3    1
