@<TRIPOS>MOLECULE
3fx2_FMN_A_1.pdb
 31 33 0 0 0
SMALL
GASTEIGER

@<TRIPOS>ATOM
      1  N1        25.2820   13.4550   83.0250 N.2   149  FMN149     -0.2890
      2  C2        24.1940   14.0990   83.4240 C.1   149  FMN149      0.3669
      3  O2        24.2800   14.5000   84.6570 O.2   149  FMN149     -0.1744
      4  N3        23.0730   14.1840   82.6580 N.2   149  FMN149     -0.2300
      5  C4        22.9990   13.6320   81.3410 C.1   149  FMN149      0.2513
      6  O4        21.9650   13.7290   80.6260 O.2   149  FMN149     -0.2057
      7  C4A       24.0520   12.9680   80.8100 C.2   149  FMN149      0.2700
      8  N5        24.1880   12.3960   79.6670 N.2   149  FMN149     -0.3878
      9  C5A       25.2930   11.7730   79.2690 C.2   149  FMN149      0.1320
     10  C6        25.2340   11.2940   77.9120 C.2   149  FMN149      0.0250
     11  C7        26.3680   10.6380   77.4410 C.2   149  FMN149     -0.0238
     12  C7M       26.5110   10.2450   75.9290 C.3   149  FMN149      0.0308
     13  C8        27.5280   10.4930   78.2070 C.2   149  FMN149     -0.0280
     14  C8M       28.7790    9.8260   77.5910 C.3   149  FMN149      0.0304
     15  C9        27.6110   10.9140   79.5720 C.2   149  FMN149     -0.0041
     16  C9A       26.4560   11.5840   80.0580 C.3   149  FMN149      0.1497
     17  N10       26.3290   12.2610   81.3820 N.pl3 149  FMN149     -0.2691
     18  C10       25.2310   12.8830   81.8260 C.2   149  FMN149      0.2416
     19  C1'       27.6280   11.9340   82.0230 C.3   149  FMN149      0.1294
     20  C2'       27.7030   10.8900   83.0870 C.3   149  FMN149      0.2044
     21  O2'       26.6390   10.3860   83.7920 O.3   149  FMN149     -0.2185
     22  C3'       29.0700   10.5290   83.5470 C.3   149  FMN149      0.2164
     23  O3'       29.7590    9.7840   82.5090 O.3   149  FMN149     -0.2175
     24  C4'       28.9510    9.5190   84.8210 C.3   149  FMN149      0.2147
     25  O4'       30.3530    9.7150   85.3020 O.3   149  FMN149     -0.2176
     26  C5'       28.8740    8.0650   84.4750 C.3   149  FMN149      0.1892
     27  O5'       28.6480    7.1660   85.4880 O.3   149  FMN149     -0.2674
     28  P         28.7580    5.6680   85.6090 P.3   149  FMN149      0.5327
     29  O1P       27.5290    4.9020   84.7860 O.2   149  FMN149     -0.2224
     30  O2P       28.4250    5.0860   87.0660 O.3   149  FMN149     -0.1145
     31  O3P       29.9910    5.0220   85.2880 O.3   149  FMN149     -0.1145
@<TRIPOS>BOND
     1    12    11    1
     2    11    10    2
     3    11    13    1
     4    14    13    1
     5    10     9    1
     6    13    15    2
     7     9     8    2
     8     9    16    1
     9    15    16    1
    10     8     7    2
    11    16    17    1
    12     6     5    2
    13     7     5    1
    14     7    18    1
    15     5     4    2
    16    17    18    1
    17    17    19    1
    18    18     1    2
    19    19    20    1
    20    23    22    1
    21     4     2    2
    22     1     2    2
    23    20    22    1
    24    20    21    1
    25     2     3    2
    26    22    24    1
    27    26    24    1
    28    26    27    1
    29    29    28    2
    30    24    25    1
    31    31    28    1
    32    27    28    1
    33    28    30    1
