@<TRIPOS>MOLECULE
3fx4_NAP_A_1.pdb
 48 52 0 0 0
SMALL
GASTEIGER

@<TRIPOS>ATOM
      1  PA        -0.2800  -26.9720  -16.2600 P.3   350  NAP350      0.2189
      2  O1A       -1.7430  -26.7560  -16.3640 O.3   350  NAP350     -0.4371
      3  O2A        0.5630  -25.8180  -16.6260 O.2   350  NAP350     -0.5170
      4  O5B        0.1430  -28.2790  -17.1120 O.3   350  NAP350     -0.3112
      5  C5B        1.4650  -28.7890  -17.0740 C.3   350  NAP350      0.1813
      6  C4B        1.4290  -30.1100  -17.8520 C.3   350  NAP350      0.1820
      7  O4B        0.9250  -29.9380  -19.1770 O.3   350  NAP350     -0.3136
      8  C3B        2.7890  -30.7680  -18.0100 C.3   350  NAP350      0.2157
      9  O3B        2.5100  -32.1590  -17.9810 O.3   350  NAP350     -0.2175
     10  C2B        3.2330  -30.3080  -19.3880 C.3   350  NAP350      0.2314
     11  O2B        4.0580  -31.2500  -20.0370 O.3   350  NAP350     -0.2630
     12  C1B        1.9250  -30.2250  -20.1420 C.3   350  NAP350      0.3158
     13  N9A        1.9190  -29.2190  -21.2450 N.pl3 350  NAP350     -0.1439
     14  C8A        2.4770  -27.9640  -21.2740 C.3   350  NAP350      0.3377
     15  N7A        2.2140  -27.3810  -22.4690 N.2   350  NAP350     -0.2095
     16  C5A        1.4710  -28.2470  -23.1960 C.2   350  NAP350      0.2526
     17  C6A        0.9390  -28.1900  -24.4750 C.2   350  NAP350      0.4393
     18  N6A        1.1190  -27.0940  -25.2080 N.pl3 350  NAP350      0.2180
     19  N1A        0.2050  -29.2660  -24.9840 N.2   350  NAP350      0.0021
     20  C2A        0.0180  -30.3970  -24.2160 C.3   350  NAP350      0.5254
     21  N3A        0.5650  -30.4630  -22.9500 N.2   350  NAP350     -0.0055
     22  C4A        1.2740  -29.4030  -22.4420 C.2   350  NAP350      0.3518
     23  O3         0.0040  -27.4630  -14.7590 O.3   350  NAP350     -0.2703
     24  PN         0.7680  -26.8570  -13.4760 P.3   350  NAP350      0.2189
     25  O1N        2.2290  -27.0450  -13.5730 O.2   350  NAP350     -0.5170
     26  O2N        0.0660  -27.4660  -12.3100 O.3   350  NAP350     -0.4371
     27  O5D        0.4000  -25.2810  -13.4660 O.3   350  NAP350     -0.3112
     28  C5D        1.2510  -24.3230  -14.0370 C.3   350  NAP350      0.1813
     29  C4D        2.0670  -23.5740  -12.9920 C.3   350  NAP350      0.1799
     30  O4D        1.2300  -22.9580  -12.0270 O.3   350  NAP350     -0.3327
     31  C3D        3.0100  -24.4300  -12.1500 C.3   350  NAP350      0.2158
     32  O3D        4.2030  -24.7680  -12.8020 O.3   350  NAP350     -0.2175
     33  C2D        3.2530  -23.5150  -10.9820 C.3   350  NAP350      0.2309
     34  O2D        4.1810  -22.5490  -11.4010 O.3   350  NAP350     -0.2158
     35  C1D        1.8980  -22.8490  -10.7810 C.3   350  NAP350      0.2263
     36  N1N        1.1550  -23.4910   -9.6630 N.pl3 350  NAP350     -0.2787
     37  C2N        0.9900  -22.7790   -8.4920 C.3   350  NAP350      0.1244
     38  C3N        0.3110  -23.3470   -7.4150 C.2   350  NAP350      0.0544
     39  C7N       -0.1060  -22.5470   -6.2250 C.2   350  NAP350      0.2818
     40  O7N       -0.6060  -23.2710   -5.1330 O.2   350  NAP350     -0.2670
     41  N7N       -0.0350  -21.2160   -6.2280 N.am  350  NAP350     -0.0839
     42  C4N       -0.1930  -24.6440   -7.5290 C.2   350  NAP350      0.0033
     43  C5N       -0.0310  -25.3460   -8.7230 C.2   350  NAP350      0.0157
     44  C6N        0.6390  -24.7470   -9.7840 C.2   350  NAP350      0.0633
     45  P2B        5.6210  -31.0010  -20.3500 P.3   350  NAP350      0.5328
     46  O1X        6.2130  -30.0580  -19.3300 O.3   350  NAP350     -0.1145
     47  O2X        6.2570  -32.3690  -20.2450 O.3   350  NAP350     -0.1145
     48  O3X        5.7980  -30.3670  -21.7180 O.2   350  NAP350     -0.2224
@<TRIPOS>BOND
     1    18    17    1
     2    19    17    2
     3    19    20    1
     4    17    16    1
     5    20    21    1
     6    16    15    2
     7    16    22    1
     8    21    22    2
     9    15    14    1
    10    22    13    1
    11    48    45    2
    12    14    13    1
    13    13    12    1
    14    45    47    1
    15    45    11    1
    16    45    46    1
    17    12    10    1
    18    12     7    1
    19    11    10    1
    20    10     8    1
    21     7     6    1
    22     8     9    1
    23     8     6    1
    24     6     5    1
    25     4     5    1
    26     4     1    1
    27     3     1    2
    28     2     1    1
    29     1    23    1
    30    23    24    1
    31    28    27    1
    32    28    29    1
    33    25    24    2
    34    24    27    1
    35    24    26    1
    36    29    31    1
    37    29    30    1
    38    32    31    1
    39    31    33    1
    40    30    35    1
    41    34    33    1
    42    33    35    1
    43    35    36    1
    44    44    36    1
    45    44    43    2
    46    36    37    1
    47    43    42    1
    48    37    38    1
    49    42    38    2
    50    38    39    1
    51    41    39   am
    52    39    40    2
