@<TRIPOS>MOLECULE
3fx4_FX4_A_1.pdb
 25 26 0 0 0
SMALL
GASTEIGER

@<TRIPOS>ATOM
      1  O1        -5.1340  -34.5760   -7.0450 O.co2 401  FX4401     -0.2437
      2  C2        -4.0520  -34.1670   -6.5780 C.2   401  FX4401      0.3852
      3  O3        -3.6510  -34.5350   -5.4540 O.co2 401  FX4401     -0.2437
      4  C4        -3.3040  -33.3190   -7.3010 C.3   401  FX4401      0.2156
      5  N5        -2.1170  -32.8580   -6.8020 N.am  401  FX4401     -0.2057
      6  C6        -0.9260  -33.3820   -7.1270 C.2   401  FX4401      0.2869
      7  O10       -0.7570  -34.3600   -7.9340 O.2   401  FX4401     -0.2619
      8  S7         0.3920  -32.5890   -6.3270 S.3   401  FX4401     -0.0252
      9  C9        -2.0460  -31.8330   -5.9340 C.2   401  FX4401      0.2620
     10  O11       -3.0720  -31.2000   -5.5050 O.2   401  FX4401     -0.2689
     11  C8        -0.6650  -31.4840   -5.5110 C.2   401  FX4401      0.0876
     12  C12       -0.1940  -30.4380   -4.5690 C.2   401  FX4401      0.0113
     13  C13        1.2410  -30.2090   -4.2750 C.ar  401  FX4401      0.0039
     14  C14        2.1100  -31.2190   -3.8440 C.ar  401  FX4401      0.0033
     15  C15        3.4630  -30.9520   -3.5930 C.ar  401  FX4401      0.0400
     16  C16        3.9720  -29.6630   -3.7670 C.ar  401  FX4401      0.1724
     17  O24        5.2910  -29.3680   -3.5230 O.3   401  FX4401     -0.4684
     18  C25        6.2540  -29.3370   -4.5780 C.3   401  FX4401      0.2526
     19  C18        1.7070  -28.9120   -4.4650 C.ar  401  FX4401      0.0401
     20  C17        3.0440  -28.5950   -4.2240 C.ar  401  FX4401      0.1730
     21  O19        3.5040  -27.3210   -4.4010 O.3   401  FX4401     -0.4606
     22  C20        2.6000  -26.2210   -4.2850 C.3   401  FX4401      0.3187
     23  C21        2.3390  -25.7310   -5.6830 C.2   401  FX4401      0.4084
     24  O22        2.0400  -26.5650   -6.5590 O.co2 401  FX4401     -0.2415
     25  O23        2.4610  -24.5180   -5.9190 O.co2 401  FX4401     -0.2415
@<TRIPOS>BOND
     1     7     6    2
     2     4     5    1
     3     4     2    1
     4     6     5   am
     5     6     8    1
     6     1     2   ar
     7     5     9   am
     8     2     3   ar
     9    24    23   ar
    10     8    11    1
    11     9    11    1
    12     9    10    2
    13    25    23   ar
    14    23    22    1
    15    11    12    2
    16    18    17    1
    17    12    13    1
    18    19    13   ar
    19    19    20   ar
    20    21    22    1
    21    21    20    1
    22    13    14   ar
    23    20    16   ar
    24    14    15   ar
    25    16    15   ar
    26    16    17    1
