@<TRIPOS>MOLECULE
3fx6_BPX_A_1.pdb
 19 19 0 0 0
SMALL
GASTEIGER

@<TRIPOS>ATOM
      1  CAJ      -24.8900    1.6140   -7.3260 C.ar  311  BPX311     -0.0043
      2  CAI      -25.7470    1.2930   -6.2800 C.ar  311  BPX311     -0.0003
      3  CAE      -25.3490    0.3790   -5.3100 C.ar  311  BPX311     -0.0000
      4  CAD      -24.0930   -0.2120   -5.3890 C.ar  311  BPX311     -0.0003
      5  CAL      -23.2370    0.1100   -6.4360 C.ar  311  BPX311     -0.0043
      6  CAK      -23.6350    1.0220   -7.4080 C.ar  311  BPX311     -0.0216
      7  CAF      -22.6900    1.3570   -8.5650 C.3   311  BPX311      0.0378
      8  CAB      -22.9270    0.4470   -9.7740 C.3   311  BPX311      0.1154
      9  CAC      -24.2800    0.7450  -10.4250 C.2   311  BPX311      0.3649
     10  OAO      -24.7040   -0.0960  -11.2480 O.co2 311  BPX311     -0.2457
     11  OAN      -24.8580    1.8020  -10.0920 O.co2 311  BPX311     -0.2457
     12  CAA      -21.8210    0.6530  -10.8110 C.3   311  BPX311      0.1055
     13  CAG      -20.8670   -0.5430  -10.7720 C.3   311  BPX311      0.3793
     14  OAP      -20.3730   -0.7370   -9.4440 O.2   311  BPX311     -0.2730
     15  OAQ      -21.5870   -1.7110  -11.1760 O.2   311  BPX311     -0.2730
     16  CAH      -19.7010   -0.3190  -11.7390 C.3   311  BPX311      0.2841
     17  NAM      -20.1800   -0.4050  -13.1260 N.pl3 311  BPX311      0.0425
     18  OAS      -20.2200   -1.6640  -13.7870 O.2   311  BPX311     -0.1307
     19  OAR      -20.5940    0.7680  -13.8140 O.2   311  BPX311     -0.1307
@<TRIPOS>BOND
     1    19    17    2
     2    18    17    2
     3    17    16    1
     4    16    13    1
     5    10     9   ar
     6    15    13    1
     7    12    13    1
     8    12     8    1
     9    13    14    1
    10     9    11   ar
    11     9     8    1
    12     8     7    1
    13     7     6    1
    14     6     1   ar
    15     6     5   ar
    16     1     2   ar
    17     5     4   ar
    18     2     3   ar
    19     4     3   ar
