@<TRIPOS>MOLECULE
3fxb_4CS_A_1.pdb
 10 10 0 0 0
SMALL
GASTEIGER

@<TRIPOS>ATOM
      1  O          6.8640   -7.7190    7.3890 O.co2 401  4CS401     -0.2435
      2  C          6.6270   -8.6020    6.5790 C.2   401  4CS401      0.3875
      3  OXT        7.5980   -9.2170    6.1510 O.co2 401  4CS401     -0.2435
      4  CA         5.2040   -8.9150    6.1080 C.3   401  4CS401      0.2173
      5  CB         4.2020   -8.7000    7.2200 C.3   401  4CS401      0.0639
      6  CAD        2.8050   -8.8980    6.6500 C.3   401  4CS401      0.1386
      7  NAG        2.7820  -10.3200    6.2160 N.2   401  4CS401     -0.2239
      8  CAI        3.9570  -11.0100    5.7660 C.1   401  4CS401      0.0036
      9  CAA        3.9610  -12.4830    5.3420 C.3   401  4CS401      0.1143
     10  N          5.1490  -10.3090    5.7000 N.2   401  4CS401     -0.2144
@<TRIPOS>BOND
     1     9     8    1
     2    10     8    2
     3    10     4    1
     4     8     7    2
     5     4     2    1
     6     4     5    1
     7     3     2   ar
     8     7     6    1
     9     2     1   ar
    10     6     5    1
