@<TRIPOS>MOLECULE
3fxi_NAG_A_1.pdb
 14 14 0 0 0
SMALL
GASTEIGER

@<TRIPOS>ATOM
      1  C1        -5.0060   -6.9900   36.6820 C.3   721  NAG721      0.1665
      2  C2        -4.0950   -6.4100   35.5880 C.3   721  NAG721      0.1576
      3  C3        -4.8970   -5.5450   34.6000 C.3   721  NAG721      0.2069
      4  C4        -6.0760   -6.3500   34.0390 C.3   721  NAG721      0.2134
      5  C5        -6.8910   -7.0290   35.1740 C.3   721  NAG721      0.1809
      6  C6        -7.9150   -8.0040   34.6280 C.3   721  NAG721      0.2141
      7  C7        -1.8020   -6.1070   36.1850 C.2   721  NAG721      0.2420
      8  C8        -0.8880   -5.6440   35.0580 C.3   721  NAG721      0.0964
      9  N2        -3.0400   -5.6270   36.1900 N.am  721  NAG721     -0.2019
     10  O3        -4.0600   -5.1310   33.5210 O.3   721  NAG721     -0.2184
     11  O4        -6.9210   -5.4790   33.2920 O.3   721  NAG721     -0.2176
     12  O5        -6.0310   -7.7930   36.0650 O.3   721  NAG721     -0.3489
     13  O6        -8.2420   -8.9960   35.5930 O.3   721  NAG721     -0.2176
     14  O7        -1.3850   -6.9110   37.0360 O.2   721  NAG721     -0.2733
@<TRIPOS>BOND
     1    11     4    1
     2    10     3    1
     3     4     3    1
     4     4     5    1
     5     3     2    1
     6     6     5    1
     7     6    13    1
     8     8     7    1
     9     5    12    1
    10     2     9    1
    11     2     1    1
    12    12     1    1
    13     7     9   am
    14     7    14    2
