@<TRIPOS>MOLECULE
3fxl_FLC_A_1.pdb
 13 12 0 0 0
SMALL
GASTEIGER

@<TRIPOS>ATOM
      1  CAC      -26.0210   31.5790   48.7870 C.2   394  FLC394      0.3680
      2  CA       -26.2110   30.6400   49.9650 C.3   394  FLC394      0.1560
      3  CB       -27.5490   29.8690   49.9840 C.3   394  FLC394      0.2402
      4  CBC      -27.6600   28.8930   48.8250 C.2   394  FLC394      0.3927
      5  CG       -27.6330   29.0970   51.2990 C.3   394  FLC394      0.1560
      6  CGC      -28.9350   28.3590   51.4280 C.2   394  FLC394      0.3680
      7  OA1      -24.9070   32.1430   48.6140 O.co2 394  FLC394     -0.2455
      8  OA2      -26.9880   31.7690   48.0140 O.co2 394  FLC394     -0.2455
      9  OB1      -26.7030   28.1160   48.6250 O.co2 394  FLC394     -0.2429
     10  OB2      -28.6930   28.8830   48.1100 O.co2 394  FLC394     -0.2429
     11  OG1      -28.9210   27.2500   51.9930 O.co2 394  FLC394     -0.2455
     12  OG2      -29.9690   28.8810   50.9670 O.co2 394  FLC394     -0.2455
     13  OHB      -28.6590   30.7860   49.9730 O.3   394  FLC394     -0.2129
@<TRIPOS>BOND
     1     8     1   ar
     2    10     4   ar
     3     7     1   ar
     4     9     4   ar
     5     1     2    1
     6     4     3    1
     7     2     3    1
     8    13     3    1
     9     3     5    1
    10    12     6   ar
    11     5     6    1
    12     6    11   ar
