@<TRIPOS>MOLECULE
3fxm_FLC_A_1.pdb
 13 12 0 0 0
SMALL
GASTEIGER

@<TRIPOS>ATOM
      1  CAC      -25.5660   31.5980   48.5390 C.2   394  FLC394      0.3680
      2  CA       -26.0890   30.8910   49.7920 C.3   394  FLC394      0.1560
      3  CB       -27.2750   29.8910   49.7550 C.3   394  FLC394      0.2402
      4  CBC      -27.3030   28.9100   48.6060 C.2   394  FLC394      0.3927
      5  CG       -27.1710   29.0780   51.0480 C.3   394  FLC394      0.1560
      6  CGC      -28.4360   28.3270   51.4060 C.2   394  FLC394      0.3680
      7  OA1      -24.5580   32.3500   48.6380 O.co2 394  FLC394     -0.2455
      8  OA2      -26.1340   31.4330   47.4410 O.co2 394  FLC394     -0.2455
      9  OB1      -26.2590   28.3030   48.3210 O.co2 394  FLC394     -0.2429
     10  OB2      -28.3740   28.7180   47.9940 O.co2 394  FLC394     -0.2429
     11  OG1      -28.3540   27.4610   52.3080 O.co2 394  FLC394     -0.2455
     12  OG2      -29.5030   28.5960   50.8010 O.co2 394  FLC394     -0.2455
     13  OHB      -28.5190   30.6090   49.7800 O.3   394  FLC394     -0.2129
@<TRIPOS>BOND
     1     8     1   ar
     2    10     4   ar
     3     9     4   ar
     4     1     7   ar
     5     1     2    1
     6     4     3    1
     7     3    13    1
     8     3     2    1
     9     3     5    1
    10    12     6   ar
    11     5     6    1
    12     6    11   ar
