@<TRIPOS>MOLECULE
3fxp_D38_A_1.pdb
 32 33 0 0 0
SMALL
GASTEIGER

@<TRIPOS>ATOM
      1  C1        -5.6650   46.2250   -0.7390 C.ar  317  D38317      0.0063
      2  C2        -6.0010   47.3630   -1.4860 C.ar  317  D38317      0.0798
      3  C3        -7.2770   47.9150   -1.2930 C.ar  317  D38317      0.0063
      4  C4        -8.1740   47.3350   -0.3980 C.ar  317  D38317     -0.0027
      5  C5        -7.8330   46.1970    0.3470 C.ar  317  D38317     -0.0044
      6  C6        -6.5570   45.6470    0.1680 C.ar  317  D38317     -0.0027
      7  C7        -5.0780   47.9900   -2.5100 C.2   317  D38317      0.3878
      8  O8        -5.4940   49.0670   -3.0400 O.co2 317  D38317     -0.2406
      9  O9        -3.9800   47.4210   -2.7860 O.co2 317  D38317     -0.2406
     10  C10       -8.8470   45.6070    1.2950 C.3   317  D38317      0.1221
     11  N11       -8.5570   44.2230    1.6370 N.3   317  D38317     -0.1589
     12  C12       -8.9860   43.0760    1.0300 C.3   317  D38317      0.1384
     13  C13       -8.1770   42.0870    1.5500 C.2   317  D38317      0.0754
     14  N14       -7.3090   42.6630    2.4380 N.2   317  D38317     -0.1540
     15  N15       -7.5380   43.9710    2.4830 N.pl3 317  D38317     -0.0628
     16  C16       -8.0040   40.6610    1.1570 C.3   317  D38317      0.0536
     17  C17       -8.8840   39.5760    1.7840 C.3   317  D38317      0.0839
     18  C18       -9.2710   38.3200    1.0140 C.3   317  D38317      0.0090
     19  C19       -9.7470   37.1560    1.8750 C.3   317  D38317      0.0005
     20  C20       -8.3400   37.8320   -0.0880 C.3   317  D38317      0.0005
     21  C21       -8.9060   39.5290    3.2990 C.2   317  D38317      0.2417
     22  N22      -10.0480   40.0810    3.8530 N.am  317  D38317     -0.1956
     23  C23      -10.3250   40.0910    5.3050 C.3   317  D38317      0.1977
     24  C24      -10.4210   38.6310    5.8370 C.2   317  D38317      0.3842
     25  O25      -11.2450   37.9010    5.2060 O.co2 317  D38317     -0.2437
     26  O26       -9.6850   38.3300    6.8220 O.co2 317  D38317     -0.2437
     27  O27       -8.0720   38.9580    4.0010 O.2   317  D38317     -0.2733
     28  C28      -11.6560   40.7770    5.6160 C.3   317  D38317      0.0333
     29  C29      -12.2990   40.3570    6.9400 C.3   317  D38317      0.0039
     30  C30      -11.4140   40.8130    8.0960 C.3   317  D38317      0.0206
     31  C31      -12.2060   41.0390    9.3780 C.3   317  D38317      0.1093
     32  N32      -11.6540   42.2530    9.9940 N.3   317  D38317     -0.1314
@<TRIPOS>BOND
     1     8     7   ar
     2     9     7   ar
     3     7     2    1
     4     2     3   ar
     5     2     1   ar
     6     3     4   ar
     7     1     6   ar
     8     4     5   ar
     9    20    18    1
    10     6     5   ar
    11     5    10    1
    12    18    17    1
    13    18    19    1
    14    12    13    1
    15    12    11    1
    16    16    13    1
    17    16    17    1
    18    10    11    1
    19    13    14    2
    20    11    15    1
    21    17    21    1
    22    14    15    1
    23    21    22   am
    24    21    27    2
    25    22    23    1
    26    25    24   ar
    27    23    28    1
    28    23    24    1
    29    28    29    1
    30    24    26   ar
    31    29    30    1
    32    30    31    1
    33    31    32    1
