@<TRIPOS>MOLECULE
3fxr_ASC_A_1.pdb
 12 12 0 0 0
SMALL
GASTEIGER

@<TRIPOS>ATOM
      1  C1        -6.9090   30.9100   77.5350 C.2   3001  ASC3001     0.3843
      2  C2        -6.9300   29.5110   77.1660 C.2   3001  ASC3001     0.3085
      3  C3        -5.6860   29.1650   76.8740 C.2   3001  ASC3001     0.2606
      4  C4        -4.7300   30.3110   77.1490 C.3   3001  ASC3001     0.2661
      5  C5        -4.0900   30.9430   75.8970 C.3   3001  ASC3001     0.2322
      6  C6        -3.1900   29.9820   75.1040 C.3   3001  ASC3001     0.2190
      7  O1        -7.8590   31.6720   77.5850 O.2   3001  ASC3001    -0.2411
      8  O2        -7.9990   28.7190   77.1410 O.2   3001  ASC3001    -0.2764
      9  O3        -5.3390   27.9670   76.3940 O.2   3001  ASC3001    -0.2838
     10  O4        -5.5390   31.3120   77.7910 O.3   3001  ASC3001    -0.4360
     11  O5        -3.3470   32.1250   76.2460 O.3   3001  ASC3001    -0.2159
     12  O6        -2.5610   30.6540   74.0050 O.3   3001  ASC3001    -0.2174
@<TRIPOS>BOND
     1    12     6    1
     2     6     5    1
     3     5    11    1
     4     5     4    1
     5     9     3    1
     6     3     4    1
     7     3     2    2
     8     8     2    1
     9     4    10    1
    10     2     1    1
    11     1     7    2
    12     1    10    1
