@<TRIPOS>MOLECULE
3fxu_TSU_A_1.pdb
 11 11 0 0 0
SMALL
GASTEIGER

@<TRIPOS>ATOM
      1  S         14.9640   63.3750   -6.0960 S.3   1001  TSU1001     0.0421
      2  O1        14.2180   64.6070   -5.7760 O.3   1001  TSU1001    -0.0650
      3  O2        14.8040   63.0770   -7.5400 O.3   1001  TSU1001    -0.0650
      4  O3        16.4000   63.5910   -5.8470 O.3   1001  TSU1001    -0.0650
      5  C1        14.4670   62.1450   -5.1640 C.ar  1001  TSU1001     0.1123
      6  C2        13.1240   61.9600   -4.8450 C.ar  1001  TSU1001     0.0186
      7  C3        12.7320   60.8870   -4.0390 C.ar  1001  TSU1001    -0.0029
      8  C4        13.6910   59.9940   -3.5300 C.ar  1001  TSU1001    -0.0218
      9  C5        15.0390   60.1800   -3.8440 C.ar  1001  TSU1001    -0.0029
     10  C6        15.4120   61.2470   -4.6560 C.ar  1001  TSU1001     0.0186
     11  C7        13.2800   58.8370   -2.6640 C.3   1001  TSU1001     0.0310
@<TRIPOS>BOND
     1     3     1    1
     2     1     4    1
     3     1     2    1
     4     1     5    1
     5     5     6   ar
     6     5    10   ar
     7     6     7   ar
     8    10     9   ar
     9     7     8   ar
    10     9     8   ar
    11     8    11    1
