@<TRIPOS>MOLECULE
3fxv_643_A_1.pdb
 38 42 0 0 0
SMALL
GASTEIGER

@<TRIPOS>ATOM
      1  C4       -13.8000   57.1460   -1.9320 C.ar    1  6431        0.0017
      2  C5       -12.0690   57.2600   -3.9210 C.ar    1  6431        0.0983
      3  C6       -12.7840   56.6970   -2.7670 C.ar    1  6431        0.0236
      4  C7       -12.2310   55.4300   -2.5690 C.ar    1  6431        0.0602
      5  C10      -10.4500   54.0450   -3.6530 C.3     1  6431        0.1305
      6  C15      -14.2810   54.6930    1.6650 C.ar    1  6431        0.0028
      7  C17      -14.3890   52.8530    0.1390 C.ar    1  6431       -0.0188
      8  C21      -18.1310   50.7520    3.6850 C.ar    1  6431        0.0449
      9  C22      -17.8000   49.9020    2.6430 C.ar    1  6431        0.0791
     10  C26      -19.0000   51.8000    3.4160 C.ar    1  6431        0.0791
     11  C28      -16.3670   51.2430    5.4760 C.ar    1  6431        0.0749
     12  C1       -14.2580   56.3550   -0.9200 C.ar    1  6431        0.0001
     13  C2       -13.7170   55.0870   -0.7190 C.ar    1  6431        0.0011
     14  C3       -12.7010   54.6360   -1.5400 C.ar    1  6431        0.0172
     15  N8       -11.2650   55.2440   -3.5190 N.ar    1  6431       -0.3239
     16  C9       -11.1730   56.3210   -4.3100 C.ar    1  6431        0.0826
     17  C11      -12.2520   58.5680   -4.5470 C.2     1  6431        0.3892
     18  O12      -13.0770   59.3370   -4.1340 O.co2   1  6431       -0.2405
     19  O13      -11.4730   58.9180   -5.5730 O.co2   1  6431       -0.2405
     20  C14      -14.6610   53.8640    2.6900 C.ar    1  6431        0.0369
     21  C16      -14.1550   54.1970    0.3770 C.ar    1  6431       -0.0037
     22  C18      -14.7710   52.0280    1.1650 C.ar    1  6431        0.0327
     23  C19      -14.9040   52.5310    2.4390 C.ar    1  6431        0.1387
     24  O20      -15.2740   51.6930    3.4240 O.3     1  6431       -0.4705
     25  C23      -18.3490   50.1140    1.4020 C.ar    1  6431        0.1103
     26  N24      -19.1730   51.1120    1.1990 N.ar    1  6431       -0.2405
     27  C25      -19.5080   51.9460    2.1510 C.ar    1  6431        0.1103
     28  C27      -17.5400   50.5840    5.0280 C.ar    1  6431        0.1238
     29  C29      -16.2030   50.7980    6.7290 C.ar    1  6431        0.1534
     30  O30      -17.2070   49.9600    6.9600 O.2     1  6431       -0.3580
     31  N31      -17.9390   49.8480    6.0170 N.ar    1  6431       -0.0775
     32 CL32      -16.7270   48.5950    2.9310 Cl      1  6431       -0.0805
     33  C33      -15.1060   51.1890    7.6790 C.3     1  6431        0.0600
     34  C34      -15.6650   52.1500    8.7210 C.3     1  6431        0.0080
     35  C35      -14.5620   49.9520    8.3870 C.3     1  6431        0.0080
     36  C36      -15.5070   52.2150    4.7210 C.3     1  6431        0.2364
     37 CL37      -19.4440   52.8740    4.6820 Cl      1  6431       -0.0805
     38  C38      -14.2510   52.2940   -1.2460 C.3     1  6431        0.0311
@<TRIPOS>BOND
     1    19    17   ar
     2    17    18   ar
     3    17     2    1
     4    16     2   ar
     5    16    15   ar
     6     2     3   ar
     7     5    15    1
     8    15     4   ar
     9     3     4   ar
    10     3     1   ar
    11     4    14   ar
    12     1    12   ar
    13    14    13   ar
    14    38     7    1
    15    12    13   ar
    16    13    21    1
    17     7    21   ar
    18     7    22   ar
    19    21     6   ar
    20    22    23   ar
    21    26    25   ar
    22    26    27   ar
    23    25     9   ar
    24     6    20   ar
    25    27    10   ar
    26    23    20   ar
    27    23    24    1
    28     9    32    1
    29     9     8   ar
    30    10     8   ar
    31    10    37    1
    32    24    36    1
    33     8    28    1
    34    36    11    1
    35    28    11   ar
    36    28    31   ar
    37    11    29   ar
    38    31    30   ar
    39    29    30   ar
    40    29    33    1
    41    33    35    1
    42    33    34    1
