@<TRIPOS>MOLECULE
3fxw_F10_A_1.pdb
 23 26 0 0 0
SMALL
GASTEIGER

@<TRIPOS>ATOM
      1  N1        16.3010    0.4090   18.3860 N.2     1  F101       -0.1745
      2  O3        18.0590    0.6660   19.7370 O.2     1  F101       -0.2218
      3  C10       21.4400    8.1570   13.2430 C.ar    1  F101        0.0037
      4  C11       19.9430    5.1490   14.9090 C.ar    1  F101        0.0218
      5  C9        21.2550    9.0160   12.1350 C.ar    1  F101        0.0002
      6  C14       19.2170    2.6230   17.7120 C.2     1  F101        0.0463
      7  C17       15.4880    0.7190   17.2060 C.2     1  F101        0.1137
      8  C18       15.9560    1.7330   16.1560 C.2     1  F101        0.0543
      9  C15       18.0310    1.9480   17.7340 C.2     1  F101        0.1152
     10  C16       17.4480    0.9730   18.7090 C.1     1  F101        0.1571
     11  C21       21.4280    4.3220   16.6060 C.ar    1  F101        0.0232
     12  C22       22.4380    5.1620   16.1410 C.ar    1  F101        0.0989
     13  C19       17.2900    2.3020   16.5110 C.2     1  F101        0.1439
     14  C12       20.1800    4.3050   15.9900 C.ar    1  F101        0.0327
     15  C13       19.1590    3.3810   16.5460 C.2     1  F101        0.1323
     16  C2        20.9740    5.9910   14.4560 C.ar    1  F101        0.0836
     17  C4        20.7830    6.9220   13.2890 C.ar    1  F101        0.0451
     18  C5        19.9360    6.5650   12.1160 C.ar    1  F101        0.1415
     19  C7        19.7810    7.4470   11.0350 C.ar    1  F101        0.0297
     20  C8        20.4450    8.6710   11.0590 C.ar    1  F101        0.0023
     21  F6        19.2870    5.3920   12.0980 F       1  F101       -0.2041
     22  N20       18.0410    3.1770   15.8130 N.2     1  F101       -0.4011
     23  N23       22.1800    5.9780   15.0910 N.ar    1  F101       -0.2438
@<TRIPOS>BOND
     1    19    20   ar
     2    19    18   ar
     3    20     5   ar
     4    21    18    1
     5    18    17   ar
     6     5     3   ar
     7     3    17   ar
     8    17    16    1
     9    16     4   ar
    10    16    23   ar
    11     4    14   ar
    12    23    12   ar
    13    22    13    2
    14    22    15    2
    15    14    15    1
    16    14    11   ar
    17    12    11   ar
    18     8    13    1
    19     8     7    2
    20    13     9    1
    21    15     6    1
    22     7     1    1
    23     6     9    2
    24     9    10    1
    25     1    10    2
    26    10     2    2
