@<TRIPOS>MOLECULE
3fxx_ANP_A_1.pdb
 31 33 0 0 0
SMALL
GASTEIGER

@<TRIPOS>ATOM
      1  PG        -9.0600    5.0600   60.1730 P.3   992  ANP992      0.4884
      2  O1G       -7.7890    5.1370   59.4260 O.2   992  ANP992     -0.2331
      3  O2G       -8.9060    5.3550   61.7550 O.3   992  ANP992     -0.1240
      4  O3G       -9.5770    3.5450   60.1130 O.3   992  ANP992     -0.1240
      5  PB        -9.9960    7.5950   59.3470 P.3   992  ANP992      0.4669
      6  O1B      -10.8560    8.4520   60.2030 O.3   992  ANP992     -0.1253
      7  O2B       -8.4710    7.9920   59.6190 O.2   992  ANP992     -0.2351
      8  N3B      -10.2860    5.9930   59.6350 N.3   992  ANP992     -0.0163
      9  PA        -9.4850    7.3640   56.4870 P.3   992  ANP992      0.2220
     10  O1A       -9.2340    8.4490   55.5170 O.2   992  ANP992     -0.5170
     11  O2A       -8.1250    6.6770   56.9960 O.3   992  ANP992     -0.4370
     12  O3A      -10.3150    7.9150   57.7940 O.3   992  ANP992     -0.2360
     13  O5'      -10.3800    6.1530   55.8900 O.3   992  ANP992     -0.3111
     14  C5'      -10.2880    4.8260   56.4110 C.3   992  ANP992      0.1813
     15  C4'       -9.7980    3.8630   55.3570 C.3   992  ANP992      0.1821
     16  O4'      -10.5800    4.2060   54.2140 O.3   992  ANP992     -0.3135
     17  C3'       -8.3430    4.0550   54.8990 C.3   992  ANP992      0.2184
     18  O3'       -7.4850    3.2450   55.6840 O.3   992  ANP992     -0.2174
     19  C2'       -8.3880    3.4430   53.5320 C.3   992  ANP992      0.2570
     20  O2'       -8.2760    1.9950   53.6450 O.3   992  ANP992     -0.2130
     21  C1'       -9.7970    3.8460   53.0610 C.3   992  ANP992      0.3186
     22  N9        -9.7010    5.0630   52.2240 N.pl3 992  ANP992     -0.1439
     23  C8        -9.7880    6.3460   52.5800 C.3   992  ANP992      0.3377
     24  N7        -9.6500    7.1170   51.4970 N.2   992  ANP992     -0.2095
     25  C5        -9.4340    6.3110   50.4620 C.2   992  ANP992      0.2526
     26  C6        -9.2000    6.5340   49.1100 C.2   992  ANP992      0.4393
     27  N6        -9.1580    7.7850   48.6300 N.pl3 992  ANP992      0.2180
     28  N1        -9.0280    5.4570   48.3300 N.2   992  ANP992      0.0021
     29  C2        -9.0780    4.2140   48.8140 C.3   992  ANP992      0.5254
     30  N3        -9.2850    3.9640   50.1050 N.2   992  ANP992     -0.0055
     31  C4        -9.4650    5.0050   50.9300 C.2   992  ANP992      0.3518
@<TRIPOS>BOND
     1    28    29    1
     2    28    26    2
     3    27    26    1
     4    29    30    1
     5    26    25    1
     6    30    31    2
     7    25    31    1
     8    25    24    2
     9    31    22    1
    10    24    23    1
    11    22    23    1
    12    22    21    1
    13    21    19    1
    14    21    16    1
    15    19    20    1
    16    19    17    1
    17    16    15    1
    18    17    15    1
    19    17    18    1
    20    15    14    1
    21    10     9    2
    22    13    14    1
    23    13     9    1
    24     9    11    1
    25     9    12    1
    26    12     5    1
    27     5     7    2
    28     5     8    1
    29     5     6    1
    30     2     1    2
    31     8     1    1
    32     4     1    1
    33     1     3    1
