@<TRIPOS>MOLECULE
3fxz_FLL_A_1.pdb
 42 50 0 0 0
SMALL
GASTEIGER

@<TRIPOS>ATOM
      1  F2       -17.0160   35.3940  -16.1810 F       1  FLL1        0.0000
      2  C38      -15.6820   35.2860  -16.1360 C.2     1  FLL1        0.0000
      3  C39      -15.0430   35.2100  -17.3820 C.2     1  FLL1        0.0000
      4  N23      -13.7110   35.1140  -17.4080 N.pl3   1  FLL1        0.0000
      5 RU20      -12.4020   34.8750  -19.0280 Ru      1  FLL1        0.0000
      6  N21      -10.9530   34.9100  -17.4980 N.pl3   1  FLL1        0.0000
      7  N16      -12.6970   32.8090  -18.6480 N.pl3   1  FLL1        0.0000
      8  C11      -12.0240   32.0330  -17.7620 C.3     1  FLL1        0.0000
      9  C12      -12.3400   30.6760  -17.5760 C.2     1  FLL1        0.0000
     10  C10      -13.3890   30.1500  -18.3100 C.2     1  FLL1        0.0000
     11  C9       -14.1220   30.9240  -19.1990 C.2     1  FLL1        0.0000
     12  C8       -13.7440   32.2600  -19.3320 C.2     1  FLL1        0.0000
     13  C7       -14.4210   33.1830  -20.2260 C.3     1  FLL1        0.0000
     14  C13      -12.2770   36.6640  -19.3780 C.3     1  FLL1        0.0000
     15  O14      -12.2040   37.7900  -19.7060 O.3     1  FLL1        0.0000
     16  N15      -13.9640   34.3980  -20.2620 N.pl3   1  FLL1        0.0000
     17  C18      -14.5870   35.3320  -21.1920 C.ar    1  FLL1        0.0000
     18  C19      -15.8410   35.8340  -20.9340 C.ar    1  FLL1        0.0000
     19  C3       -16.4190   36.7400  -21.8100 C.ar    1  FLL1        0.0000
     20  C4       -15.7300   37.1340  -22.9500 C.ar    1  FLL1        0.0000
     21  C6       -14.4660   36.6450  -23.2260 C.ar    1  FLL1        0.0000
     22  C5       -13.8910   35.7310  -22.3300 C.ar    1  FLL1        0.0000
     23 CL17      -10.8740   34.2590  -20.7720 Cl      1  FLL1        0.0000
     24  C37      -15.0480   35.2380  -14.9310 C.2     1  FLL1        0.0000
     25  C36      -13.6300   35.1280  -14.9410 C.ar    1  FLL1        0.0000
     26  C40      -13.0150   35.0590  -16.2180 C.ar    1  FLL1        0.0000
     27  C35      -12.7330   35.0550  -13.8300 C.ar    1  FLL1        0.0000
     28  C34      -13.0410   35.0760  -12.4040 C.1     1  FLL1        0.0000
     29  N22      -11.8420   34.9720  -11.7310 N.2     1  FLL1        0.0000
     30  O42      -14.1500   35.1460  -11.9100 O.2     1  FLL1        0.0000
     31  C32      -11.3520   34.9420  -13.9640 C.ar    1  FLL1        0.0000
     32  C33      -10.7690   34.8810  -12.5920 C.1     1  FLL1        0.0000
     33  O41       -9.5930   34.8070  -12.2740 O.2     1  FLL1        0.0000
     34  C31      -10.7440   34.8830  -15.2180 C.ar    1  FLL1        0.0000
     35  C24      -11.6060   34.9370  -16.3320 C.ar    1  FLL1        0.0000
     36  C30       -9.4190   34.7670  -15.7820 C.2     1  FLL1        0.0000
     37  C25       -9.6080   34.7710  -17.1930 C.3     1  FLL1        0.0000
     38  C29       -8.1590   34.6540  -15.2130 C.2     1  FLL1        0.0000
     39  C28       -7.0640   34.5480  -16.0640 C.2     1  FLL1        0.0000
     40  O1        -5.7990   34.4440  -15.5800 O.2     1  FLL1        0.0000
     41  C27       -7.2510   34.5640  -17.4530 C.2     1  FLL1        0.0000
     42  C26       -8.4930   34.6520  -18.0290 C.2     1  FLL1        0.0000
@<TRIPOS>BOND
     1    21    20   ar
     2    21    22   ar
     3    20    19   ar
     4    22    17   ar
     5    19    18   ar
     6    17    18   ar
     7    17    16    1
     8    23     5    1
     9    16    13    1
    10    16     5    1
    11    13    12    1
    12    15    14    1
    13    14     5    1
    14    12    11    2
    15    12     7    1
    16    11    10    1
    17     5     7    1
    18     5     6    1
    19     5     4    1
    20     7     8    1
    21    10     9    2
    22    42    41    2
    23    42    37    1
    24     8     9    1
    25     6    37    1
    26     6    35    1
    27    41    39    1
    28     4     3    1
    29     4    26    1
    30     3     2    2
    31    37    36    1
    32    35    26   ar
    33    35    34   ar
    34    26    25   ar
    35     1     2    1
    36     2    24    1
    37    39    40    1
    38    39    38    2
    39    36    34    2
    40    36    38    1
    41    34    31   ar
    42    25    24    2
    43    25    27   ar
    44    31    27   ar
    45    31    32    1
    46    27    28    1
    47    32    33    2
    48    32    29    2
    49    28    30    2
    50    28    29    2
