@<TRIPOS>MOLECULE
3fy0_DW1_A_1.pdb
 31 37 0 0 0
SMALL
GASTEIGER

@<TRIPOS>ATOM
      1  O11       12.5860   13.0960   42.0650 O.3   200  DW1200      0.0000
      2  C10       12.6600   14.2400   42.0940 C.3   200  DW1200      0.0000
      3 RU         12.8590   16.0870   42.0660 Ru    200  DW1200      0.0000
      4  C12       12.1650   16.7620   40.1080 C.2   200  DW1200      0.0000
      5  C13       13.3860   16.0790   39.9570 C.3   200  DW1200      0.0000
      6  C14       14.3760   16.7960   40.6300 C.2   200  DW1200      0.0000
      7  C16       13.7770   17.9280   41.1820 C.2   200  DW1200      0.0000
      8  C17       12.4130   17.9110   40.8630 C.2   200  DW1200      0.0000
      9  N20       14.2800   15.9960   43.6830 N.pl3 200  DW1200      0.0000
     10  C6        15.6300   15.8590   43.6300 C.2   200  DW1200      0.0000
     11  C5        16.3650   15.8230   44.8330 C.2   200  DW1200      0.0000
     12  C4        15.7510   15.9270   46.1010 C.2   200  DW1200      0.0000
     13  N18       11.6370   16.2580   43.8080 N.pl3 200  DW1200      0.0000
     14  C22       10.3790   16.4060   44.0730 C.3   200  DW1200      0.0000
     15  C27       10.1790   16.4780   45.4600 C.2   200  DW1200      0.0000
     16  C26        8.9030   16.6340   46.0140 C.2   200  DW1200      0.0000
     17  C25        7.7840   16.7200   45.1560 C.2   200  DW1200      0.0000
     18  C24        7.9860   16.6490   43.7600 C.2   200  DW1200      0.0000
     19  C23        9.2740   16.4930   43.2140 C.2   200  DW1200      0.0000
     20  O15        6.5040   16.8590   45.6190 O.2   200  DW1200      0.0000
     21  C28       11.5070   16.3620   46.0210 C.ar  200  DW1200      0.0000
     22  C21       12.3030   16.2460   44.9020 C.ar  200  DW1200      0.0000
     23  C7        13.6780   16.1040   44.9260 C.ar  200  DW1200      0.0000
     24  C3        14.3560   16.0730   46.1610 C.ar  200  DW1200      0.0000
     25  C29       12.1510   16.3420   47.2720 C.ar  200  DW1200      0.0000
     26  C2        13.5590   16.2030   47.3330 C.ar  200  DW1200      0.0000
     27  C30       11.6840   16.4370   48.5900 C.1   200  DW1200      0.0000
     28  O8        10.5400   16.5620   48.9650 O.2   200  DW1200      0.0000
     29  N19       12.7350   16.3640   49.4550 N.2   200  DW1200      0.0000
     30  C1        13.8760   16.2200   48.6990 C.1   200  DW1200      0.0000
     31  O9        14.9720   16.1240   49.1940 O.2   200  DW1200      0.0000
@<TRIPOS>BOND
     1     5     4    1
     2     5     6    1
     3     5     3    1
     4     4     8    2
     5     6     7    2
     6     8     7    1
     7     1     2    1
     8     3     2    1
     9     3     9    1
    10     3    13    1
    11    19    18    2
    12    19    14    1
    13    10     9    1
    14    10    11    2
    15     9    23    1
    16    18    17    1
    17    13    14    1
    18    13    22    1
    19    14    15    1
    20    11    12    1
    21    22    23   ar
    22    22    21   ar
    23    23    24   ar
    24    17    20    1
    25    17    16    2
    26    15    16    1
    27    15    21    2
    28    21    25   ar
    29    12    24    2
    30    24    26   ar
    31    25    26   ar
    32    25    27    1
    33    26    30    1
    34    27    28    2
    35    27    29    2
    36    30    31    2
    37    30    29    2
