@<TRIPOS>MOLECULE
3fy1_AMI_A_1.pdb
 15 16 0 0 0
SMALL
GASTEIGER

@<TRIPOS>ATOM
      1  C1         0.6130   47.3110   70.7700 C.3   803  AMI803      0.1987
      2  C2         1.3710   46.5090   69.6920 C.3   803  AMI803      0.1803
      3  C3         1.4920   47.4730   68.5120 C.3   803  AMI803      0.2082
      4  C4         0.2030   48.3100   68.5980 C.3   803  AMI803      0.1902
      5  C5         0.2500   48.6350   70.0890 C.3   803  AMI803      0.1081
      6  C6        -1.0900   49.2500   70.6530 C.3   803  AMI803      0.1883
      7  C7         2.7150   46.7760   71.4920 C.2   803  AMI803      0.2833
      8  C8         5.0820   46.1160   71.8870 C.3   803  AMI803      0.1166
      9  C9         3.7610   47.3140   73.6570 C.3   803  AMI803      0.1166
     10  N2         2.6510   46.2430   70.2670 N.2   803  AMI803     -0.2198
     11  N7         3.8330   46.8230   72.2570 N.pl3 803  AMI803     -0.2607
     12  O3         1.5270   46.6780   67.3260 O.3   803  AMI803     -0.2182
     13  O4         0.2330   49.5540   67.9210 O.3   803  AMI803     -0.2201
     14  O6        -2.2020   48.3610   70.3700 O.3   803  AMI803     -0.2202
     15  O7         1.5760   47.4660   71.8410 O.2   803  AMI803     -0.4514
@<TRIPOS>BOND
     1    12     3    1
     2    13     4    1
     3     3     4    1
     4     3     2    1
     5     4     5    1
     6     2    10    1
     7     2     1    1
     8     5     6    1
     9     5     1    1
    10    10     7    2
    11    14     6    1
    12     1    15    1
    13     7    15    1
    14     7    11    1
    15     8    11    1
    16    11     9    1
