@<TRIPOS>MOLECULE
3fy1_NA1_A_1.pdb
 15 15 0 0 0
SMALL
GASTEIGER

@<TRIPOS>ATOM
      1  C1         1.2380   51.5650   61.8910 C.3   801  NA1801      0.1665
      2  C2         1.8330   51.1340   60.5210 C.3   801  NA1801      0.1576
      3  C3         2.0200   52.2860   59.5380 C.3   801  NA1801      0.2069
      4  C4         0.7270   53.1330   59.4940 C.3   801  NA1801      0.2133
      5  C5         0.3920   53.6480   60.9610 C.3   801  NA1801      0.1775
      6  C6        -0.8480   54.6040   61.0230 C.3   801  NA1801      0.1743
      7  C7         3.3150   49.1500   60.6760 C.2   801  NA1801      0.2420
      8  C8         4.7500   48.7660   61.0300 C.3   801  NA1801      0.0964
      9  N2         3.0890   50.4410   60.7820 N.am  801  NA1801     -0.2019
     10  O3         3.1140   53.0770   59.9670 O.3   801  NA1801     -0.2184
     11  O4         0.9440   54.1890   58.5970 O.3   801  NA1801     -0.2176
     12  O5         0.0780   52.4230   61.7050 O.3   801  NA1801     -0.3491
     13  O6        -1.9550   54.1590   60.1980 O.3   801  NA1801     -0.3484
     14  C9        -2.9240   53.4480   60.8100 C.3   801  NA1801      0.1742
     15  O7         2.4860   48.3320   60.3460 O.2   801  NA1801     -0.2733
@<TRIPOS>BOND
     1    11     4    1
     2     4     3    1
     3     4     5    1
     4     3    10    1
     5     3     2    1
     6    13    14    1
     7    13     6    1
     8    15     7    2
     9     2     9    1
    10     2     1    1
    11     7     9   am
    12     7     8    1
    13     5     6    1
    14     5    12    1
    15    12     1    1
