@<TRIPOS>MOLECULE
3fy8_I2H_X_1.pdb
 26 29 0 0 0
SMALL
GASTEIGER

@<TRIPOS>ATOM
      1  N7        27.1310   11.5600   39.7650 N.pl3 300  I2H300     -0.0924
      2  C6        27.5520   10.6590   40.6880 C.2   300  I2H300      0.2297
      3  N5        26.9480    9.4700   40.7230 N.2   300  I2H300     -0.3170
      4  C3        27.3040    8.5260   41.6140 C.1   300  I2H300      0.1877
      5  N4        26.6460    7.3400   41.5830 N.pl3 300  I2H300     -0.0345
      6  N2        28.2920    8.7410   42.5010 N.2   300  I2H300     -0.1675
      7  C1        28.9410    9.9300   42.5020 C.2   300  I2H300      0.1118
      8  C8        28.5820   10.9350   41.5890 C.2   300  I2H300      0.0500
      9  C9        29.2900   12.2910   41.5410 C.3   300  I2H300      0.0582
     10  C10       30.3040   12.5370   42.6450 C.ar  300  I2H300     -0.0154
     11  C21       30.0140   13.4210   43.6910 C.ar  300  I2H300      0.0360
     12  C18       30.9370   13.6700   44.7230 C.ar  300  I2H300      0.1751
     13  O19       30.6290   14.5460   45.7400 O.3   300  I2H300     -0.4683
     14  C20       29.3130   15.0930   45.8270 C.3   300  I2H300      0.2526
     15  C11       31.5490   11.9260   42.6770 C.ar  300  I2H300      0.0115
     16  C12       32.4850   12.1660   43.6890 C.ar  300  I2H300      0.1708
     17  O13       33.7100   11.4800   43.6130 O.3   300  I2H300     -0.4763
     18  C15       32.1810   13.0440   44.7170 C.ar  300  I2H300      0.2057
     19  O16       33.0850   13.2830   45.7230 O.3   300  I2H300     -0.4654
     20  C17       34.4780   13.4350   45.4450 C.3   300  I2H300      0.2528
     21  C27       32.1060   11.1130   41.8790 C.3   300  I2H300      0.0329
     22  C28       33.1010   10.5000   41.4830 C.3   300  I2H300      0.0483
     23  C14       34.2540   10.9550   42.3560 C.3   300  I2H300      0.1663
     24  C24       35.0260   12.1140   41.7070 C.3   300  I2H300      0.0401
     25  C26       36.2370   12.5200   42.5590 C.3   300  I2H300      0.0037
     26  C25       36.4410   11.9660   41.1550 C.3   300  I2H300      0.0037
@<TRIPOS>BOND
     1     1     2    1
     2     2     3    2
     3     2     8    1
     4     3     4    2
     5    26    24    1
     6    26    25    1
     7    22    21    1
     8    22    23    1
     9     9     8    1
    10     9    10    1
    11     5     4    1
    12     8     7    2
    13     4     6    2
    14    24    23    1
    15    24    25    1
    16    21    15    1
    17    23    17    1
    18     6     7    1
    19    10    15   ar
    20    10    11   ar
    21    15    16   ar
    22    17    16    1
    23    16    18   ar
    24    11    12   ar
    25    18    12   ar
    26    18    19    1
    27    12    13    1
    28    20    19    1
    29    13    14    1
