@<TRIPOS>MOLECULE
3fy8_NAP_X_1.pdb
 48 52 0 0 0
SMALL
GASTEIGER

@<TRIPOS>ATOM
      1  PA        24.0840   21.6270   42.9280 P.3   301  NAP301      0.2189
      2  O1A       25.3300   20.8820   42.7260 O.3   301  NAP301     -0.4371
      3  O2A       22.9100   21.1260   42.1770 O.2   301  NAP301     -0.5170
      4  O5B       24.4290   23.1420   42.5770 O.3   301  NAP301     -0.3112
      5  C5B       23.4910   24.1760   42.7250 C.3   301  NAP301      0.1813
      6  C4B       24.0820   25.3520   41.9780 C.3   301  NAP301      0.1820
      7  O4B       24.1380   25.0890   40.5930 O.3   301  NAP301     -0.3136
      8  C3B       23.3030   26.6450   42.1170 C.3   301  NAP301      0.2157
      9  O3B       23.6730   27.3110   43.2970 O.3   301  NAP301     -0.2175
     10  C2B       23.7300   27.3800   40.8600 C.3   301  NAP301      0.2314
     11  O2B       25.0210   27.9280   40.9970 O.3   301  NAP301     -0.2630
     12  C1B       23.8670   26.2680   39.8530 C.3   301  NAP301      0.3158
     13  N9A       22.6450   26.1150   39.0640 N.pl3 301  NAP301     -0.1439
     14  C8A       21.7840   25.0530   39.1300 C.3   301  NAP301      0.3377
     15  N7A       20.7920   25.2560   38.2310 N.2   301  NAP301     -0.2095
     16  C5A       21.0110   26.4260   37.5870 C.2   301  NAP301      0.2526
     17  C6A       20.3100   27.0900   36.5900 C.2   301  NAP301      0.4393
     18  N6A       19.1960   26.5800   36.0880 N.pl3 301  NAP301      0.2180
     19  N1A       20.7770   28.2930   36.1240 N.2   301  NAP301      0.0021
     20  C2A       21.9330   28.8120   36.6530 C.3   301  NAP301      0.5254
     21  N3A       22.6300   28.1530   37.6390 N.2   301  NAP301     -0.0055
     22  C4A       22.1750   26.9760   38.1040 C.2   301  NAP301      0.3518
     23  O3        23.8360   21.6070   44.5020 O.3   301  NAP301     -0.2703
     24  PN        22.6930   21.0260   45.4790 P.3   301  NAP301      0.2189
     25  O1N       21.3930   21.1140   44.7870 O.2   301  NAP301     -0.5170
     26  O2N       22.9180   21.6850   46.7790 O.3   301  NAP301     -0.4371
     27  O5D       23.1310   19.4870   45.6300 O.3   301  NAP301     -0.3112
     28  C5D       24.4260   19.1900   46.0780 C.3   301  NAP301      0.1813
     29  C4D       24.3250   17.9200   46.8980 C.3   301  NAP301      0.1799
     30  O4D       24.2450   16.8230   46.0040 O.3   301  NAP301     -0.3327
     31  C3D       25.5250   17.6650   47.7950 C.3   301  NAP301      0.2158
     32  O3D       25.0650   17.1610   49.0290 O.3   301  NAP301     -0.2175
     33  C2D       26.3090   16.5890   47.0860 C.3   301  NAP301      0.2309
     34  O2D       26.9950   15.8210   48.0440 O.3   301  NAP301     -0.2158
     35  C1D       25.1980   15.8320   46.3650 C.3   301  NAP301      0.2263
     36  N1N       25.5690   15.0360   45.1700 N.pl3 301  NAP301     -0.2787
     37  C2N       25.2000   13.7350   45.1600 C.3   301  NAP301      0.1244
     38  C3N       25.4920   12.9090   44.0720 C.2   301  NAP301      0.0544
     39  C7N       25.1230   11.4700   44.1730 C.2   301  NAP301      0.2818
     40  O7N       25.1260   10.6560   43.0350 O.2   301  NAP301     -0.2670
     41  N7N       24.7820   11.0010   45.3700 N.am  301  NAP301     -0.0839
     42  C4N       26.1670   13.4210   42.9700 C.2   301  NAP301      0.0033
     43  C5N       26.5450   14.7650   43.0030 C.2   301  NAP301      0.0157
     44  C6N       26.2330   15.5610   44.1020 C.2   301  NAP301      0.0633
     45  P2B       25.2680   29.4380   41.4350 P.3   301  NAP301      0.5328
     46  O1X       24.4240   30.3070   40.5630 O.2   301  NAP301     -0.2224
     47  O2X       26.7410   29.6670   41.2290 O.3   301  NAP301     -0.1145
     48  O3X       24.9130   29.6900   42.8670 O.3   301  NAP301     -0.1145
@<TRIPOS>BOND
     1    18    17    1
     2    19    17    2
     3    19    20    1
     4    17    16    1
     5    20    21    1
     6    16    22    1
     7    16    15    2
     8    21    22    2
     9    22    13    1
    10    15    14    1
    11    13    14    1
    12    13    12    1
    13    12     7    1
    14    12    10    1
    15    46    45    2
    16     7     6    1
    17    10    11    1
    18    10     8    1
    19    11    45    1
    20    47    45    1
    21    45    48    1
    22     6     8    1
    23     6     5    1
    24     8     9    1
    25     3     1    2
    26     4     5    1
    27     4     1    1
    28     2     1    1
    29     1    23    1
    30    42    43    1
    31    42    38    2
    32    43    44    2
    33    40    39    2
    34    38    39    1
    35    38    37    1
    36    44    36    1
    37    39    41   am
    38    23    24    1
    39    25    24    2
    40    37    36    1
    41    36    35    1
    42    24    27    1
    43    24    26    1
    44    27    28    1
    45    30    35    1
    46    30    29    1
    47    28    29    1
    48    35    33    1
    49    29    31    1
    50    33    31    1
    51    33    34    1
    52    31    32    1
