@<TRIPOS>MOLECULE
3fy9_XCF_X_1.pdb
 26 29 0 0 0
SMALL
GASTEIGER

@<TRIPOS>ATOM
      1  N4        26.5580    7.2770   41.4030 N.pl3 300  XCF300     -0.0345
      2  C3        27.2210    8.4590   41.4340 C.1   300  XCF300      0.1877
      3  N5        26.8340    9.4210   40.5860 N.2   300  XCF300     -0.3170
      4  N2        28.2510    8.6470   42.2850 N.2   300  XCF300     -0.1675
      5  C1        28.9060    9.8190   42.2950 C.2   300  XCF300      0.1118
      6  C8        28.5120   10.8350   41.4230 C.2   300  XCF300      0.0500
      7  C6        27.4490   10.6040   40.5670 C.2   300  XCF300      0.2297
      8  N7        27.0240   11.5600   39.7040 N.pl3 300  XCF300     -0.0924
      9  C9        29.2000   12.1950   41.3630 C.3   300  XCF300      0.0585
     10  C10       30.1680   12.5230   42.4900 C.ar  300  XCF300     -0.0115
     11  C11       31.4450   11.9860   42.4840 C.ar  300  XCF300      0.0334
     12  C27       31.9100   11.1310   41.3710 C.2   300  XCF300      0.0018
     13  C28       33.2070   10.9030   41.2330 C.2   300  XCF300      0.0166
     14  C14       34.2010   11.5230   42.1960 C.3   300  XCF300      0.1880
     15  C24       35.5150   10.7460   42.2610 C.3   300  XCF300      0.0444
     16  C25       36.6300   11.5150   41.5440 C.3   300  XCF300      0.0041
     17  C26       36.7060   11.3060   43.0530 C.3   300  XCF300      0.0041
     18  O13       33.5930   11.7550   43.4800 O.3   300  XCF300     -0.4716
     19  C12       32.3320   12.3020   43.4970 C.ar  300  XCF300      0.1752
     20  C15       31.9660   13.1450   44.5250 C.ar  300  XCF300      0.2060
     21  O16       32.9000   13.4260   45.5030 O.3   300  XCF300     -0.4654
     22  C17       34.1070   14.1100   45.1510 C.3   300  XCF300      0.2528
     23  C18       30.6900   13.6900   44.5540 C.ar  300  XCF300      0.1751
     24  C21       29.7940   13.3830   43.5280 C.ar  300  XCF300      0.0363
     25  O19       30.3200   14.5360   45.5770 O.3   300  XCF300     -0.4683
     26  C20       28.9820   15.0290   45.6370 C.3   300  XCF300      0.2526
@<TRIPOS>BOND
     1     8     7    1
     2     7     3    2
     3     7     6    1
     4     3     2    2
     5    13    12    2
     6    13    14    1
     7     9     6    1
     8     9    10    1
     9    12    11    1
    10     1     2    1
    11     6     5    2
    12     2     4    2
    13    16    15    1
    14    16    17    1
    15    14    15    1
    16    14    18    1
    17    15    17    1
    18     4     5    1
    19    11    10   ar
    20    11    19   ar
    21    10    24   ar
    22    18    19    1
    23    19    20   ar
    24    24    23   ar
    25    20    23   ar
    26    20    21    1
    27    23    25    1
    28    22    21    1
    29    25    26    1
