@<TRIPOS>MOLECULE
3fy9_NAP_X_1.pdb
 48 52 0 0 0
SMALL
GASTEIGER

@<TRIPOS>ATOM
      1  PA        24.0990   21.5180   42.7470 P.3   301  NAP301      0.2189
      2  O1A       25.3280   20.7180   42.5750 O.3   301  NAP301     -0.4371
      3  O2A       22.9470   21.0560   41.9600 O.2   301  NAP301     -0.5170
      4  O5B       24.4910   23.0150   42.3300 O.3   301  NAP301     -0.3112
      5  C5B       23.4740   23.9870   42.2940 C.3   301  NAP301      0.1813
      6  C4B       24.0370   25.2390   41.6590 C.3   301  NAP301      0.1820
      7  O4B       24.0680   25.0470   40.2650 O.3   301  NAP301     -0.3136
      8  C3B       23.1960   26.4890   41.8640 C.3   301  NAP301      0.2157
      9  O3B       23.3960   27.1110   43.1200 O.3   301  NAP301     -0.2175
     10  C2B       23.6680   27.3080   40.6780 C.3   301  NAP301      0.2314
     11  O2B       24.9610   27.8020   40.9120 O.3   301  NAP301     -0.2630
     12  C1B       23.7790   26.2610   39.5960 C.3   301  NAP301      0.3158
     13  N9A       22.5200   26.1270   38.8560 N.pl3 301  NAP301     -0.1439
     14  C8A       21.5910   25.1320   39.0030 C.3   301  NAP301      0.3377
     15  N7A       20.5730   25.3450   38.1390 N.2   301  NAP301     -0.2095
     16  C5A       20.8530   26.4680   37.4350 C.2   301  NAP301      0.2526
     17  C6A       20.1660   27.1370   36.4370 C.2   301  NAP301      0.4393
     18  N6A       18.9930   26.6680   36.0070 N.pl3 301  NAP301      0.2180
     19  N1A       20.7070   28.2930   35.9080 N.2   301  NAP301      0.0021
     20  C2A       21.9170   28.7710   36.3540 C.3   301  NAP301      0.5254
     21  N3A       22.5980   28.1050   37.3390 N.2   301  NAP301     -0.0055
     22  C4A       22.0720   26.9740   37.8770 C.2   301  NAP301      0.3518
     23  O3        23.7140   21.6930   44.3100 O.3   301  NAP301     -0.2703
     24  PN        22.6550   21.0430   45.3420 P.3   301  NAP301      0.2189
     25  O1N       21.3010   21.1030   44.7570 O.2   301  NAP301     -0.5170
     26  O2N       22.9090   21.6450   46.6660 O.3   301  NAP301     -0.4371
     27  O5D       23.1730   19.5310   45.3530 O.3   301  NAP301     -0.3112
     28  C5D       24.4180   19.2360   45.9280 C.3   301  NAP301      0.1813
     29  C4D       24.2610   17.9420   46.7100 C.3   301  NAP301      0.1799
     30  O4D       24.1720   16.8760   45.7860 O.3   301  NAP301     -0.3327
     31  C3D       25.4510   17.6620   47.6280 C.3   301  NAP301      0.2158
     32  O3D       24.9890   17.1560   48.8580 O.3   301  NAP301     -0.2175
     33  C2D       26.2300   16.5960   46.9120 C.3   301  NAP301      0.2309
     34  O2D       26.9420   15.8200   47.8400 O.3   301  NAP301     -0.2158
     35  C1D       25.1000   15.8660   46.1790 C.3   301  NAP301      0.2263
     36  N1N       25.4760   15.0630   44.9960 N.pl3 301  NAP301     -0.2787
     37  C2N       25.1000   13.7490   44.9770 C.3   301  NAP301      0.1244
     38  C3N       25.4040   12.9370   43.8850 C.2   301  NAP301      0.0544
     39  C7N       25.0410   11.5420   43.9730 C.2   301  NAP301      0.2818
     40  O7N       25.0390   10.7480   42.9260 O.2   301  NAP301     -0.2670
     41  N7N       24.6770   11.0300   45.1520 N.am  301  NAP301     -0.0839
     42  C4N       26.0920   13.4870   42.8060 C.2   301  NAP301      0.0033
     43  C5N       26.4730   14.8260   42.8470 C.2   301  NAP301      0.0157
     44  C6N       26.1530   15.6070   43.9500 C.2   301  NAP301      0.0633
     45  P2B       25.1920   29.3430   41.2950 P.3   301  NAP301      0.5328
     46  O1X       24.3890   30.1990   40.3650 O.2   301  NAP301     -0.2224
     47  O2X       26.6770   29.6120   41.1910 O.3   301  NAP301     -0.1145
     48  O3X       24.7290   29.6180   42.6940 O.3   301  NAP301     -0.1145
@<TRIPOS>BOND
     1    19    20    1
     2    19    17    2
     3    18    17    1
     4    20    21    1
     5    17    16    1
     6    21    22    2
     7    16    22    1
     8    16    15    2
     9    22    13    1
    10    15    14    1
    11    13    14    1
    12    13    12    1
    13    12     7    1
    14    12    10    1
    15     7     6    1
    16    46    45    2
    17    10    11    1
    18    10     8    1
    19    11    45    1
    20    47    45    1
    21    45    48    1
    22     6     8    1
    23     6     5    1
    24     8     9    1
    25     3     1    2
    26     5     4    1
    27     4     1    1
    28     2     1    1
    29     1    23    1
    30    42    43    1
    31    42    38    2
    32    43    44    2
    33    40    39    2
    34    38    39    1
    35    38    37    1
    36    44    36    1
    37    39    41   am
    38    23    24    1
    39    25    24    2
    40    37    36    1
    41    36    35    1
    42    24    27    1
    43    24    26    1
    44    27    28    1
    45    30    35    1
    46    30    29    1
    47    28    29    1
    48    35    33    1
    49    29    31    1
    50    33    31    1
    51    33    34    1
    52    31    32    1
