@<TRIPOS>MOLECULE
3fye_DMU_A_1.pdb
 33 34 0 0 0
SMALL
GASTEIGER

@<TRIPOS>ATOM
      1  C1       -34.2090  -27.4740   -4.3540 C.3   574  DMU574      0.2404
      2  C2       -35.5740  -26.7890   -4.3400 C.3   574  DMU574      0.2167
      3  C3       -36.2220  -26.8670   -2.9490 C.3   574  DMU574      0.1804
      4  C4       -35.2390  -26.2900   -1.9160 C.3   574  DMU574      0.1803
      5  O5       -33.9900  -26.9960   -2.0010 O.3   574  DMU574     -0.3257
      6  C6       -33.3420  -26.8320   -3.2780 C.3   574  DMU574      0.2695
      7  O7       -37.4400  -26.0930   -2.9150 O.3   574  DMU574     -0.3257
      8  O16      -32.1080  -27.5270   -3.2100 O.3   574  DMU574     -0.3286
      9  C18      -31.0670  -26.8020   -2.5580 C.3   574  DMU574      0.1449
     10  C19      -29.7390  -27.2980   -3.1210 C.3   574  DMU574      0.0322
     11  C22      -28.5350  -26.7550   -2.3620 C.3   574  DMU574      0.0026
     12  C25      -27.3360  -27.7140   -2.4500 C.3   574  DMU574      0.0001
     13  C28      -26.7140  -27.7890   -3.8400 C.3   574  DMU574      0.0000
     14  C31      -25.2850  -28.3220   -3.7530 C.3   574  DMU574      0.0000
     15  C34      -24.9500  -29.2600   -4.9030 C.3   574  DMU574      0.0000
     16  C37      -23.4710  -29.6600   -4.8730 C.3   574  DMU574      0.0000
     17  C40      -22.5670  -28.6960   -5.6460 C.3   574  DMU574      0.0000
     18  C43      -21.1210  -29.1680   -5.6180 C.3   574  DMU574      0.0000
     19  O49      -33.6050  -27.2400   -5.6210 O.3   574  DMU574     -0.2149
     20  O55      -36.3730  -27.4300   -5.3240 O.3   574  DMU574     -0.2175
     21  C57      -35.6710  -26.2450   -0.4470 C.3   574  DMU574      0.2141
     22  O61      -36.0700  -27.5340   -0.0550 O.3   574  DMU574     -0.2176
     23  C5       -39.5590  -26.3840   -4.1300 C.3   574  DMU574      0.2406
     24  C7       -40.2120  -25.0600   -3.6850 C.3   574  DMU574      0.2198
     25  C8       -40.9380  -25.2540   -2.3650 C.3   574  DMU574      0.2144
     26  C9       -39.8820  -25.7660   -1.3610 C.3   574  DMU574      0.1835
     27  O1       -39.3180  -27.0240   -1.8300 O.3   574  DMU574     -0.3256
     28  C10      -38.6040  -26.9130   -3.0740 C.3   574  DMU574      0.2695
     29  O2       -41.6330  -24.0800   -1.9580 O.3   574  DMU574     -0.2176
     30  O3       -38.8190  -26.1410   -5.3020 O.3   574  DMU574     -0.2149
     31  O4       -41.0530  -24.5500   -4.7060 O.3   574  DMU574     -0.2174
     32  C11      -40.3230  -25.9140    0.0920 C.3   574  DMU574      0.2142
     33  O6       -41.3700  -26.8680    0.0990 O.3   574  DMU574     -0.2176
@<TRIPOS>BOND
     1    17    18    1
     2    17    16    1
     3    19     1    1
     4    20     2    1
     5    30    23    1
     6    15    16    1
     7    15    14    1
     8    31    24    1
     9     1     2    1
    10     1     6    1
    11     2     3    1
    12    23    24    1
    13    23    28    1
    14    13    14    1
    15    13    12    1
    16    24    25    1
    17     6     8    1
    18     6     5    1
    19     8     9    1
    20    10     9    1
    21    10    11    1
    22    28     7    1
    23    28    27    1
    24     3     7    1
    25     3     4    1
    26    12    11    1
    27    25    29    1
    28    25    26    1
    29     5     4    1
    30     4    21    1
    31    27    26    1
    32    26    32    1
    33    21    22    1
    34    32    33    1
