@<TRIPOS>MOLECULE
3fyg_GPR_A_1.pdb
 35 37 0 0 0
SMALL
GASTEIGER

@<TRIPOS>ATOM
      1  N1        26.4330   22.1410   12.8210 N.3   218  GPR218     -0.1208
      2  CA1       27.5780   22.9720   13.0500 C.3   218  GPR218      0.1948
      3  C1        28.7650   22.0970   13.4100 C.2   218  GPR218      0.3819
      4  O11       29.8590   22.4940   13.0150 O.co2 218  GPR218     -0.2441
      5  O12       28.5090   21.0530   14.0690 O.co2 218  GPR218     -0.2441
      6  CB1       27.3130   24.0060   14.1600 C.3   218  GPR218      0.0402
      7  CG1       28.0560   25.3420   13.9030 C.3   218  GPR218      0.0889
      8  CD1       27.5350   26.5000   14.6870 C.2   218  GPR218      0.2418
      9  OE1       26.4080   26.5000   15.1620 O.2   218  GPR218     -0.2733
     10  N2        28.5010   27.3220   15.1970 N.am  218  GPR218     -0.1969
     11  CA2       28.1160   28.5070   15.9530 C.3   218  GPR218      0.1834
     12  C2        28.7310   29.7270   15.3630 C.2   218  GPR218      0.2626
     13  O2        29.0300   30.6200   16.1240 O.2   218  GPR218     -0.2714
     14  CB2       28.9190   28.6220   17.2580 C.3   218  GPR218      0.0890
     15  SG2       28.7310   27.1810   18.0310 S.3   218  GPR218     -0.1314
     16  N3        28.9360   29.6920   14.0630 N.am  218  GPR218     -0.1917
     17  CA3       29.5340   30.7970   13.3640 C.3   218  GPR218      0.2285
     18  C3        28.4490   31.6460   12.7630 C.2   218  GPR218      0.3865
     19  O31       27.4240   31.7520   13.4560 O.co2 218  GPR218     -0.2437
     20  O32       28.6800   32.2370   11.6700 O.co2 218  GPR218     -0.2437
     21  CA4       27.0310   27.1540   18.5580 C.3   218  GPR218      0.1044
     22  CB4       26.8520   28.0830   19.7430 C.ar  218  GPR218     -0.0097
     23  CG4       26.5190   29.4090   19.3480 C.ar  218  GPR218     -0.0034
     24  CD4       26.2710   30.2310   20.3960 C.ar  218  GPR218     -0.0003
     25  CE4       26.4590   29.8600   21.7300 C.ar  218  GPR218     -0.0000
     26  CZ4       26.7750   28.5600   22.0910 C.ar  218  GPR218     -0.0003
     27  CH4       26.9120   27.6230   21.0770 C.ar  218  GPR218     -0.0033
     28  CH5       27.3220   26.2700   21.2840 C.ar  218  GPR218     -0.0018
     29  CZ5       28.0220   25.9250   22.4750 C.ar  218  GPR218     -0.0002
     30  CE5       28.3640   24.5900   22.6920 C.ar  218  GPR218     -0.0000
     31  CD5       28.0650   23.6180   21.6790 C.ar  218  GPR218     -0.0002
     32  CG5       27.3990   23.9800   20.4700 C.ar  218  GPR218     -0.0018
     33  CB5       27.0740   25.3420   20.2870 C.ar  218  GPR218      0.0089
     34  CA5       26.3910   25.7750   18.9990 C.3   218  GPR218      0.1881
     35  O5        24.9210   25.8900   19.2680 O.3   218  GPR218     -0.2170
@<TRIPOS>BOND
     1    20    18   ar
     2    18    17    1
     3    18    19   ar
     4     1     2    1
     5     4     3   ar
     6     2     3    1
     7     2     6    1
     8    17    16    1
     9     3     5   ar
    10     7     6    1
    11     7     8    1
    12    16    12   am
    13     8     9    2
    14     8    10   am
    15    10    11    1
    16    12    11    1
    17    12    13    2
    18    11    14    1
    19    14    15    1
    20    15    21    1
    21    21    34    1
    22    21    22    1
    23    34    35    1
    24    34    33    1
    25    23    22   ar
    26    23    24   ar
    27    22    27   ar
    28    33    32   ar
    29    33    28   ar
    30    24    25   ar
    31    32    31   ar
    32    27    28    1
    33    27    26   ar
    34    28    29   ar
    35    31    30   ar
    36    25    26   ar
    37    29    30   ar
