@<TRIPOS>MOLECULE
3fyh_ADP_A_1.pdb
 27 29 0 0 0
SMALL
GASTEIGER

@<TRIPOS>ATOM
      1  PB        28.2550   56.4750  -10.7050 P.3   401  ADP401      0.5373
      2  O1B       27.3870   56.0640   -9.6140 O.3   401  ADP401     -0.1143
      3  O2B       29.6710   56.1650  -10.4430 O.3   401  ADP401     -0.1143
      4  O3B       28.0770   58.0060  -10.9790 O.2   401  ADP401     -0.2221
      5  PA        26.6890   54.6790  -12.2210 P.3   401  ADP401      0.2231
      6  O1A       26.8140   53.5250  -11.2610 O.3   401  ADP401     -0.4370
      7  O2A       25.4150   55.3340  -12.0460 O.2   401  ADP401     -0.5169
      8  O3A       27.8840   55.7250  -12.0440 O.3   401  ADP401     -0.2261
      9  O5'       26.9370   54.1080  -13.7370 O.3   401  ADP401     -0.3111
     10  C5'       26.2400   54.6920  -14.9390 C.3   401  ADP401      0.1813
     11  C4'       26.5710   53.9720  -16.0320 C.3   401  ADP401      0.1821
     12  O4'       26.0810   52.5790  -15.8170 O.3   401  ADP401     -0.3135
     13  C3'       25.6700   54.4390  -17.2140 C.3   401  ADP401      0.2184
     14  O3'       25.8850   55.6680  -17.7110 O.3   401  ADP401     -0.2174
     15  C2'       25.4410   53.2140  -18.0610 C.3   401  ADP401      0.2570
     16  O2'       26.5950   53.1440  -19.0410 O.3   401  ADP401     -0.2130
     17  C1'       25.6410   52.0700  -17.1070 C.3   401  ADP401      0.3186
     18  N9        24.4040   51.5220  -17.0420 N.pl3 401  ADP401     -0.1439
     19  C8        23.3340   51.8090  -16.1440 C.3   401  ADP401      0.3377
     20  N7        22.3010   51.0710  -16.4400 N.2   401  ADP401     -0.2095
     21  C5        22.6300   50.2880  -17.5150 C.2   401  ADP401      0.2526
     22  C6        21.9500   49.3370  -18.2620 C.2   401  ADP401      0.4393
     23  N6        20.6620   49.0110  -17.9690 N.pl3 401  ADP401      0.2180
     24  N1        22.6150   48.7160  -19.3270 N.2   401  ADP401      0.0021
     25  C2        23.9610   49.0430  -19.6630 C.3   401  ADP401      0.5254
     26  N3        24.6690   49.9750  -18.9590 N.2   401  ADP401     -0.0055
     27  C4        23.9450   50.5690  -17.8880 C.2   401  ADP401      0.3518
@<TRIPOS>BOND
     1    25    24    1
     2    25    26    1
     3    24    22    2
     4    16    15    1
     5    26    27    2
     6    22    23    1
     7    22    21    1
     8    15    13    1
     9    15    17    1
    10    27    21    1
    11    27    18    1
    12    14    13    1
    13    21    20    2
    14    13    11    1
    15    17    18    1
    16    17    12    1
    17    18    19    1
    18    20    19    1
    19    11    12    1
    20    11    10    1
    21    10     9    1
    22     9     5    1
    23     5     7    2
    24     5     8    1
    25     5     6    1
    26     8     1    1
    27     4     1    2
    28     1     3    1
    29     1     2    1
