@<TRIPOS>MOLECULE
3fyi_DMU_A_1.pdb
 33 34 0 0 0
SMALL
GASTEIGER

@<TRIPOS>ATOM
      1  C1       -33.9730  -27.4630   -4.4060 C.3   573  DMU573      0.2404
      2  C2       -35.3240  -26.7400   -4.4420 C.3   573  DMU573      0.2167
      3  C3       -35.9830  -26.8030   -3.0560 C.3   573  DMU573      0.1804
      4  C4       -35.0080  -26.2160   -2.0220 C.3   573  DMU573      0.1803
      5  O5       -33.7650  -26.9470   -2.0720 O.3   573  DMU573     -0.3257
      6  C6       -33.1000  -26.7980   -3.3400 C.3   573  DMU573      0.2695
      7  O7       -37.1910  -26.0260   -3.0780 O.3   573  DMU573     -0.3257
      8  O16      -31.8540  -27.4720   -3.2480 O.3   573  DMU573     -0.3286
      9  C18      -30.7770  -26.6870   -2.7320 C.3   573  DMU573      0.1449
     10  C19      -29.4800  -27.2900   -3.2580 C.3   573  DMU573      0.0322
     11  C22      -28.2450  -26.8200   -2.4950 C.3   573  DMU573      0.0026
     12  C25      -27.1130  -27.8460   -2.6070 C.3   573  DMU573      0.0001
     13  C28      -26.3110  -27.7410   -3.8990 C.3   573  DMU573      0.0000
     14  C31      -25.0420  -28.5800   -3.7830 C.3   573  DMU573      0.0000
     15  C34      -24.4720  -28.9220   -5.1510 C.3   573  DMU573      0.0000
     16  C37      -23.2270  -29.8020   -5.0330 C.3   573  DMU573      0.0000
     17  C40      -21.9600  -28.9940   -5.2970 C.3   573  DMU573      0.0000
     18  C43      -20.7960  -29.9030   -5.6410 C.3   573  DMU573      0.0000
     19  O49      -33.3470  -27.3220   -5.6720 O.3   573  DMU573     -0.2149
     20  O55      -36.1700  -27.3090   -5.4410 O.3   573  DMU573     -0.2175
     21  C57      -35.5070  -26.1110   -0.5770 C.3   573  DMU573      0.2141
     22  O61      -35.7390  -27.3940   -0.0370 O.3   573  DMU573     -0.2176
     23  C5       -39.3210  -26.3080   -4.2470 C.3   573  DMU573      0.2406
     24  C7       -39.9290  -24.9800   -3.7650 C.3   573  DMU573      0.2198
     25  C8       -40.6490  -25.2010   -2.4350 C.3   573  DMU573      0.2144
     26  C9       -39.5890  -25.7260   -1.4410 C.3   573  DMU573      0.1835
     27  O1       -39.0220  -26.9670   -1.9490 O.3   573  DMU573     -0.3256
     28  C10      -38.3490  -26.8510   -3.2130 C.3   573  DMU573      0.2695
     29  O2       -41.3530  -24.0330   -2.0050 O.3   573  DMU573     -0.2176
     30  O3       -38.6270  -26.0930   -5.4600 O.3   573  DMU573     -0.2149
     31  O4       -40.8100  -24.4680   -4.7450 O.3   573  DMU573     -0.2174
     32  C11      -40.0640  -25.9560   -0.0100 C.3   573  DMU573      0.2142
     33  O6       -41.1550  -26.8590   -0.0880 O.3   573  DMU573     -0.2176
@<TRIPOS>BOND
     1    19     1    1
     2    18    17    1
     3    30    23    1
     4    20     2    1
     5    17    16    1
     6    15    16    1
     7    15    14    1
     8    31    24    1
     9     2     1    1
    10     2     3    1
    11     1     6    1
    12    23    24    1
    13    23    28    1
    14    13    14    1
    15    13    12    1
    16    24    25    1
    17     6     8    1
    18     6     5    1
    19    10     9    1
    20    10    11    1
    21     8     9    1
    22    28     7    1
    23    28    27    1
    24     7     3    1
    25     3     4    1
    26    12    11    1
    27    25    29    1
    28    25    26    1
    29     5     4    1
    30     4    21    1
    31    27    26    1
    32    26    32    1
    33    21    22    1
    34    33    32    1
