@<TRIPOS>MOLECULE
3fyj_B97_X_1.pdb
 27 31 0 0 0
SMALL
GASTEIGER

@<TRIPOS>ATOM
      1  C15       81.6070  262.5390  109.5160 C.2   372  B97372     -0.0123
      2  C19       78.4150  264.7470  106.7450 C.ar  372  B97372      0.0053
      3  C10       83.3860  263.4780  106.5460 C.2   372  B97372      0.0287
      4  C9        84.6910  263.2190  106.8690 C.2   372  B97372      0.0082
      5  C14       80.3250  262.8230  109.1210 C.2   372  B97372      0.0282
      6  C20       77.0950  265.0480  106.4790 C.ar  372  B97372      0.0148
      7  C24       77.6580  262.8840  107.9140 C.ar  372  B97372      0.1009
      8  C16       82.6580  262.7530  108.6580 C.3   372  B97372      0.0982
      9  C17       83.9680  262.4570  109.0650 C.2   372  B97372      0.0090
     10  C18       78.7330  263.6370  107.4910 C.ar  372  B97372      0.0487
     11  C11       82.3540  263.2570  107.4110 C.2   372  B97372      0.1168
     12  C5        84.5660  261.9380  110.2720 C.2   372  B97372      0.0767
     13  C8        84.9500  262.7150  108.1190 C.2   372  B97372      0.0246
     14  C13       80.1020  263.3210  107.8640 C.2   372  B97372      0.1322
     15  C6        85.9450  261.8130  110.2130 C.3   372  B97372      0.1964
     16  C21       76.1040  264.2250  106.9600 C.ar  372  B97372      0.0594
     17  C25       86.9510  261.3790  111.1340 C.1   372  B97372      0.1415
     18  C3        84.2870  260.8810  112.5500 C.3   372  B97372      0.1501
     19  C2        85.3200  259.8170  112.2420 C.3   372  B97372      0.1388
     20  C22       74.6780  264.5520  106.6720 C.3   372  B97372      0.0521
     21  C1        84.8780  258.7880  111.2320 C.3   372  B97372      0.0293
     22  N23       76.3620  263.1260  107.6740 N.ar  372  B97372     -0.2481
     23  N12       81.1060  263.5450  107.0120 N.2   372  B97372     -0.4055
     24  N4        83.8150  261.6080  111.3720 N.2   372  B97372     -0.2709
     25  N27       86.6370  260.3100  111.9370 N.2   372  B97372     -0.2053
     26  O26       88.0320  261.9510  111.2130 O.2   372  B97372     -0.2258
     27  S7        86.5220  262.3270  108.6950 S.3   372  B97372     -0.0921
@<TRIPOS>BOND
     1     6     2   ar
     2     6    16   ar
     3     3     4    2
     4     3    11    1
     5    20    16    1
     6     2    10   ar
     7     4    13    1
     8    16    22   ar
     9    23    11    2
    10    23    14    2
    11    11     8    1
    12    10    14    1
    13    10     7   ar
    14    22     7   ar
    15    14     5    1
    16    13    27    1
    17    13     9    2
    18     8     9    1
    19     8     1    1
    20    27    15    1
    21     9    12    1
    22     5     1    2
    23    15    12    1
    24    15    17    1
    25    12    24    2
    26    17    26    2
    27    17    25    2
    28    21    19    1
    29    24    18    1
    30    25    19    1
    31    19    18    1
