@<TRIPOS>MOLECULE
3fyk_B98_X_1.pdb
 19 21 0 0 0
SMALL
GASTEIGER

@<TRIPOS>ATOM
      1  C4        83.1280  262.8670  106.1580 C.ar  372  B98372      0.0374
      2  C5        84.4490  262.6760  106.4570 C.ar  372  B98372      0.0093
      3  C19       82.4390  261.8550  108.2380 C.ar  372  B98372      0.0386
      4  C18       83.7670  261.6470  108.5690 C.ar  372  B98372      0.0238
      5  C17       84.3470  261.0510  109.7300 C.2   372  B98372      0.0801
      6  C3        82.1570  262.4660  107.0330 C.ar  372  B98372      0.1388
      7  C6        84.7200  262.0690  107.6600 C.ar  372  B98372      0.0279
      8  C8        85.7250  261.0090  109.7110 C.3   372  B98372      0.1967
      9  C9        86.7430  260.5340  110.6120 C.1   372  B98372      0.1415
     10  C15       84.1620  260.1460  112.0070 C.3   372  B98372      0.1517
     11  C12       85.1630  259.0210  111.8450 C.3   372  B98372      0.1577
     12  C1        80.0220  262.1720  107.6450 C.3   372  B98372      0.2525
     13  C13       84.6790  257.8940  110.9640 C.3   372  B98372      0.1364
     14  N16       83.5760  260.5680  110.7380 N.2   372  B98372     -0.2706
     15  N11       86.4620  259.4550  111.4170 N.2   372  B98372     -0.2037
     16  N14       83.5130  257.3220  111.6660 N.3   372  B98372     -0.1292
     17  O10       87.8430  261.0670  110.6560 O.2   372  B98372     -0.2258
     18  O2        80.8580  262.7080  106.6340 O.3   372  B98372     -0.4714
     19  S7        86.2810  261.7220  108.2630 S.3   372  B98372     -0.0917
@<TRIPOS>BOND
     1     1     2   ar
     2     1     6   ar
     3     2     7   ar
     4    18     6    1
     5    18    12    1
     6     6     3   ar
     7     7    19    1
     8     7     4   ar
     9     3     4   ar
    10    19     8    1
    11     4     5    1
    12     8     5    1
    13     8     9    1
    14     5    14    2
    15     9    17    2
    16     9    15    2
    17    14    10    1
    18    13    16    1
    19    13    11    1
    20    15    11    1
    21    11    10    1
