@<TRIPOS>MOLECULE
3fyo_PEP_D_1.pdb
 10 9 0 0 0
SMALL
GASTEIGER

@<TRIPOS>ATOM
      1  C1        31.3360  -10.9180   75.9050 C.2   281  PEP281      0.3919
      2  O1        32.4250  -10.8570   75.3000 O.co2 281  PEP281     -0.2429
      3  O2'       30.8840  -11.9770   76.3990 O.co2 281  PEP281     -0.2429
      4  C2        30.5520   -9.6660   76.0740 C.3   281  PEP281      0.2285
      5  C3        29.0750   -9.8740   76.3020 C.3   281  PEP281      0.0450
      6  O2        30.9470   -8.6040   75.2230 O.3   281  PEP281     -0.2611
      7  P         30.3030   -7.1240   75.1830 P.3   281  PEP281      0.5330
      8  O1P       31.2190   -6.3860   74.2340 O.2   281  PEP281     -0.2224
      9  O2P       30.3250   -6.6270   76.6140 O.3   281  PEP281     -0.1145
     10  O3P       28.9260   -7.2770   74.6080 O.3   281  PEP281     -0.1145
@<TRIPOS>BOND
     1     8     7    2
     2    10     7    1
     3     7     6    1
     4     7     9    1
     5     6     4    1
     6     2     1   ar
     7     1     4    1
     8     1     3   ar
     9     4     5    1
