@<TRIPOS>MOLECULE
3fyp_PEP_D_1.pdb
 10 9 0 0 0
SMALL
GASTEIGER

@<TRIPOS>ATOM
      1  C1        30.5300  -11.1120   76.1710 C.2   281  PEP281      0.4216
      2  O1        31.4980  -11.1880   75.3850 O.co2 281  PEP281     -0.2371
      3  O2'       30.1850  -12.0500   76.9250 O.co2 281  PEP281     -0.2371
      4  C2        29.8060   -9.8020   76.2320 C.2   281  PEP281      0.2283
      5  C3        28.7190   -9.6060   76.9990 C.2   281  PEP281      0.0477
      6  O2        30.4870   -8.8140   75.4510 O.2   281  PEP281     -0.3930
      7  P         29.9640   -7.3130   75.1970 P.3   281  PEP281      0.5889
      8  O1P       30.7070   -6.7750   74.0050 O.2   281  PEP281     -0.2114
      9  O2P       30.1650   -6.4240   76.4140 O.3   281  PEP281     -0.1039
     10  O3P       28.4980   -7.3810   74.8310 O.3   281  PEP281     -0.1039
@<TRIPOS>BOND
     1     8     7    2
     2    10     7    1
     3     7     6    1
     4     7     9    1
     5     2     1   ar
     6     6     4    1
     7     1     4    1
     8     1     3   ar
     9     4     5    2
