@<TRIPOS>MOLECULE
3fyt_XYP_C_1.pdb
 10 10 0 0 0
SMALL
GASTEIGER

@<TRIPOS>ATOM
      1  O4A       60.7570  -40.9050   53.2840 O.3   1002  XYP1002    -0.1869
      2  C1B       60.0720  -41.2200   54.4620 C.3   1002  XYP1002     0.3024
      3  C2B       58.7640  -40.4490   54.4100 C.3   1002  XYP1002     0.2434
      4  C3B       57.9590  -40.7670   55.6670 C.3   1002  XYP1002     0.2199
      5  C4B       57.7320  -42.2670   55.7730 C.3   1002  XYP1002     0.2143
      6  C5B       59.1110  -42.9580   55.7380 C.3   1002  XYP1002     0.1804
      7  O2B       58.9620  -39.0200   54.3690 O.3   1002  XYP1002    -0.2148
      8  O3B       56.6760  -40.1010   55.6820 O.3   1002  XYP1002    -0.2174
      9  O4B       57.0890  -42.5940   56.9810 O.3   1002  XYP1002    -0.2176
     10  O5B       59.8200  -42.6000   54.5110 O.3   1002  XYP1002    -0.3237
@<TRIPOS>BOND
     1     1     2    1
     2     7     3    1
     3     3     2    1
     4     3     4    1
     5     2    10    1
     6    10     6    1
     7     4     8    1
     8     4     5    1
     9     6     5    1
    10     5     9    1
