@<TRIPOS>MOLECULE
3fyu_XYP_A_1.pdb
 10 10 0 0 0
SMALL
GASTEIGER

@<TRIPOS>ATOM
      1  O4A       51.5880   82.7890   23.2320 O.3   1000  XYP1000    -0.1869
      2  C1B       50.2440   82.4590   23.0830 C.3   1000  XYP1000     0.3024
      3  C2B       50.0220   81.1760   23.8840 C.3   1000  XYP1000     0.2434
      4  C3B       48.5570   80.7840   23.7680 C.3   1000  XYP1000     0.2199
      5  C4B       47.6780   81.9310   24.2690 C.3   1000  XYP1000     0.2143
      6  C5B       48.0280   83.2030   23.4500 C.3   1000  XYP1000     0.1804
      7  O2B       50.8010   80.0620   23.3970 O.3   1000  XYP1000    -0.2148
      8  O3B       48.2570   79.5820   24.5250 O.3   1000  XYP1000    -0.2174
      9  O4B       46.2950   81.6210   24.1180 O.3   1000  XYP1000    -0.2176
     10  O5B       49.4540   83.5070   23.5810 O.3   1000  XYP1000    -0.3237
@<TRIPOS>BOND
     1     2     1    1
     2     2    10    1
     3     2     3    1
     4     7     3    1
     5     6    10    1
     6     6     5    1
     7     4     3    1
     8     4     5    1
     9     4     8    1
    10     9     5    1
