@<TRIPOS>MOLECULE
3fyv_NAP_X_1.pdb
 48 52 0 0 0
SMALL
GASTEIGER

@<TRIPOS>ATOM
      1  PA        23.8920   21.5250   42.3120 P.3   301  NAP301      0.2189
      2  O1A       25.1500   20.7480   42.1660 O.3   301  NAP301     -0.4371
      3  O2A       22.7710   21.0220   41.4990 O.2   301  NAP301     -0.5170
      4  O5B       24.2480   23.0230   41.9090 O.3   301  NAP301     -0.3112
      5  C5B       23.3810   24.0710   42.2430 C.3   301  NAP301      0.1813
      6  C4B       23.8380   25.2350   41.4050 C.3   301  NAP301      0.1820
      7  O4B       23.8030   24.8870   40.0380 O.3   301  NAP301     -0.3136
      8  C3B       22.9770   26.4770   41.5370 C.3   301  NAP301      0.2157
      9  O3B       23.2220   27.1650   42.7380 O.3   301  NAP301     -0.2175
     10  C2B       23.4220   27.1940   40.2880 C.3   301  NAP301      0.2314
     11  O2B       24.7210   27.6900   40.4420 O.3   301  NAP301     -0.2630
     12  C1B       23.5400   26.0600   39.2880 C.3   301  NAP301      0.3158
     13  N9A       22.3080   25.9510   38.5020 N.pl3 301  NAP301     -0.1439
     14  C8A       21.3420   24.9850   38.5950 C.3   301  NAP301      0.3377
     15  N7A       20.3840   25.2600   37.6800 N.2   301  NAP301     -0.2095
     16  C5A       20.7330   26.3860   37.0100 C.2   301  NAP301      0.2526
     17  C6A       20.1200   27.0980   35.9900 C.2   301  NAP301      0.4393
     18  N6A       18.9650   26.6700   35.4990 N.pl3 301  NAP301      0.2180
     19  N1A       20.7220   28.2420   35.4910 N.2   301  NAP301      0.0021
     20  C2A       21.9320   28.6660   36.0180 C.3   301  NAP301      0.5254
     21  N3A       22.5320   27.9560   37.0420 N.2   301  NAP301     -0.0055
     22  C4A       21.9410   26.8330   37.5230 C.2   301  NAP301      0.3518
     23  O3        23.5030   21.7470   43.8620 O.3   301  NAP301     -0.2703
     24  PN        22.5850   20.9870   44.9480 P.3   301  NAP301      0.2189
     25  O1N       21.1760   21.0820   44.5010 O.2   301  NAP301     -0.5170
     26  O2N       22.9670   21.4830   46.2910 O.3   301  NAP301     -0.4371
     27  O5D       23.0920   19.4660   44.8770 O.3   301  NAP301     -0.3112
     28  C5D       24.3860   19.1690   45.3580 C.3   301  NAP301      0.1813
     29  C4D       24.3530   17.8570   46.1330 C.3   301  NAP301      0.1799
     30  O4D       24.2520   16.7510   45.2540 O.3   301  NAP301     -0.3327
     31  C3D       25.6190   17.6380   46.9330 C.3   301  NAP301      0.2158
     32  O3D       25.2890   17.1980   48.2270 O.3   301  NAP301     -0.2175
     33  C2D       26.3590   16.5320   46.2350 C.3   301  NAP301      0.2309
     34  O2D       27.0640   15.8100   47.2080 O.3   301  NAP301     -0.2158
     35  C1D       25.2090   15.7700   45.6000 C.3   301  NAP301      0.2263
     36  N1N       25.5130   14.9920   44.3840 N.pl3 301  NAP301     -0.2787
     37  C2N       25.2750   13.6510   44.4360 C.3   301  NAP301      0.1244
     38  C3N       25.5020   12.8480   43.3350 C.2   301  NAP301      0.0544
     39  C7N       25.0860   11.4090   43.4020 C.2   301  NAP301      0.2818
     40  O7N       25.0070   10.6820   42.2060 O.2   301  NAP301     -0.2670
     41  N7N       24.8140   10.8710   44.5950 N.am  301  NAP301     -0.0839
     42  C4N       25.9610   13.4170   42.1490 C.2   301  NAP301      0.0033
     43  C5N       26.1860   14.7900   42.1020 C.2   301  NAP301      0.0157
     44  C6N       25.9470   15.5730   43.2280 C.2   301  NAP301      0.0633
     45  P2B       25.0430   29.2010   40.9210 P.3   301  NAP301      0.5328
     46  O1X       24.5820   30.1010   39.8080 O.2   301  NAP301     -0.2224
     47  O2X       26.5450   29.2000   41.1070 O.3   301  NAP301     -0.1145
     48  O3X       24.3260   29.5010   42.2130 O.3   301  NAP301     -0.1145
@<TRIPOS>BOND
     1    19    17    2
     2    19    20    1
     3    18    17    1
     4    17    16    1
     5    20    21    1
     6    16    22    1
     7    16    15    2
     8    21    22    2
     9    22    13    1
    10    15    14    1
    11    13    14    1
    12    13    12    1
    13    12     7    1
    14    12    10    1
    15    46    45    2
    16     7     6    1
    17    10    11    1
    18    10     8    1
    19    11    45    1
    20    45    47    1
    21    45    48    1
    22     6     8    1
    23     6     5    1
    24     3     1    2
    25     8     9    1
    26     4     5    1
    27     4     1    1
    28    43    42    1
    29    43    44    2
    30    42    38    2
    31     2     1    1
    32    40    39    2
    33     1    23    1
    34    44    36    1
    35    38    39    1
    36    38    37    1
    37    39    41   am
    38    23    24    1
    39    36    37    1
    40    36    35    1
    41    25    24    2
    42    27    24    1
    43    27    28    1
    44    24    26    1
    45    30    35    1
    46    30    29    1
    47    28    29    1
    48    35    33    1
    49    29    31    1
    50    33    31    1
    51    33    34    1
    52    31    32    1
