@<TRIPOS>MOLECULE
3fyv_XCF_X_1.pdb
 26 29 0 0 0
SMALL
GASTEIGER

@<TRIPOS>ATOM
      1  N4        26.7290    7.1450   40.6360 N.pl3 300  XCF300     -0.0345
      2  C3        27.2330    8.3950   40.7570 C.1   300  XCF300      0.1877
      3  N5        26.7760    9.3550   39.9470 N.2   300  XCF300     -0.3170
      4  N2        28.1760    8.6590   41.6740 N.2   300  XCF300     -0.1675
      5  C1        28.6850    9.8910   41.7920 C.2   300  XCF300      0.1118
      6  C8        28.2260   10.9070   40.9630 C.2   300  XCF300      0.0500
      7  C6        27.2430   10.6000   40.0280 C.2   300  XCF300      0.2297
      8  N7        26.7460   11.5360   39.1850 N.pl3 300  XCF300     -0.0924
      9  C9        28.7620   12.3290   41.0510 C.3   300  XCF300      0.0585
     10  C10       29.8320   12.5910   42.1070 C.ar  300  XCF300     -0.0115
     11  C11       31.1240   12.1050   41.9740 C.ar  300  XCF300      0.0334
     12  C27       31.5110   11.3230   40.7870 C.2   300  XCF300      0.0018
     13  C28       32.7930   11.0360   40.5770 C.2   300  XCF300      0.0166
     14  C14       33.8860   11.4970   41.5320 C.3   300  XCF300      0.1880
     15  C24       34.9760   10.4260   41.6680 C.3   300  XCF300      0.0444
     16  C25       36.1720   10.5630   40.7250 C.3   300  XCF300      0.0041
     17  C26       36.3420   10.8570   42.2140 C.3   300  XCF300      0.0041
     18  O13       33.3610   11.8790   42.8110 O.3   300  XCF300     -0.4716
     19  C12       32.0870   12.3770   42.9340 C.ar  300  XCF300      0.1752
     20  C15       31.7730   13.1430   44.0430 C.ar  300  XCF300      0.2060
     21  O16       32.7260   13.4070   45.0010 O.3   300  XCF300     -0.4654
     22  C17       34.1110   13.5040   44.6590 C.3   300  XCF300      0.2528
     23  C18       30.4920   13.6410   44.1880 C.ar  300  XCF300      0.1751
     24  C21       29.5230   13.3710   43.2180 C.ar  300  XCF300      0.0363
     25  O19       30.1860   14.4060   45.2850 O.3   300  XCF300     -0.4683
     26  C20       28.8690   14.9390   45.4040 C.3   300  XCF300      0.2526
@<TRIPOS>BOND
     1     8     7    1
     2     3     7    2
     3     3     2    2
     4     7     6    1
     5    13    12    2
     6    13    14    1
     7     1     2    1
     8    16    15    1
     9    16    17    1
    10     2     4    2
    11    12    11    1
    12     6     9    1
    13     6     5    2
    14     9    10    1
    15    14    15    1
    16    14    18    1
    17    15    17    1
    18     4     5    1
    19    11    10   ar
    20    11    19   ar
    21    10    24   ar
    22    18    19    1
    23    19    20   ar
    24    24    23   ar
    25    20    23   ar
    26    20    21    1
    27    23    25    1
    28    22    21    1
    29    25    26    1
