@<TRIPOS>MOLECULE
3fyw_NAP_X_1.pdb
 48 52 0 0 0
SMALL
GASTEIGER

@<TRIPOS>ATOM
      1  PA        23.9800   21.5020   42.6320 P.3   301  NAP301      0.2189
      2  O1A       25.1730   20.6540   42.4250 O.3   301  NAP301     -0.4371
      3  O2A       22.8020   21.0420   41.8630 O.2   301  NAP301     -0.5170
      4  O5B       24.3430   23.0110   42.2410 O.3   301  NAP301     -0.3112
      5  C5B       23.4250   24.0430   42.5040 C.3   301  NAP301      0.1813
      6  C4B       23.8850   25.2330   41.6920 C.3   301  NAP301      0.1820
      7  O4B       23.8730   24.9120   40.3130 O.3   301  NAP301     -0.3136
      8  C3B       23.0220   26.4760   41.8170 C.3   301  NAP301      0.2157
      9  O3B       23.2470   27.1940   43.0060 O.3   301  NAP301     -0.2175
     10  C2B       23.4820   27.2010   40.5750 C.3   301  NAP301      0.2314
     11  O2B       24.7710   27.7190   40.7640 O.3   301  NAP301     -0.2630
     12  C1B       23.5980   26.0790   39.5610 C.3   301  NAP301      0.3158
     13  N9A       22.3380   25.9500   38.8190 N.pl3 301  NAP301     -0.1439
     14  C8A       21.3830   24.9840   38.9900 C.3   301  NAP301      0.3377
     15  N7A       20.3810   25.2170   38.1130 N.2   301  NAP301     -0.2095
     16  C5A       20.6840   26.3230   37.3940 C.2   301  NAP301      0.2526
     17  C6A       20.0130   26.9960   36.3790 C.2   301  NAP301      0.4393
     18  N6A       18.8350   26.5530   35.9490 N.pl3 301  NAP301      0.2180
     19  N1A       20.5830   28.1210   35.8150 N.2   301  NAP301      0.0021
     20  C2A       21.8100   28.5710   36.2680 C.3   301  NAP301      0.5254
     21  N3A       22.4700   27.9000   37.2770 N.2   301  NAP301     -0.0055
     22  C4A       21.9150   26.7930   37.8300 C.2   301  NAP301      0.3518
     23  O3        23.6640   21.6390   44.2010 O.3   301  NAP301     -0.2703
     24  PN        22.5990   20.9080   45.1590 P.3   301  NAP301      0.2189
     25  O1N       21.3040   20.8670   44.4530 O.2   301  NAP301     -0.5170
     26  O2N       22.6910   21.5630   46.4830 O.3   301  NAP301     -0.4371
     27  O5D       23.1860   19.4120   45.2930 O.3   301  NAP301     -0.3112
     28  C5D       24.4860   19.1800   45.7940 C.3   301  NAP301      0.1813
     29  C4D       24.5150   17.8810   46.5970 C.3   301  NAP301      0.1799
     30  O4D       24.2890   16.7670   45.7520 O.3   301  NAP301     -0.3327
     31  C3D       25.8540   17.6370   47.2740 C.3   301  NAP301      0.2158
     32  O3D       25.6600   17.2480   48.6130 O.3   301  NAP301     -0.2175
     33  C2D       26.4760   16.4870   46.5210 C.3   301  NAP301      0.2309
     34  O2D       27.2440   15.6790   47.3800 O.3   301  NAP301     -0.2158
     35  C1D       25.2540   15.7630   45.9910 C.3   301  NAP301      0.2263
     36  N1N       25.5070   14.9970   44.7600 N.pl3 301  NAP301     -0.2787
     37  C2N       25.1600   13.6790   44.7480 C.3   301  NAP301      0.1244
     38  C3N       25.3610   12.9080   43.6150 C.2   301  NAP301      0.0544
     39  C7N       25.1050   11.4340   43.6900 C.2   301  NAP301      0.2818
     40  O7N       25.1280   10.6690   42.5070 O.2   301  NAP301     -0.2670
     41  N7N       24.8580   10.8970   44.8860 N.am  301  NAP301     -0.0839
     42  C4N       25.9160   13.4850   42.4780 C.2   301  NAP301      0.0033
     43  C5N       26.2630   14.8320   42.5000 C.2   301  NAP301      0.0157
     44  C6N       26.0520   15.5820   43.6530 C.2   301  NAP301      0.0633
     45  P2B       25.0330   29.2530   41.1790 P.3   301  NAP301      0.5328
     46  O1X       24.4080   30.1170   40.1160 O.2   301  NAP301     -0.2224
     47  O2X       26.5340   29.4330   41.2430 O.3   301  NAP301     -0.1145
     48  O3X       24.4080   29.5360   42.5250 O.3   301  NAP301     -0.1145
@<TRIPOS>BOND
     1    19    20    1
     2    19    17    2
     3    18    17    1
     4    20    21    1
     5    17    16    1
     6    21    22    2
     7    16    22    1
     8    16    15    2
     9    22    13    1
    10    15    14    1
    11    13    14    1
    12    13    12    1
    13    12     7    1
    14    12    10    1
    15    46    45    2
    16     7     6    1
    17    10    11    1
    18    10     8    1
    19    11    45    1
    20    45    47    1
    21    45    48    1
    22     6     8    1
    23     6     5    1
    24     8     9    1
    25     3     1    2
    26     4     5    1
    27     4     1    1
    28     2     1    1
    29    42    43    1
    30    42    38    2
    31    43    44    2
    32    40    39    2
    33     1    23    1
    34    38    39    1
    35    38    37    1
    36    44    36    1
    37    39    41   am
    38    23    24    1
    39    25    24    2
    40    37    36    1
    41    36    35    1
    42    24    27    1
    43    24    26    1
    44    27    28    1
    45    30    35    1
    46    30    29    1
    47    28    29    1
    48    35    33    1
    49    33    31    1
    50    33    34    1
    51    29    31    1
    52    31    32    1
