@<TRIPOS>MOLECULE
3fyw_I2H_X_1.pdb
 26 29 0 0 0
SMALL
GASTEIGER

@<TRIPOS>ATOM
      1  N7        26.7000   11.6620   39.6000 N.pl3 300  I2H300     -0.0924
      2  C6        27.2120   10.6890   40.3870 C.2   300  I2H300      0.2294
      3  N5        26.7560    9.4390   40.2700 N.2   300  I2H300     -0.3170
      4  C3        27.2470    8.4600   41.0370 C.1   300  I2H300      0.1877
      5  N4        26.7590    7.2030   40.8870 N.pl3 300  I2H300     -0.0345
      6  N2        28.2080    8.7100   41.9410 N.2   300  I2H300     -0.1675
      7  C1        28.6980    9.9490   42.0950 C.2   300  I2H300      0.1115
      8  C8        28.2040   10.9810   41.3080 C.2   300  I2H300      0.0463
      9  C9        28.7060   12.4090   41.4180 C.3   300  I2H300      0.0410
     10  C10       29.7810   12.6330   42.4650 C.3   300  I2H300      0.0551
     11  C21       29.5120   13.4580   43.5550 C.2   300  I2H300      0.0185
     12  C18       30.4950   13.6830   44.5170 C.2   300  I2H300      0.1715
     13  O19       30.2500   14.4860   45.6020 O.2   300  I2H300     -0.4686
     14  C20       29.0170   15.1950   45.7060 C.3   300  I2H300      0.2526
     15  C11       31.0330   12.0480   42.3430 C.2   300  I2H300      0.0197
     16  C12       32.0090   12.2790   43.2980 C.2   300  I2H300      0.1778
     17  O13       33.2460   11.6900   43.1880 O.2   300  I2H300     -0.4549
     18  C15       31.7380   13.0910   44.3850 C.2   300  I2H300      0.2060
     19  O16       32.7060   13.3080   45.3290 O.2   300  I2H300     -0.4654
     20  C17       34.0760   13.4200   44.9430 C.3   300  I2H300      0.2528
     21  C27       31.3680   11.2100   41.1740 C.2   300  I2H300      0.0020
     22  C28       32.6240   10.8150   40.9800 C.2   300  I2H300      0.0327
     23  C14       33.7350   11.1830   41.9460 C.2   300  I2H300      0.1224
     24  C24       34.6100   12.2710   41.3110 C.3   300  I2H300      0.0575
     25  C26       36.0050   12.4570   41.9040 C.3   300  I2H300      0.0080
     26  C25       35.8400   11.8260   40.5240 C.3   300  I2H300      0.0080
@<TRIPOS>BOND
     1     1     2    1
     2     3     2    2
     3     3     4    2
     4     2     8    1
     5    26    24    1
     6    26    25    1
     7     5     4    1
     8    22    21    1
     9    22    23    2
    10     4     6    2
    11    21    15    2
    12     8     9    1
    13     8     7    2
    14    24    25    1
    15    24    23    1
    16     9    10    1
    17     6     7    1
    18    23    17    1
    19    15    10    1
    20    15    16    1
    21    10    11    1
    22    17    16    1
    23    16    18    2
    24    11    12    2
    25    18    12    1
    26    18    19    1
    27    12    13    1
    28    20    19    1
    29    13    14    1
