@<TRIPOS>MOLECULE
3fyx_451_A_1.pdb
 30 32 0 0 0
SMALL
GASTEIGER

@<TRIPOS>ATOM
      1  C1       -71.8890   21.9880   -0.5830 C.ar  341  451341      0.0199
      2  C2       -70.7920   22.8190   -0.8640 C.ar  341  451341      0.0766
      3  C3       -69.5210   22.4240   -0.4440 C.ar  341  451341      0.0566
      4  C4       -69.3130   21.2460    0.2780 C.ar  341  451341      0.1736
      5  C5       -70.4260   20.4050    0.5730 C.ar  341  451341      0.1724
      6  C6       -71.7090   20.7950    0.1370 C.ar  341  451341      0.0414
      7  O7       -70.1810   19.2280    1.2750 O.3   341  451341     -0.4697
      8  C8       -69.6420   18.0910    0.5580 C.3   341  451341      0.2374
      9  C9       -68.7270   17.2830    1.4470 C.3   341  451341      0.1895
     10  O10      -68.2140   18.0330    2.5550 O.3   341  451341     -0.3458
     11  C11      -68.8350   17.6820    3.8110 C.3   341  451341      0.1895
     12  C12      -68.0410   18.2520    4.9880 C.3   341  451341      0.2374
     13  O13      -66.6510   18.4110    4.6160 O.3   341  451341     -0.4697
     14  C14      -65.6170   18.3630    5.5440 C.ar  341  451341      0.1723
     15  C15      -64.6420   19.3970    5.5190 C.ar  341  451341      0.1723
     16  O16      -64.8020   20.4180    4.6130 O.3   341  451341     -0.4697
     17  C17      -65.2570   21.6890    5.1330 C.3   341  451341      0.2374
     18  C18      -66.7630   21.7950    5.1160 C.3   341  451341      0.1895
     19  O19      -67.1860   22.4590    3.9260 O.3   341  451341     -0.3458
     20  C20      -67.8560   21.5860    3.0180 C.3   341  451341      0.1895
     21  C21      -67.3030   21.7290    1.6220 C.3   341  451341      0.2374
     22  O22      -68.0470   20.8730    0.7150 O.3   341  451341     -0.4696
     23  C23      -65.4680   17.3290    6.4730 C.ar  341  451341      0.0400
     24  C24      -64.3890   17.3220    7.3530 C.ar  341  451341      0.0033
     25  C25      -63.4470   18.3490    7.3360 C.ar  341  451341      0.0033
     26  C26      -63.5740   19.3830    6.4160 C.ar  341  451341      0.0400
     27  N27      -70.9150   24.0200   -1.6000 N.am  341  451341     -0.1791
     28  C28      -70.3020   25.2120   -1.3110 C.2   341  451341      0.2461
     29  O29      -69.5830   25.3590   -0.3250 O.2   341  451341     -0.2730
     30  C30      -70.5210   26.3940   -2.2340 C.3   341  451341      0.0968
@<TRIPOS>BOND
     1    30    28    1
     2    27    28   am
     3    27     2    1
     4    28    29    2
     5     2     1   ar
     6     2     3   ar
     7     1     6   ar
     8     3     4   ar
     9     6     5   ar
    10     4     5   ar
    11     4    22    1
    12     8     7    1
    13     8     9    1
    14     5     7    1
    15    22    21    1
    16     9    10    1
    17    21    20    1
    18    10    11    1
    19    20    19    1
    20    11    12    1
    21    19    18    1
    22    16    17    1
    23    16    15    1
    24    13    12    1
    25    13    14    1
    26    18    17    1
    27    15    14   ar
    28    15    26   ar
    29    14    23   ar
    30    26    25   ar
    31    23    24   ar
    32    25    24   ar
