@<TRIPOS>MOLECULE
3fyz_MXC_A_1.pdb
 29 30 0 0 0
SMALL
GASTEIGER

@<TRIPOS>ATOM
      1  C1       107.2930   32.8400   26.9460 C.ar  300  MXC300      0.0596
      2  C2       106.6450   31.5660   26.9960 C.ar  300  MXC300      0.0222
      3  C3       105.4440   31.4660   27.7630 C.ar  300  MXC300      0.0652
      4  C4       104.5690   30.3430   28.0180 C.ar  300  MXC300      0.0186
      5  C5       103.5770   30.7850   28.8300 C.ar  300  MXC300      0.0437
      6  C6       103.7560   32.2630   29.1510 C.ar  300  MXC300      0.1312
      7  C7       105.5670   33.8490   28.3860 C.ar  300  MXC300      0.0813
      8  C8       106.7510   33.9810   27.6380 C.ar  300  MXC300      0.0237
      9  C9       108.5780   32.9870   26.1630 C.2   300  MXC300      0.2843
     10  C10      102.4650   29.9140   29.3460 C.3   300  MXC300      0.2114
     11  C11      103.0200   33.5170   31.3690 C.3   300  MXC300      0.2197
     12  C12      103.8470   34.8040   31.4270 C.2   300  MXC300      0.3860
     13  C13      101.5870   33.6010   32.0040 C.3   300  MXC300      0.1769
     14  C14      100.9010   34.9460   31.6090 C.3   300  MXC300      0.0296
     15  C15      101.7240   33.4650   33.5420 C.3   300  MXC300      0.2338
     16  C16      102.3470   34.7240   35.4430 C.2   300  MXC300      0.4411
     17  N1       104.9940   32.5950   28.4010 N.ar  300  MXC300     -0.2927
     18  N2       109.0910   34.2550   26.2010 N.am  300  MXC300     -0.0837
     19  N3       102.9480   33.0540   29.9630 N.pl3 300  MXC300     -0.2099
     20  N4       101.5000   33.9540   36.2150 N.am  300  MXC300     -0.0475
     21  O1       101.2230   30.3670   28.8140 O.3   300  MXC300     -0.2151
     22  O2       109.1540   32.1030   25.5500 O.2   300  MXC300     -0.2667
     23  O3       104.3400   35.3530   30.4450 O.co2 300  MXC300     -0.2437
     24  O4       104.0970   35.4870   32.7330 O.co2 300  MXC300     -0.2437
     25  O5        99.1780   32.4170   32.0890 O.3   300  MXC300     -0.0781
     26  O6       101.1390   30.7860   31.8280 O.3   300  MXC300     -0.0781
     27  O7       102.1640   34.6710   34.1040 O.3   300  MXC300     -0.4306
     28  O8       103.2010   35.4170   35.9560 O.2   300  MXC300     -0.2228
     29  S1       100.4990   32.2690   31.4150 S.3   300  MXC300     -0.0158
@<TRIPOS>BOND
     1    22     9    2
     2     9    18   am
     3     9     1    1
     4     1     2   ar
     5     1     8   ar
     6     2     3   ar
     7     8     7   ar
     8     3     4   ar
     9     3    17   ar
    10     4     5   ar
    11     7    17   ar
    12    17     6   ar
    13    21    10    1
    14     5     6   ar
    15     5    10    1
    16     6    19    1
    17    19    11    1
    18    23    12   ar
    19    11    12    1
    20    11    13    1
    21    29    26    1
    22    29    13    1
    23    29    25    1
    24    12    24   ar
    25    14    13    1
    26    13    15    1
    27    15    27    1
    28    27    16    1
    29    16    28    2
    30    16    20   am
