@<TRIPOS>MOLECULE
3fz1_B98_A_1.pdb
 19 21 0 0 0
SMALL
GASTEIGER

@<TRIPOS>ATOM
      1  C4        -0.3170   32.1980    8.3620 C.ar  299  B98299      0.0374
      2  C5        -1.4400   32.0240    9.1380 C.ar  299  B98299      0.0093
      3  C19        0.2550   29.8710    8.5670 C.ar  299  B98299      0.0386
      4  C18       -0.8770   29.6740    9.3540 C.ar  299  B98299      0.0238
      5  C17       -1.3760   28.4800    9.9670 C.2   299  B98299      0.0801
      6  C3         0.5100   31.1400    8.0800 C.ar  299  B98299      0.1388
      7  C6        -1.6970   30.7630    9.6130 C.ar  299  B98299      0.0279
      8  C8        -2.5480   28.6460   10.6870 C.3   299  B98299      0.1967
      9  C9        -3.4180   27.7780   11.4520 C.1   299  B98299      0.1415
     10  C15       -1.3190   26.0480   10.1610 C.3   299  B98299      0.1517
     11  C12       -1.7010   25.9580   11.6220 C.3   299  B98299      0.1577
     12  C1         2.0140   30.1650    6.7170 C.3   299  B98299      0.2525
     13  C13       -0.6630   26.3890   12.6340 C.3   299  B98299      0.1364
     14  N16       -0.6970   27.3120    9.8150 N.2   299  B98299     -0.2706
     15  N11       -2.9580   26.5700   11.9090 N.2   299  B98299     -0.2037
     16  N14       -1.3130   26.3280   13.9740 N.3   299  B98299     -0.1292
     17  O10       -4.5780   28.0840   11.6970 O.2   299  B98299     -0.2258
     18  O2         1.6230   31.4060    7.2860 O.3   299  B98299     -0.4714
     19  S7        -3.0310   30.2880   10.5950 S.3   299  B98299     -0.0917
@<TRIPOS>BOND
     1    12    18    1
     2    18     6    1
     3     6     1   ar
     4     6     3   ar
     5     1     2   ar
     6     3     4   ar
     7     2     7   ar
     8     4     7   ar
     9     4     5    1
    10     7    19    1
    11    14     5    2
    12    14    10    1
    13     5     8    1
    14    10    11    1
    15    19     8    1
    16     8     9    1
    17     9    17    2
    18     9    15    2
    19    11    15    1
    20    11    13    1
    21    13    16    1
