@<TRIPOS>MOLECULE
3fz5_GSH_A_1.pdb
 20 19 0 0 0
SMALL
GASTEIGER

@<TRIPOS>ATOM
      1  N1       -12.1550    7.5550   53.3980 N.3   201  GSH201     -0.1208
      2  CA1      -13.5750    7.3150   53.5880 C.3   201  GSH201      0.1948
      3  C1       -14.3920    8.3760   52.9170 C.2   201  GSH201      0.3819
      4  O11      -15.2500    8.0410   52.0720 O.co2 201  GSH201     -0.2441
      5  O12      -14.2330    9.5830   53.1970 O.co2 201  GSH201     -0.2441
      6  CB1      -13.9380    5.9480   53.0080 C.3   201  GSH201      0.0402
      7  CG1      -13.4320    4.8480   53.9360 C.3   201  GSH201      0.0889
      8  CD1      -14.6060    4.1940   54.6180 C.2   201  GSH201      0.2418
      9  OE1      -14.7170    4.1800   56.0210 O.2   201  GSH201     -0.2733
     10  N2       -15.5110    3.6490   53.8130 N.am  201  GSH201     -0.1968
     11  CA2      -15.3590    2.3130   53.2670 C.3   201  GSH201      0.1843
     12  C2       -14.0120    2.1160   52.5880 C.2   201  GSH201      0.2627
     13  O2       -13.5270    3.0250   51.6240 O.2   201  GSH201     -0.2714
     14  CB2      -16.5540    2.0390   52.3520 C.3   201  GSH201      0.0997
     15  SG2      -18.1430    2.7100   52.9510 S.3   201  GSH201     -0.0797
     16  N3       -13.2790    1.0600   52.9540 N.am  201  GSH201     -0.1917
     17  CA3      -11.8380    1.1720   53.1100 C.3   201  GSH201      0.2285
     18  C3       -11.1410   -0.1150   53.5110 C.2   201  GSH201      0.3865
     19  O31      -11.6580   -1.2350   53.2850 O.co2 201  GSH201     -0.2437
     20  O32      -10.0220   -0.0730   54.0740 O.co2 201  GSH201     -0.2437
@<TRIPOS>BOND
     1    13    12    2
     2     4     3   ar
     3    14    15    1
     4    14    11    1
     5    12    16   am
     6    12    11    1
     7     3     5   ar
     8     3     2    1
     9    16    17    1
    10     6     2    1
    11     6     7    1
    12    17    18    1
    13    11    10    1
    14    19    18   ar
    15     1     2    1
    16    18    20   ar
    17    10     8   am
    18     7     8    1
    19     8     9    2
