@<TRIPOS>MOLECULE
3fz6_PMP_A_1.pdb
 16 16 0 0 0
SMALL
GASTEIGER

@<TRIPOS>ATOM
      1  N1        33.3730  -21.6210   -5.6570 N.ar  500  PMP500     -0.2452
      2  C2        33.9100  -20.4100   -6.0780 C.ar  500  PMP500      0.0978
      3  C2A       34.7660  -20.3060   -7.3110 C.3   500  PMP500      0.0555
      4  C3        33.4310  -19.2300   -5.5440 C.ar  500  PMP500      0.2063
      5  O3        33.7780  -18.0380   -6.1610 O.3   500  PMP500     -0.2856
      6  C4        32.6350  -19.3140   -4.3920 C.ar  500  PMP500      0.0369
      7  C4A       32.3190  -18.0560   -3.6490 C.3   500  PMP500      0.1386
      8  N4A       33.5860  -17.4190   -3.4750 N.3   500  PMP500     -0.1261
      9  C5        32.1790  -20.5510   -3.8960 C.ar  500  PMP500      0.0275
     10  C6        32.5650  -21.7140   -4.5610 C.ar  500  PMP500      0.0965
     11  C5A       31.2970  -20.6670   -2.6470 C.3   500  PMP500      0.1816
     12  O4P       30.0360  -20.0820   -2.9210 O.3   500  PMP500     -0.2653
     13  P         28.8160  -19.8360   -1.8970 P.3   500  PMP500      0.5329
     14  O1P       27.6970  -19.4780   -2.8900 O.2   500  PMP500     -0.2224
     15  O2P       29.2140  -18.6930   -1.0000 O.3   500  PMP500     -0.1145
     16  O3P       28.5880  -21.0280   -0.9790 O.3   500  PMP500     -0.1145
@<TRIPOS>BOND
     1     3     2    1
     2     5     4    1
     3     2     1   ar
     4     2     4   ar
     5     1    10   ar
     6     4     6   ar
     7    10     9   ar
     8     6     9   ar
     9     6     7    1
    10     9    11    1
    11     7     8    1
    12    12    11    1
    13    12    13    1
    14    14    13    2
    15    13    15    1
    16    13    16    1
