@<TRIPOS>MOLECULE
3fz8_PLR_A_1.pdb
 15 15 0 0 0
SMALL
GASTEIGER

@<TRIPOS>ATOM
      1  N1        33.5570  -21.3830   -5.7620 N.ar  500  PLR500     -0.2452
      2  C2        33.9020  -20.1350   -6.2080 C.ar  500  PLR500      0.0978
      3  C2A       34.7710  -19.9540   -7.4360 C.3   500  PLR500      0.0555
      4  C3        33.4180  -19.0100   -5.5410 C.ar  500  PLR500      0.2049
      5  O3        33.7580  -17.7690   -6.0030 O.3   500  PLR500     -0.2857
      6  C4        32.5950  -19.1940   -4.4150 C.ar  500  PLR500      0.0182
      7  C4A       32.0720  -18.0200   -3.6570 C.3   500  PLR500      0.0342
      8  C5        32.2540  -20.4690   -3.9610 C.ar  500  PLR500      0.0261
      9  C6        32.7640  -21.5660   -4.6750 C.ar  500  PLR500      0.0965
     10  C5A       31.3750  -20.6550   -2.7250 C.3   500  PLR500      0.1815
     11  O4P       29.9720  -20.6970   -3.0340 O.3   500  PLR500     -0.2653
     12  P         28.8120  -19.9290   -2.1920 P.3   500  PLR500      0.5329
     13  O1P       27.7100  -19.6590   -3.1910 O.2   500  PLR500     -0.2224
     14  O2P       29.5040  -18.6840   -1.7170 O.3   500  PLR500     -0.1145
     15  O3P       28.3920  -20.8670   -1.0790 O.3   500  PLR500     -0.1145
@<TRIPOS>BOND
     1     3     2    1
     2     2     1   ar
     3     2     4   ar
     4     5     4    1
     5     1     9   ar
     6     4     6   ar
     7     9     8   ar
     8     6     8   ar
     9     6     7    1
    10     8    10    1
    11    13    12    2
    12    11    10    1
    13    11    12    1
    14    12    14    1
    15    12    15    1
