@<TRIPOS>MOLECULE
3fz9_GSH_A_1.pdb
 20 19 0 0 0
SMALL
GASTEIGER

@<TRIPOS>ATOM
      1  N1         1.8510    6.1230   -6.5510 N.3     1  GSH1       -0.1208
      2  CA1        1.6500    6.0990   -5.1070 C.3     1  GSH1        0.1948
      3  C1         2.1110    4.7890   -4.5040 C.2     1  GSH1        0.3819
      4  O11        2.4130    4.7470   -3.2990 O.co2   1  GSH1       -0.2441
      5  O12        2.1610    3.7040   -5.1430 O.co2   1  GSH1       -0.2441
      6  CB1        0.1700    6.3130   -4.8080 C.3     1  GSH1        0.0402
      7  CG1       -0.1010    6.5870   -3.3280 C.3     1  GSH1        0.0889
      8  CD1       -1.4210    7.2710   -3.0210 C.2     1  GSH1        0.2418
      9  OE1       -2.1900    7.7800   -4.0670 O.2     1  GSH1       -0.2733
     10  N2        -1.7700    7.3560   -1.7270 N.am    1  GSH1       -0.1968
     11  CA2       -2.9270    8.1350   -1.2910 C.3     1  GSH1        0.1843
     12  C2        -2.5270    9.4930   -0.8320 C.2     1  GSH1        0.2627
     13  O2        -1.3590    9.6070   -0.1030 O.2     1  GSH1       -0.2714
     14  CB2       -3.5620    7.4770   -0.0800 C.3     1  GSH1        0.0997
     15  SG2       -4.0760    5.7920   -0.5050 S.3     1  GSH1       -0.0797
     16  N3        -3.3230   10.5250   -1.0610 N.am    1  GSH1       -0.1917
     17  CA3       -3.0170   11.8220   -0.4950 C.3     1  GSH1        0.2285
     18  C3        -3.0720   12.9050   -1.5480 C.2     1  GSH1        0.3865
     19  O31       -2.7430   14.0880   -1.2450 O.co2   1  GSH1       -0.2437
     20  O32       -3.4080   12.6130   -2.7190 O.co2   1  GSH1       -0.2437
@<TRIPOS>BOND
     1     1     2    1
     2     5     3   ar
     3     2     6    1
     4     2     3    1
     5     6     7    1
     6     3     4   ar
     7     9     8    2
     8     7     8    1
     9     8    10   am
    10    20    18   ar
    11    10    11    1
    12    18    19   ar
    13    18    17    1
    14    11    12    1
    15    11    14    1
    16    16    12   am
    17    16    17    1
    18    12    13    2
    19    15    14    1
