@<TRIPOS>MOLECULE
3fza_GSH_A_1.pdb
 20 19 0 0 0
SMALL
GASTEIGER

@<TRIPOS>ATOM
      1  N1        17.7870   17.6600   -6.6190 N.3   114  GSH114     -0.1208
      2  CA1       17.8520   17.4730   -5.1680 C.3   114  GSH114      0.1948
      3  C1        17.4240   18.7510   -4.5010 C.2   114  GSH114      0.3819
      4  O11       17.0980   18.7510   -3.2940 O.co2 114  GSH114     -0.2441
      5  O12       17.4230   19.8260   -5.1550 O.co2 114  GSH114     -0.2441
      6  CB1       19.2920   17.1340   -4.7950 C.3   114  GSH114      0.0402
      7  CG1       19.5430   17.0150   -3.2970 C.3   114  GSH114      0.0889
      8  CD1       20.8610   16.3270   -2.9720 C.2   114  GSH114      0.2418
      9  OE1       21.6070   15.7700   -4.0110 O.2   114  GSH114     -0.2733
     10  N2        21.2440   16.2870   -1.7010 N.am  114  GSH114     -0.1968
     11  CA2       22.4050   15.4950   -1.2910 C.3   114  GSH114      0.1843
     12  C2        22.0060   14.1310   -0.8410 C.2   114  GSH114      0.2627
     13  O2        20.8760   14.0190   -0.0470 O.2   114  GSH114     -0.2714
     14  CB2       23.1040   16.1360   -0.0910 C.3   114  GSH114      0.0997
     15  SG2       23.6040   17.8380   -0.4730 S.3   114  GSH114     -0.0797
     16  N3        22.7740   13.0730   -1.1170 N.am  114  GSH114     -0.1917
     17  CA3       22.4400   11.7820   -0.5630 C.3   114  GSH114      0.2285
     18  C3        22.4600   10.6830   -1.5810 C.2   114  GSH114      0.3865
     19  O31       22.1290    9.5000   -1.2660 O.co2 114  GSH114     -0.2437
     20  O32       22.7980   10.9750   -2.7480 O.co2 114  GSH114     -0.2437
@<TRIPOS>BOND
     1     1     2    1
     2     2     6    1
     3     2     3    1
     4     5     3   ar
     5     6     7    1
     6     3     4   ar
     7     9     8    2
     8     7     8    1
     9     8    10   am
    10    20    18   ar
    11    10    11    1
    12    18    19   ar
    13    18    17    1
    14    11    12    1
    15    11    14    1
    16    16    12   am
    17    16    17    1
    18    12    13    2
    19    15    14    1
