@<TRIPOS>MOLECULE
3fzc_MXF_A_1.pdb
 29 30 0 0 0
SMALL
GASTEIGER

@<TRIPOS>ATOM
      1  C1       107.2370   32.5410   26.7760 C.ar  300  MXF300      0.0030
      2  C2       106.5340   31.2670   26.8470 C.ar  300  MXF300      0.0176
      3  C3       105.3520   31.1930   27.7020 C.ar  300  MXF300      0.0650
      4  C4       104.4450   30.0970   27.9920 C.ar  300  MXF300      0.0186
      5  C5       103.5070   30.5560   28.8610 C.ar  300  MXF300      0.0437
      6  C6       103.7450   32.0230   29.2030 C.ar  300  MXF300      0.1312
      7  C7       105.6100   33.5950   28.3640 C.ar  300  MXF300      0.0812
      8  C8       106.7780   33.7050   27.5330 C.ar  300  MXF300      0.0191
      9  C10      102.3850   29.7090   29.4020 C.3   300  MXF300      0.2114
     10  C11      102.9920   33.1480   31.4970 C.3   300  MXF300      0.2197
     11  C12      103.8150   34.4390   31.6440 C.2   300  MXF300      0.3860
     12  C13      101.5060   33.2420   32.0470 C.3   300  MXF300      0.1769
     13  C14      100.8010   34.5240   31.4750 C.3   300  MXF300      0.0296
     14  C15      101.5850   33.2210   33.6110 C.3   300  MXF300      0.2338
     15  C16      101.3280   35.3270   34.7240 C.2   300  MXF300      0.4212
     16  N1       104.9730   32.3410   28.3950 N.ar  300  MXF300     -0.2927
     17  N3       102.9710   32.8080   30.0570 N.pl3 300  MXF300     -0.2099
     18  N4       102.5740   35.2180   35.3470 N.am  300  MXF300     -0.1671
     19  O1       101.2090   29.9540   28.6250 O.3   300  MXF300     -0.2151
     20  O3       104.3210   35.0370   30.7010 O.co2 300  MXF300     -0.2437
     21  O4       104.0400   35.0600   32.9920 O.co2 300  MXF300     -0.2437
     22  O5        99.1000   32.0590   32.1190 O.3   300  MXF300     -0.0781
     23  O6       101.0970   30.4080   32.1040 O.3   300  MXF300     -0.0781
     24  O7       100.7620   34.1820   34.2390 O.3   300  MXF300     -0.4317
     25  O8       100.7770   36.4080   34.5980 O.2   300  MXF300     -0.2246
     26  S1       100.4550   31.8470   31.5370 S.3   300  MXF300     -0.0158
     27  C17      102.6860   34.7510   36.6540 C.3   300  MXF300      0.1391
     28  C18      103.3350   34.1220   37.8920 C.3   300  MXF300      0.1328
     29  N5       102.9690   34.8300   39.1650 N.3   300  MXF300     -0.1294
@<TRIPOS>BOND
     1     1     2   ar
     2     1     8   ar
     3     2     3   ar
     4     8     7   ar
     5     3     4   ar
     6     3    16   ar
     7     4     5   ar
     8     7    16   ar
     9    16     6   ar
    10    19     9    1
    11     5     6   ar
    12     5     9    1
    13     6    17    1
    14    17    10    1
    15    20    11   ar
    16    13    12    1
    17    10    11    1
    18    10    12    1
    19    26    12    1
    20    26    23    1
    21    26    22    1
    22    11    21   ar
    23    12    14    1
    24    14    24    1
    25    24    15    1
    26    25    15    2
    27    15    18   am
    28    18    27    1
    29    27    28    1
    30    28    29    1
