@<TRIPOS>MOLECULE
3fzf_ATP_A_1.pdb
 31 33 0 0 0
SMALL
GASTEIGER

@<TRIPOS>ATOM
      1  PG        12.6440    4.7560    6.8060 P.3   401  ATP401      0.5373
      2  O1G       12.3230    5.3060    5.4320 O.2   401  ATP401     -0.2221
      3  O2G       11.4870    4.2280    7.6320 O.3   401  ATP401     -0.1143
      4  O3G       13.6780    5.5160    7.5930 O.3   401  ATP401     -0.1143
      5  PB        12.4560    2.2470    5.7340 P.3   401  ATP401      0.2277
      6  O1B       11.5720    1.6300    6.8130 O.3   401  ATP401     -0.4368
      7  O2B       11.8230    2.7700    4.4600 O.2   401  ATP401     -0.5168
      8  O3B       13.3560    3.3830    6.4240 O.3   401  ATP401     -0.2258
      9  PA        14.6400    1.6320    4.0930 P.3   401  ATP401      0.2189
     10  O1A       16.0370    1.7950    4.6610 O.3   401  ATP401     -0.4371
     11  O2A       14.0420    2.6810    3.1850 O.2   401  ATP401     -0.5170
     12  O3A       13.6750    1.2890    5.3430 O.3   401  ATP401     -0.2700
     13  O5'       14.6250    0.2000    3.3420 O.3   401  ATP401     -0.3112
     14  C5'       14.2820   -0.9610    4.0980 C.3   401  ATP401      0.1813
     15  C4'       14.1030   -2.1620    3.1950 C.3   401  ATP401      0.1821
     16  O4'       14.9670   -2.1380    2.0390 O.3   401  ATP401     -0.3135
     17  C3'       14.3860   -3.4540    3.9470 C.3   401  ATP401      0.2184
     18  O3'       13.1610   -4.1890    3.9670 O.3   401  ATP401     -0.2174
     19  C2'       15.4850   -4.0970    3.1300 C.3   401  ATP401      0.2570
     20  O2'       15.4440   -5.5230    3.0280 O.3   401  ATP401     -0.2130
     21  C1'       15.3290   -3.4810    1.7680 C.3   401  ATP401      0.3186
     22  N9        16.6280   -3.5270    1.1000 N.pl3 401  ATP401     -0.1439
     23  C8        17.7800   -2.9010    1.4390 C.3   401  ATP401      0.3377
     24  N7        18.7550   -3.2150    0.5460 N.2   401  ATP401     -0.2095
     25  C5        18.2220   -4.0540   -0.3470 C.2   401  ATP401      0.2526
     26  C6        18.6700   -4.7770   -1.5440 C.2   401  ATP401      0.4393
     27  N6        19.9620   -4.6840   -2.0040 N.pl3 401  ATP401      0.2180
     28  N1        17.7490   -5.5550   -2.1510 N.2   401  ATP401      0.0021
     29  C2        16.4920   -5.6730   -1.7680 C.3   401  ATP401      0.5254
     30  N3        16.0130   -5.0560   -0.7010 N.2   401  ATP401     -0.0055
     31  C4        16.8250   -4.2570    0.0310 C.2   401  ATP401      0.3518
@<TRIPOS>BOND
     1    28    29    1
     2    28    26    2
     3    27    26    1
     4    29    30    1
     5    26    25    1
     6    30    31    2
     7    25    31    1
     8    25    24    2
     9    31    22    1
    10    24    23    1
    11    22    23    1
    12    22    21    1
    13    21    16    1
    14    21    19    1
    15    16    15    1
    16    20    19    1
    17    19    17    1
    18    11     9    2
    19    15    17    1
    20    15    14    1
    21    13     9    1
    22    13    14    1
    23    17    18    1
    24     9    10    1
    25     9    12    1
    26     7     5    2
    27    12     5    1
    28     2     1    2
    29     5     8    1
    30     5     6    1
    31     8     1    1
    32     1     4    1
    33     1     3    1
