@<TRIPOS>MOLECULE
3fzg_SAM_A_1.pdb
 27 29 0 0 0
SMALL
GASTEIGER

@<TRIPOS>ATOM
      1  N         10.4660   12.4310   21.5790 N.3   300  SAM300     -0.1208
      2  CA         9.8040   12.8630   22.8270 C.3   300  SAM300      0.1952
      3  C         10.2320   11.9700   23.9810 C.2   300  SAM300      0.3819
      4  O         10.5530   10.8210   23.7700 O.co2 300  SAM300     -0.2441
      5  OXT       10.2540   12.4040   25.1270 O.co2 300  SAM300     -0.2441
      6  CB         8.2660   12.8270   22.6590 C.3   300  SAM300      0.0414
      7  CG         7.7770   11.4920   22.0550 C.3   300  SAM300      0.0503
      8  SD         5.9530   11.5160   21.9100 S.3   300  SAM300     -0.1761
      9  CE         5.5910    9.7360   22.0510 C.3   300  SAM300      0.0590
     10  C5'        5.6020   11.8950   20.1830 C.3   300  SAM300      0.0806
     11  C4'        6.0720   13.3140   19.8400 C.3   300  SAM300      0.1622
     12  O4'        6.1620   13.4590   18.4170 O.3   300  SAM300     -0.3153
     13  C3'        5.0780   14.3610   20.3490 C.3   300  SAM300      0.2168
     14  O3'        5.7950   15.3960   21.0220 O.3   300  SAM300     -0.2175
     15  C2'        4.3650   14.8660   19.0720 C.3   300  SAM300      0.2569
     16  O2'        3.9510   16.2350   19.2190 O.3   300  SAM300     -0.2130
     17  C1'        5.4630   14.6590   18.0030 C.3   300  SAM300      0.3185
     18  N9         4.9840   14.4270   16.6420 N.pl3 300  SAM300     -0.1439
     19  C8         3.8600   13.7480   16.2370 C.3   300  SAM300      0.3377
     20  N7         3.7930   13.7390   14.9370 N.2   300  SAM300     -0.2095
     21  C5         4.8590   14.4080   14.4320 C.2   300  SAM300      0.2526
     22  C6         5.3330   14.7170   13.1290 C.2   300  SAM300      0.4393
     23  N6         4.6290   14.3050   12.0130 N.pl3 300  SAM300      0.2180
     24  N1         6.4810   15.4270   13.0030 N.2   300  SAM300      0.0021
     25  C2         7.1830   15.8380   14.0700 C.3   300  SAM300      0.5254
     26  N3         6.7770   15.5630   15.3100 N.2   300  SAM300     -0.0055
     27  C4         5.6350   14.8560   15.5290 C.2   300  SAM300      0.3518
@<TRIPOS>BOND
     1    23    22    1
     2    24    22    2
     3    24    25    1
     4    22    21    1
     5    25    26    1
     6    21    20    2
     7    21    27    1
     8    20    19    1
     9    26    27    2
    10    27    18    1
    11    19    18    1
    12    18    17    1
    13    17    12    1
    14    17    15    1
    15    12    11    1
    16    15    16    1
    17    15    13    1
    18    11    10    1
    19    11    13    1
    20    10     8    1
    21    13    14    1
    22     1     2    1
    23     8     9    1
    24     8     7    1
    25     7     6    1
    26     6     2    1
    27     2     3    1
    28     4     3   ar
    29     3     5   ar
