@<TRIPOS>MOLECULE
3fzh_3BH_A_1.pdb
 20 22 0 0 0
SMALL
GASTEIGER

@<TRIPOS>ATOM
      1  O15       15.9160   -5.3510    3.1300 O.3   401  3BH401     -0.2130
      2  C8        15.9470   -3.9030    3.1510 C.3   401  3BH401      0.2574
      3  C14       14.7780   -3.2770    3.9140 C.3   401  3BH401      0.2186
      4  O19       13.5330   -3.9900    3.7370 O.3   401  3BH401     -0.2174
      5  C13       14.6390   -1.8890    3.2480 C.3   401  3BH401      0.1851
      6  C18       15.2800   -0.7010    4.0290 C.3   401  3BH401      0.2143
      7  O20       16.6750   -0.9280    4.1560 O.3   401  3BH401     -0.2176
      8  O7        15.3510   -1.9280    1.9970 O.3   401  3BH401     -0.3131
      9  C3        15.7270   -3.2920    1.7640 C.3   401  3BH401      0.3245
     10  N1        16.9620   -3.3650    0.9470 N.pl3 401  3BH401     -0.1021
     11  C2        17.0630   -4.1270   -0.1340 C.2   401  3BH401      0.3701
     12  N6        16.1600   -4.9360   -0.7340 N.2   401  3BH401     -0.0038
     13  C12       16.4810   -5.6110   -1.8150 C.3   401  3BH401      0.5255
     14  N16       17.7620   -5.4950   -2.3750 N.2   401  3BH401      0.0031
     15  C11       18.7110   -4.6560   -1.7980 C.2   401  3BH401      0.4517
     16  N17       19.9280   -4.5680   -2.3410 N.pl3 401  3BH401      0.2193
     17  C5        18.3500   -3.9550   -0.6520 C.2   401  3BH401      0.3079
     18  N9        18.9780   -3.0870    0.1330 N.2   401  3BH401     -0.3345
     19  C4        18.1310   -2.7340    1.1000 C.cat 401  3BH401      0.3776
     20  N10       18.4350   -1.8760    2.0790 N.pl3 401  3BH401     -0.0533
@<TRIPOS>BOND
     1    14    13    1
     2    14    15    2
     3    16    15    1
     4    13    12    1
     5    15    17    1
     6    12    11    2
     7    17    11    1
     8    17    18    2
     9    11    10    1
    10    18    19    2
    11    10    19    1
    12    10     9    1
    13    19    20    1
    14     9     8    1
    15     9     2    1
    16     8     5    1
    17     1     2    1
    18     2     3    1
    19     5     3    1
    20     5     6    1
    21     4     3    1
    22     6     7    1
