@<TRIPOS>MOLECULE
3fzk_3BK_A_1.pdb
 29 32 0 0 0
SMALL
GASTEIGER

@<TRIPOS>ATOM
      1  C18       20.2840   -2.7270    4.1380 C.ar  401  3BK401      0.0097
      2  C19       21.2180   -3.4440    4.8520 C.ar  401  3BK401      0.0679
      3 CL28       20.7520   -4.2500    6.3040 Cl    401  3BK401     -0.0814
      4  C20       22.5060   -3.5210    4.4250 C.ar  401  3BK401      0.0682
      5 CL29       23.6450   -4.4020    5.3710 Cl    401  3BK401     -0.0814
      6  C21       22.8920   -2.8850    3.2400 C.ar  401  3BK401      0.0120
      7  C22       21.9310   -2.1600    2.4990 C.ar  401  3BK401     -0.0016
      8  C17       20.6110   -2.1340    2.9470 C.ar  401  3BK401      0.0004
      9  C16       19.6740   -1.3790    2.3280 C.3   401  3BK401      0.1448
     10  N15       18.5170   -1.8220    1.9480 N.pl3 401  3BK401     -0.1693
     11  C6        18.3140   -2.8000    1.0910 C.cat 401  3BK401      0.3578
     12  N7        19.1410   -3.1350    0.0670 N.2   401  3BK401     -0.3358
     13  C8        18.4850   -3.9820   -0.7330 C.2   401  3BK401      0.3078
     14  C4        18.8540   -4.6850   -1.8330 C.2   401  3BK401      0.4517
     15  N27       20.0900   -4.6000   -2.3080 N.pl3 401  3BK401      0.2193
     16  N1        17.9270   -5.4850   -2.4600 N.2   401  3BK401      0.0031
     17  C2        16.6600   -5.5830   -1.9550 C.3   401  3BK401      0.5255
     18  N3        16.3200   -4.9130   -0.8950 N.2   401  3BK401     -0.0038
     19  C9        17.2130   -4.1250   -0.2500 C.2   401  3BK401      0.3701
     20  N5        17.1080   -3.3960    0.8510 N.pl3 401  3BK401     -0.1034
     21  C10       15.8910   -3.2570    1.6560 C.3   401  3BK401      0.3245
     22  O11       15.5920   -1.8900    1.7970 O.3   401  3BK401     -0.3131
     23  C12       14.8670   -1.7770    3.1440 C.3   401  3BK401      0.1851
     24  C23       15.5710   -0.6350    3.9910 C.3   401  3BK401      0.2143
     25  O26       16.8440   -1.1220    4.4880 O.3   401  3BK401     -0.2176
     26  C13       15.0260   -3.1540    3.7990 C.3   401  3BK401      0.2186
     27  O25       13.8880   -3.9300    3.5190 O.3   401  3BK401     -0.2174
     28  C14       16.1580   -3.7120    3.0980 C.3   401  3BK401      0.2574
     29  O24       16.1390   -5.1580    3.1890 O.3   401  3BK401     -0.2130
@<TRIPOS>BOND
     1    16    17    1
     2    16    14    2
     3    15    14    1
     4    17    18    1
     5    14    13    1
     6    18    19    2
     7    13    19    1
     8    13    12    2
     9    19    20    1
    10    12    11    2
    11    20    11    1
    12    20    21    1
    13    11    10    1
    14    21    22    1
    15    21    28    1
    16    22    23    1
    17    10     9    1
    18     9     8    1
    19     7     8   ar
    20     7     6   ar
    21     8     1   ar
    22    28    29    1
    23    28    26    1
    24    23    26    1
    25    23    24    1
    26     6     4   ar
    27    27    26    1
    28    24    25    1
    29     1     2   ar
    30     4     2   ar
    31     4     5    1
    32     2     3    1
