@<TRIPOS>MOLECULE
3fzl_3FD_A_1.pdb
 38 42 0 0 0
SMALL
GASTEIGER

@<TRIPOS>ATOM
      1  C18       22.3800   -2.0350    2.4330 C.ar  401  3FD401     -0.0016
      2  C17       23.2740   -2.7680    3.2190 C.ar  401  3FD401      0.0120
      3  C16       22.8130   -3.4510    4.3430 C.ar  401  3FD401      0.0682
      4 CL20       23.9060   -4.3470    5.3070 Cl    401  3FD401     -0.0814
      5  C15       21.4720   -3.4240    4.6810 C.ar  401  3FD401      0.0679
      6  C14       20.5770   -2.6950    3.9070 C.ar  401  3FD401      0.0097
      7  C13       21.0350   -1.9920    2.7790 C.ar  401  3FD401      0.0004
      8  C12       20.0550   -1.1960    1.9320 C.3   401  3FD401      0.1448
      9  N11       18.7500   -1.8680    1.9440 N.pl3 401  3FD401     -0.1693
     10  C6        18.4450   -2.7440    0.9860 C.cat 401  3FD401      0.3578
     11  N7        19.2670   -3.1480   -0.0020 N.2   401  3FD401     -0.3358
     12  C8        18.5960   -3.9940   -0.7730 C.2   401  3FD401      0.3078
     13  C4        18.9450   -4.7020   -1.8820 C.2   401  3FD401      0.4517
     14  N10       20.1740   -4.5930   -2.3860 N.pl3 401  3FD401      0.2193
     15  N1        18.0380   -5.5010   -2.4690 N.2   401  3FD401      0.0031
     16  C2        16.8080   -5.6150   -1.9610 C.3   401  3FD401      0.5255
     17  N3        16.4590   -4.9400   -0.8710 N.2   401  3FD401     -0.0038
     18  C9        17.3370   -4.1310   -0.2650 C.2   401  3FD401      0.3701
     19  N5        17.2460   -3.3630    0.8150 N.pl3 401  3FD401     -0.1034
     20  C21       16.0120   -3.2070    1.6900 C.3   401  3FD401      0.3245
     21  O22       15.7020   -1.8070    1.8630 O.3   401  3FD401     -0.3132
     22  C24       16.3130   -3.6990    3.0880 C.3   401  3FD401      0.2574
     23  O26       16.1420   -5.1160    3.1450 O.3   401  3FD401     -0.2130
     24  C25       15.2690   -3.0580    3.9110 C.3   401  3FD401      0.2184
     25  O27       14.1110   -3.8700    3.8930 O.3   401  3FD401     -0.2174
     26  C23       14.9790   -1.7160    3.1880 C.3   401  3FD401      0.1817
     27  C28       15.5540   -0.5090    4.0060 C.3   401  3FD401      0.1748
     28  O29       16.9950   -0.6260    4.0570 O.3   401  3FD401     -0.3463
     29  C30       17.5550    0.3470    4.9460 C.3   401  3FD401      0.1687
     30  C31       18.8680    0.1820    5.4160 C.ar  401  3FD401      0.0073
     31  C32       19.8650    1.0690    5.0150 C.ar  401  3FD401     -0.0012
     32  C33       21.1690    0.9010    5.4640 C.ar  401  3FD401      0.0100
     33  C34       21.4900   -0.1640    6.3200 C.ar  401  3FD401      0.0684
     34  C37       22.8510   -0.3190    6.7980 C.1   401  3FD401      0.1004
     35  N38       23.9390   -0.4370    7.1390 N.1   401  3FD401     -0.1908
     36  C35       20.4930   -1.0590    6.7290 C.ar  401  3FD401      0.0100
     37  C36       19.1790   -0.8880    6.2800 C.ar  401  3FD401     -0.0012
     38 CL21       20.9200   -4.3100    6.0730 Cl    401  3FD401     -0.0814
@<TRIPOS>BOND
     1    15    16    1
     2    15    13    2
     3    14    13    1
     4    16    17    1
     5    13    12    1
     6    17    18    2
     7    12    18    1
     8    12    11    2
     9    18    19    1
    10    11    10    2
    11    19    10    1
    12    19    20    1
    13    10     9    1
    14    20    21    1
    15    20    22    1
    16    21    26    1
    17     8     9    1
    18     8     7    1
    19     1     7   ar
    20     1     2   ar
    21     7     6   ar
    22    22    23    1
    23    22    24    1
    24    26    24    1
    25    26    27    1
    26     2     3   ar
    27    25    24    1
    28     6     5   ar
    29    27    28    1
    30    28    29    1
    31     3     5   ar
    32     3     4    1
    33     5    38    1
    34    29    30    1
    35    31    30   ar
    36    31    32   ar
    37    30    37   ar
    38    32    33   ar
    39    37    36   ar
    40    33    36   ar
    41    33    34    1
    42    34    35    3
