@<TRIPOS>MOLECULE
3fzm_3GO_A_1.pdb
 40 45 0 0 0
SMALL
GASTEIGER

@<TRIPOS>ATOM
      1  C28       20.6320   -3.1070    3.8350 C.3   401  3GO401      0.0509
      2  C35       21.4440   -3.8510    4.6870 C.ar  401  3GO401     -0.0041
      3  C40       20.8790   -4.6590    5.6670 C.ar  401  3GO401     -0.0012
      4  C39       21.7080   -5.3940    6.4990 C.ar  401  3GO401      0.0203
      5  C38       23.0940   -5.3020    6.3420 C.ar  401  3GO401      0.0984
      6  N37       23.6240   -4.5150    5.3880 N.ar  401  3GO401     -0.2481
      7  C36       22.8290   -3.7920    4.5580 C.ar  401  3GO401      0.0597
      8  C27       23.3990   -2.9850    3.5790 C.3   401  3GO401      0.0708
      9  C26       22.5810   -2.2380    2.7240 C.2   401  3GO401     -0.0263
     10  C25       21.2010   -2.3040    2.8500 C.2   401  3GO401     -0.0221
     11  C24       20.3040   -1.4800    1.9120 C.3   401  3GO401      0.1405
     12  N23       18.9400   -2.0780    1.8550 N.pl3 401  3GO401     -0.1697
     13  C6        18.6090   -2.9060    0.8550 C.cat 401  3GO401      0.3577
     14  N7        19.4270   -3.3130   -0.1280 N.2   401  3GO401     -0.3358
     15  C8        18.7400   -4.1200   -0.9270 C.2   401  3GO401      0.3078
     16  C4        19.0840   -4.8210   -2.0650 C.2   401  3GO401      0.4517
     17  N10       20.3260   -4.7450   -2.5600 N.pl3 401  3GO401      0.2193
     18  N1        18.1320   -5.5930   -2.6900 N.2   401  3GO401      0.0031
     19  C2        16.8480   -5.6560   -2.1650 C.3   401  3GO401      0.5255
     20  N3        16.5350   -4.9750   -1.0610 N.2   401  3GO401     -0.0038
     21  C9        17.4590   -4.2140   -0.4310 C.2   401  3GO401      0.3701
     22  N5        17.3970   -3.4770    0.6610 N.pl3 401  3GO401     -0.1034
     23  C11       16.1980   -3.2950    1.5040 C.3   401  3GO401      0.3245
     24  O12       15.9350   -1.8970    1.6440 O.3   401  3GO401     -0.3132
     25  C31       16.4860   -3.7500    2.9100 C.3   401  3GO401      0.2574
     26  O34       16.3280   -5.1810    3.0120 O.3   401  3GO401     -0.2130
     27  C32       15.4170   -3.0530    3.7110 C.3   401  3GO401      0.2184
     28  O33       14.2410   -3.8550    3.7470 O.3   401  3GO401     -0.2174
     29  C13       15.1350   -1.7640    2.9050 C.3   401  3GO401      0.1817
     30  C14       15.6620   -0.5800    3.6700 C.3   401  3GO401      0.1748
     31  O15       17.0940   -0.6270    3.6440 O.3   401  3GO401     -0.3463
     32  C16       17.6000    0.2950    4.4940 C.3   401  3GO401      0.1687
     33  C17       18.9010    0.0150    5.2340 C.ar  401  3GO401      0.0073
     34  C18       20.0110    0.8220    5.0170 C.ar  401  3GO401     -0.0012
     35  C19       21.1950    0.5650    5.6890 C.ar  401  3GO401      0.0100
     36  C20       21.2670   -0.4990    6.5940 C.ar  401  3GO401      0.0684
     37  C29       22.4870   -0.7620    7.3000 C.1   401  3GO401      0.1004
     38  N30       23.4510   -0.9730    7.8660 N.1   401  3GO401     -0.1908
     39  C21       20.1540   -1.3010    6.8130 C.ar  401  3GO401      0.0100
     40  C22       18.9720   -1.0450    6.1290 C.ar  401  3GO401     -0.0012
@<TRIPOS>BOND
     1    18    19    1
     2    18    16    2
     3    17    16    1
     4    19    20    1
     5    16    15    1
     6    20    21    2
     7    15    21    1
     8    15    14    2
     9    21    22    1
    10    14    13    2
    11    22    13    1
    12    22    23    1
    13    13    12    1
    14    23    24    1
    15    23    25    1
    16    24    29    1
    17    12    11    1
    18    11    10    1
    19     9    10    2
    20     9     8    1
    21    10     1    1
    22    29    30    1
    23    29    27    1
    24    25    26    1
    25    25    27    1
    26     8     7    1
    27    31    30    1
    28    31    32    1
    29    27    28    1
    30     1     2    1
    31    32    33    1
    32     7     2   ar
    33     7     6   ar
    34     2     3   ar
    35    34    33   ar
    36    34    35   ar
    37    33    40   ar
    38     6     5   ar
    39     3     4   ar
    40    35    36   ar
    41    40    39   ar
    42     5     4   ar
    43    36    39   ar
    44    36    37    1
    45    37    38    3
