@<TRIPOS>MOLECULE
3fzn_D7K_A_1.pdb
 39 41 0 0 0
SMALL
GASTEIGER

@<TRIPOS>ATOM
      1  PA       107.8070   41.3610   99.1990 P.3   601  D7K601      0.2230
      2  O1A      107.9080   41.2790  100.6960 O.3   601  D7K601     -0.4370
      3  O2A      106.5640   40.9320   98.5630 O.2   601  D7K601     -0.5169
      4  O1B      111.2130   41.8300   98.0640 O.2   601  D7K601     -0.2221
      5  PB       110.6680   40.7070   98.9010 P.3   601  D7K601      0.5373
      6  O2B      110.8350   40.8570  100.4090 O.3   601  D7K601     -0.1143
      7  O3B      111.2970   39.2970   98.4450 O.3   601  D7K601     -0.1143
      8  O3A      109.0410   40.4970   98.5070 O.3   601  D7K601     -0.2261
      9  O01      108.1550   42.8520   98.8390 O.3   601  D7K601     -0.3134
     10  C01      107.6820   43.4690   97.5880 C.3   601  D7K601      0.1544
     11  C05      108.4960   44.7270   97.3960 C.3   601  D7K601      0.0661
     12  C04      108.3520   45.4780   96.0430 C.2   601  D7K601      0.0164
     13  C03      107.6850   46.6090   95.7590 C.2   601  D7K601      0.0279
     14  CM4      106.8450   47.3680   96.8440 C.3   601  D7K601      0.0473
     15  S1       109.1320   44.8780   94.6460 S.3   601  D7K601     -0.0943
     16  C02      108.5680   46.2170   93.6360 C.3   601  D7K601      0.1691
     17  N3       107.7800   47.0420   94.4380 N.pl3 601  D7K601     -0.2963
     18  C7,      107.0630   48.3140   94.0440 C.3   601  D7K601      0.1238
     19  C5,      105.5980   48.1760   93.7800 C.2   601  D7K601      0.0654
     20  C6,      104.7000   48.9130   94.5800 C.2   601  D7K601      0.1115
     21  C4,      104.9860   47.4860   92.7040 C.2   601  D7K601      0.2292
     22  N4,      105.7730   46.7670   91.8970 N.pl3 601  D7K601     -0.0925
     23  N3,      103.6090   47.4180   92.5660 N.2   601  D7K601     -0.3368
     24  C2,      102.7770   48.1200   93.3610 C.1   601  D7K601      0.0663
     25  N1,      103.2810   48.8690   94.3620 N.2   601  D7K601     -0.1861
     26  CM2      101.3660   48.0790   93.1380 C.3   601  D7K601      0.1291
     27  O12      110.2000   48.7960   93.0470 O.3   601  D7K601     -0.1374
     28  P8       110.6460   47.5570   92.2990 P.3   601  D7K601      0.4024
     29  O11      111.3290   47.7250   90.9950 O.2   601  D7K601     -0.2525
     30  O9       111.6430   46.7050   93.2680 O.3   601  D7K601     -0.2881
     31  C10      113.0720   46.7950   93.1090 C.3   601  D7K601      0.1840
     32  C7       109.1110   46.3380   92.1700 C.3   601  D7K601      0.2653
     33  O7       108.3400   47.1550   91.2880 O.3   601  D7K601     -0.2059
     34  C2       109.4730   45.0720   91.5690 C.ar  601  D7K601      0.0188
     35  C3       108.6440   44.4990   90.6110 C.ar  601  D7K601     -0.0012
     36  C4       108.9430   43.2840   90.0090 C.ar  601  D7K601     -0.0002
     37  C5       110.1080   42.6040   90.3570 C.ar  601  D7K601     -0.0000
     38  C6       110.9570   43.1460   91.2990 C.ar  601  D7K601     -0.0002
     39  C1       110.6490   44.3610   91.9080 C.ar  601  D7K601     -0.0012
@<TRIPOS>BOND
     1    36    37   ar
     2    36    35   ar
     3    37    38   ar
     4    35    34   ar
     5    29    28    2
     6    33    32    1
     7    38    39   ar
     8    34    39   ar
     9    34    32    1
    10    22    21    1
    11    32    28    1
    12    32    16    1
    13    28    27    1
    14    28    30    1
    15    23    21    2
    16    23    24    2
    17    21    19    1
    18    31    30    1
    19    26    24    1
    20    24    25    2
    21    16    17    1
    22    16    15    1
    23    19    18    1
    24    19    20    2
    25    18    17    1
    26    25    20    1
    27    17    13    1
    28    15    12    1
    29    13    12    2
    30    13    14    1
    31    12    11    1
    32    11    10    1
    33    10     9    1
    34     4     5    2
    35     7     5    1
    36     8     5    1
    37     8     1    1
    38     3     1    2
    39     9     1    1
    40     5     6    1
    41     1     2    1
