@<TRIPOS>MOLECULE
3fzp_AGS_A_1.pdb
 31 33 0 0 0
SMALL
GASTEIGER

@<TRIPOS>ATOM
      1  PG        11.7700  -11.7790   12.9540 P.3   999  AGS999      0.4340
      2  S1G       12.0730  -13.6810   12.5580 S.3   999  AGS999      0.0416
      3  O2G       12.2740  -11.3980   14.3210 O.3   999  AGS999     -0.1305
      4  O3G       10.3420  -11.3740   12.6330 O.2   999  AGS999     -0.2423
      5  PB        14.4420  -10.8570   12.3040 P.3   999  AGS999      0.2262
      6  O1B       14.7690   -9.3920   12.2190 O.2   999  AGS999     -0.5168
      7  O2B       14.8590  -11.6590   13.5050 O.3   999  AGS999     -0.4369
      8  O3B       12.8430  -10.9780   12.0040 O.3   999  AGS999     -0.2405
      9  PA        14.7320  -10.7800    9.4990 P.3   999  AGS999      0.2189
     10  O1A       13.3000  -10.2810    9.5270 O.3   999  AGS999     -0.4371
     11  O2A       15.8780   -9.8030    9.4750 O.2   999  AGS999     -0.5170
     12  O3A       14.9130  -11.5430   10.9040 O.3   999  AGS999     -0.2701
     13  O5'       15.1030  -11.8950    8.3530 O.3   999  AGS999     -0.3112
     14  C5'       16.4720  -12.2580    8.2970 C.3   999  AGS999      0.1813
     15  C4'       17.0490  -12.5830    6.9090 C.3   999  AGS999      0.1821
     16  O4'       16.0620  -12.5470    5.8700 O.3   999  AGS999     -0.3135
     17  C3'       18.0700  -11.4980    6.5660 C.3   999  AGS999      0.2184
     18  O3'       18.9060  -11.8700    5.4590 O.3   999  AGS999     -0.2174
     19  C2'       17.1670  -10.4500    6.0210 C.3   999  AGS999      0.2570
     20  O2'       17.9600   -9.6090    5.2320 O.3   999  AGS999     -0.2130
     21  C1'       16.2760  -11.3190    5.1430 C.3   999  AGS999      0.3186
     22  N9        14.9920  -10.7040    4.8140 N.pl3 999  AGS999     -0.1439
     23  C8        13.9410  -10.5180    5.6540 C.3   999  AGS999      0.3377
     24  N7        12.9440   -9.9490    5.0120 N.2   999  AGS999     -0.2095
     25  C5        13.3610   -9.7960    3.7030 C.2   999  AGS999      0.2526
     26  C6        12.7210   -9.2600    2.5870 C.2   999  AGS999      0.4393
     27  N6        11.4070   -8.7570    2.6280 N.pl3 999  AGS999      0.2180
     28  N1        13.4040   -9.2530    1.4420 N.2   999  AGS999      0.0021
     29  C2        14.6550   -9.7410    1.4580 C.3   999  AGS999      0.5254
     30  N3        15.3670  -10.2750    2.4540 N.2   999  AGS999     -0.0055
     31  C4        14.6380  -10.2630    3.5700 C.2   999  AGS999      0.3518
@<TRIPOS>BOND
     1    28    29    1
     2    28    26    2
     3    29    30    1
     4    30    31    2
     5    26    27    1
     6    26    25    1
     7    31    25    1
     8    31    22    1
     9    25    24    2
    10    22    21    1
    11    22    23    1
    12    24    23    1
    13    21    16    1
    14    21    19    1
    15    20    19    1
    16    18    17    1
    17    16    15    1
    18    19    17    1
    19    17    15    1
    20    15    14    1
    21    14    13    1
    22    13     9    1
    23    11     9    2
    24     9    10    1
    25     9    12    1
    26    12     5    1
    27     8     5    1
    28     8     1    1
    29     6     5    2
    30     5     7    1
    31     2     1    1
    32     4     1    2
    33     1     3    1
