@<TRIPOS>MOLECULE
3fzr_3JZ_A_1.pdb
 35 38 0 0 0
SMALL
GASTEIGER

@<TRIPOS>ATOM
      1  C35       20.6360   65.5610   19.5510 C.3   999  3JZ999      0.1388
      2  C34       19.9640   66.9550   21.8930 C.3   999  3JZ999      0.1999
      3  N2        25.9610   69.2740   15.9400 N.2   999  3JZ999     -0.1686
      4  C7        26.8210   69.6040   16.9380 C.2   999  3JZ999      0.1196
      5  C6        26.5190   69.1450   18.2570 C.2   999  3JZ999      0.1374
      6  C13       23.9200   65.8990   20.0810 C.ar  999  3JZ999      0.0143
      7  C20       22.8840   65.0480   20.4410 C.ar  999  3JZ999      0.0662
      8  C21       21.1130   65.1460   15.7460 C.2   999  3JZ999      0.1407
      9  C8        27.4490   69.5790   19.3080 C.3   999  3JZ999      0.4237
     10  C18       25.3980   63.9070   20.0150 C.ar  999  3JZ999     -0.0002
     11  C16       23.1480   66.0260   16.6370 C.2   999  3JZ999      0.0029
     12  C19       24.4060   63.0670   20.3780 C.ar  999  3JZ999      0.0013
     13  O33       22.1110   66.3530   23.0020 O.2   999  3JZ999     -0.1542
     14  S31       21.1060   65.7730   22.2750 S.O2  999  3JZ999      0.0588
     15  O32       20.6420   64.4890   22.7570 O.2   999  3JZ999     -0.1542
     16  N30       21.5440   65.5130   20.6530 N.pl3 999  3JZ999     -0.1928
     17  C17       25.1910   65.2880   19.8320 C.ar  999  3JZ999     -0.0013
     18  C1        23.1590   63.6110   20.5900 C.ar  999  3JZ999      0.0159
     19  C12       23.6200   67.3390   19.9680 C.3   999  3JZ999      0.1425
     20  N10       24.9960   68.0170   19.9480 N.pl3 999  3JZ999     -0.2041
     21  C5        25.4350   68.3860   18.6230 C.2   999  3JZ999      0.2177
     22  F29       28.0710   68.4490   20.0010 F     999  3JZ999     -0.1656
     23  F28       26.7250   70.1790   20.2680 F     999  3JZ999     -0.1656
     24  F27       28.4510   70.2960   18.5600 F     999  3JZ999     -0.1656
     25  N4        24.6350   68.0320   17.6060 N.2   999  3JZ999     -0.3195
     26  C3        25.0140   68.4350   16.3440 C.1   999  3JZ999      0.1670
     27  N9        24.2490   67.9980   15.3890 N.pl3 999  3JZ999     -0.1548
     28  C11       23.2020   66.9850   15.6350 C.3   999  3JZ999      0.1485
     29  C14       22.1990   66.9370   14.6810 C.2   999  3JZ999     -0.0003
     30  C22       21.1850   66.0520   14.7500 C.2   999  3JZ999      0.0237
     31  C23       20.0120   65.8750   13.7710 C.3   999  3JZ999      0.1633
     32  C15       22.0940   65.1280   16.7040 C.2   999  3JZ999      0.0302
     33  N25       19.9940   64.3550   15.5650 N.2   999  3JZ999     -0.3364
     34  C24       19.2550   64.7220   14.4000 C.1   999  3JZ999      0.1848
     35  O26       18.1730   64.2240   13.9210 O.2   999  3JZ999     -0.2138
@<TRIPOS>BOND
     1    31    34    1
     2    31    30    1
     3    35    34    2
     4    34    33    2
     5    29    30    2
     6    29    28    1
     7    30     8    1
     8    27    28    1
     9    27    26    1
    10    33     8    2
    11    28    11    1
    12     8    32    1
    13     3    26    2
    14     3     4    1
    15    26    25    2
    16    11    32    2
    17     4     5    2
    18    25    21    2
    19     5    21    1
    20     5     9    1
    21    24     9    1
    22    21    20    1
    23     9    22    1
    24     9    23    1
    25     1    16    1
    26    17    10   ar
    27    17     6   ar
    28    20    19    1
    29    19     6    1
    30    10    12   ar
    31     6     7   ar
    32    12    18   ar
    33     7    18   ar
    34     7    16    1
    35    16    14    1
    36     2    14    1
    37    14    15    2
    38    14    13    2
