@<TRIPOS>MOLECULE
3fzs_B96_A_1.pdb
 39 43 0 0 0
SMALL
GASTEIGER

@<TRIPOS>ATOM
      1  C1        -4.8590   -2.6550   12.3500 C.2   999  B96999      0.3491
      2  O1        -4.2560   -2.6400   11.2790 O.2   999  B96999     -0.2484
      3  N2        -4.8370   -3.7260   13.1670 N.am  999  B96999     -0.1606
      4  C3        -4.0090   -4.8320   12.9830 C.ar  999  B96999      0.0751
      5  C4        -3.8010   -5.6970   11.8940 C.ar  999  B96999      0.0183
      6  C5        -2.8000   -6.6840   12.0070 C.ar  999  B96999      0.0352
      7  C6        -2.0000   -6.7920   13.1630 C.ar  999  B96999      0.1386
      8  C31       -4.5680   -5.6220   10.7390 C.ar  999  B96999      0.0014
      9  C32       -4.3500   -6.5160    9.6960 C.ar  999  B96999      0.0000
     10  C33       -3.3700   -7.4900    9.8050 C.ar  999  B96999      0.0001
     11  C34       -2.5920   -7.5770   10.9550 C.ar  999  B96999      0.0031
     12  C7        -2.1920   -5.9060   14.2090 C.ar  999  B96999      0.0382
     13  C8        -3.1810   -4.9360   14.1020 C.ar  999  B96999      0.0198
     14  N9        -5.6170   -1.6450   12.7710 N.am  999  B96999     -0.1418
     15  C10       -5.8550   -0.4280   12.1570 C.ar  999  B96999      0.1587
     16  C14       -5.4330   -0.0130   10.8910 C.ar  999  B96999      0.0527
     17  C13       -6.0080    1.2730   10.8210 C.ar  999  B96999      0.0811
     18  N12       -6.7360    1.6470   11.8990 N.ar  999  B96999     -0.1683
     19  N11       -6.6280    0.5170   12.7020 N.ar  999  B96999     -0.2145
     20  C15       -7.2180    0.5540   13.9110 C.ar  999  B96999      0.0842
     21  C17       -7.2520    2.3510    8.9890 C.3   999  B96999      0.0060
     22  C18       -5.5120    3.6330   10.2350 C.3   999  B96999      0.0060
     23  C19       -4.9000    1.7610    8.6500 C.3   999  B96999      0.0060
     24  C16       -5.9030    2.2540    9.6800 C.3   999  B96999      0.0372
     25  C20       -6.5440    0.1410   15.0700 C.ar  999  B96999      0.0189
     26  C21       -7.1250    0.2210   16.3440 C.ar  999  B96999     -0.0027
     27  C22       -8.3940    0.7720   16.4790 C.ar  999  B96999     -0.0218
     28  C23       -9.0760    1.2310   15.3600 C.ar  999  B96999     -0.0027
     29  C24       -8.4820    1.1290   14.1030 C.ar  999  B96999      0.0189
     30  C25       -9.0500    0.8810   17.8370 C.3   999  B96999      0.0310
     31  O41       -1.0220   -7.7530   13.2780 O.3   999  B96999     -0.4740
     32  C42        0.0620   -7.6170   14.2130 C.3   999  B96999      0.2226
     33  C43        1.1200   -8.6890   13.9360 C.3   999  B96999      0.1202
     34  N44        2.0730   -8.2320   12.9140 N.3   999  B96999     -0.2653
     35  C45        1.3980   -7.9790   11.6170 C.3   999  B96999      0.1047
     36  C46        2.4400   -7.6260   10.5580 C.3   999  B96999      0.1595
     37  O47        3.3460   -8.7250   10.4290 O.3   999  B96999     -0.3508
     38  C48        4.0920   -8.9610   11.6300 C.3   999  B96999      0.1595
     39  C49        3.1380   -9.2630   12.7860 C.3   999  B96999      0.1047
@<TRIPOS>BOND
     1    23    24    1
     2    21    24    1
     3    24    22    1
     4    24    17    1
     5     9    10   ar
     6     9     8   ar
     7    10    11   ar
     8    37    36    1
     9    37    38    1
    10    36    35    1
    11     8     5   ar
    12    17    16   ar
    13    17    18   ar
    14    16    15   ar
    15    11     6   ar
    16     2     1    2
    17    35    34    1
    18    38    39    1
    19     5     6   ar
    20     5     4   ar
    21    18    19   ar
    22     6     7   ar
    23    15    19   ar
    24    15    14    1
    25     1    14   am
    26     1     3   am
    27    19    20    1
    28    39    34    1
    29    34    33    1
    30     4     3    1
    31     4    13   ar
    32     7    31    1
    33     7    12   ar
    34    31    32    1
    35    20    29   ar
    36    20    25   ar
    37    33    32    1
    38    13    12   ar
    39    29    28   ar
    40    25    26   ar
    41    28    27   ar
    42    26    27   ar
    43    27    30    1
