@<TRIPOS>MOLECULE
3fzt_4JZ_A_1.pdb
 33 36 0 0 0
SMALL
GASTEIGER

@<TRIPOS>ATOM
      1  C4        -5.8340    3.9610    9.8660 C.3   999  4JZ999      0.0060
      2  C7        -7.5500    0.3850   15.9770 C.ar  999  4JZ999     -0.0027
      3  C6         0.4380   -8.4020   10.1830 C.ar  999  4JZ999      0.0401
      4  C9        -6.8760    0.2730   14.7630 C.ar  999  4JZ999      0.0189
      5  C13       -5.9510    0.2050   10.4410 C.ar  999  4JZ999      0.0527
      6  C20       -6.2800    1.5800   10.3960 C.ar  999  4JZ999      0.0811
      7  C21       -4.3530   -4.6630   12.3980 C.2   999  4JZ999      0.3792
      8  C8        -9.3960    1.4990   14.9260 C.ar  999  4JZ999     -0.0027
      9  C18       -0.9190   -8.4430    9.8390 C.ar  999  4JZ999      0.1582
     10  C16       -8.7890    1.0170   16.0680 C.ar  999  4JZ999     -0.0218
     11  C19       -2.6350   -6.0330   12.0680 C.2   999  4JZ999      0.1390
     12  C1        -9.5170    1.1140   17.3980 C.3   999  4JZ999      0.0310
     13  C2        -7.2900    2.5700    8.3850 C.3   999  4JZ999      0.0060
     14  C3        -4.8680    2.1640    8.3720 C.3   999  4JZ999      0.0060
     15  C5         1.3430   -9.1830    9.4540 C.ar  999  4JZ999      0.0238
     16  C10       -8.7400    1.3850   13.7100 C.ar  999  4JZ999      0.0189
     17  C11        0.8670   -9.9720    8.4120 C.ar  999  4JZ999      0.0991
     18  C12       -3.4090   -5.0140   11.4690 C.3   999  4JZ999      0.1729
     19  C14       -1.3180   -9.2570    8.7890 C.ar  999  4JZ999      0.1356
     20  C15       -1.4560   -6.7960   11.4990 C.3   999  4JZ999      0.2510
     21  C17       -7.4790    0.7860   13.6180 C.ar  999  4JZ999      0.0842
     22  C22       -6.3420   -0.2870   11.6510 C.ar  999  4JZ999      0.1609
     23  C23       -5.2640   -2.4750   11.8140 C.2   999  4JZ999      0.4591
     24  C24       -6.0490    2.5600    9.2680 C.3   999  4JZ999      0.0372
     25  N25       -4.1130   -5.3670   13.5160 N.2   999  4JZ999      0.0795
     26  N26       -0.4180   -9.9790    8.1190 N.ar  999  4JZ999     -0.2391
     27  N27       -3.0620   -6.2270   13.2890 N.2   999  4JZ999     -0.0389
     28  N28       -6.8340    1.8990   11.5350 N.ar  999  4JZ999     -0.1683
     29  N29       -5.3190   -3.6660   12.4510 N.am  999  4JZ999      0.0505
     30  N30       -6.2290   -1.6010   12.1520 N.am  999  4JZ999     -0.1181
     31  N31       -6.8960    0.7510   12.3390 N.ar  999  4JZ999     -0.2145
     32  O32       -4.4110   -2.2200   10.9690 O.2   999  4JZ999     -0.2173
     33  O33       -1.8630   -7.7050   10.4940 O.3   999  4JZ999     -0.4676
@<TRIPOS>BOND
     1    26    17   ar
     2    26    19   ar
     3    14    24    1
     4    13    24    1
     5    17    15   ar
     6    19     9   ar
     7    24     1    1
     8    24     6    1
     9    15     3   ar
    10     9     3   ar
    11     9    33    1
    12     6     5   ar
    13     6    28   ar
    14     5    22   ar
    15    33    20    1
    16    32    23    2
    17    18    11    1
    18    18     7    1
    19    20    11    1
    20    28    31   ar
    21    22    30    1
    22    22    31   ar
    23    23    30   am
    24    23    29   am
    25    11    27    2
    26    31    21    1
    27     7    29    1
    28     7    25    2
    29    27    25    1
    30    21    16   ar
    31    21     4   ar
    32    16     8   ar
    33     4     2   ar
    34     8    10   ar
    35     2    10   ar
    36    10    12    1
