@<TRIPOS>MOLECULE
3fzw_EQU_A_1.pdb
 20 23 0 0 0
SMALL
GASTEIGER

@<TRIPOS>ATOM
      1  C1        22.4360    2.9940  -12.1790 C.ar  132  EQU132      0.1957
      2  C2        22.1980    4.0600  -11.3170 C.ar  132  EQU132      0.0420
      3  C3        23.0090    5.1780  -11.3780 C.ar  132  EQU132      0.0029
      4  C4        24.1270    5.2850  -12.2450 C.ar  132  EQU132     -0.0041
      5  C5        24.3630    4.1790  -13.0880 C.ar  132  EQU132      0.0030
      6  C6        23.5420    3.0560  -13.0600 C.ar  132  EQU132      0.0420
      7  C10       22.7570    6.2950  -10.5400 C.ar  132  EQU132     -0.0002
      8  C11       23.4990    7.4350  -10.6550 C.ar  132  EQU132     -0.0046
      9  C12       24.5840    7.5250  -11.5480 C.ar  132  EQU132     -0.0260
     10  C13       24.9430    6.4350  -12.3520 C.ar  132  EQU132     -0.0261
     11  C16       25.4810    8.7680  -11.6160 C.3   132  EQU132      0.0290
     12  C17       26.0880    8.8980  -13.0220 C.3   132  EQU132      0.0556
     13  C18       27.0120    7.7380  -13.3110 C.3   132  EQU132      0.0119
     14  C19       26.1110    6.4570  -13.3540 C.3   132  EQU132      0.0265
     15  C24       24.7090   10.1400  -11.4420 C.3   132  EQU132      0.0125
     16  C25       25.8310   11.1460  -11.9710 C.3   132  EQU132      0.0648
     17  C26       26.7230   10.2530  -12.8180 C.2   132  EQU132      0.1502
     18  C27       25.0790    9.1310  -14.1540 C.3   132  EQU132      0.0077
     19  O1        21.6510    1.9330  -12.1300 O.3   132  EQU132     -0.2866
     20  O26       27.8370   10.5850  -13.2620 O.2   132  EQU132     -0.2961
@<TRIPOS>BOND
     1    18    12    1
     2    14    13    1
     3    14    10    1
     4    13    12    1
     5    20    17    2
     6     5     6   ar
     7     5     4   ar
     8     6     1   ar
     9    12    17    1
    10    12    11    1
    11    17    16    1
    12    10     4   ar
    13    10     9   ar
    14     4     3   ar
    15     1    19    1
    16     1     2   ar
    17    16    15    1
    18    11     9    1
    19    11    15    1
    20     9     8   ar
    21     3     2   ar
    22     3     7   ar
    23     8     7   ar
