@<TRIPOS>MOLECULE
3fzy_IHP_A_1.pdb
 36 36 0 0 0
SMALL
GASTEIGER

@<TRIPOS>ATOM
      1  C1         6.4020   20.0970   39.0610 C.3   8000  IHP8000     0.1863
      2  C2         7.5470   19.5110   39.8930 C.3   8000  IHP8000     0.1863
      3  C3         7.4860   17.9670   39.8730 C.3   8000  IHP8000     0.1863
      4  C4         7.5260   17.4010   38.4550 C.3   8000  IHP8000     0.1863
      5  C5         6.3130   17.9660   37.7100 C.3   8000  IHP8000     0.1863
      6  C6         6.4440   19.5040   37.6510 C.3   8000  IHP8000     0.1863
      7  O11        6.4790   21.5160   38.9940 O.3   8000  IHP8000    -0.2675
      8  P1         5.6350   22.5600   39.8720 P.3   8000  IHP8000     0.5327
      9  O21        6.0950   23.8190   39.2270 O.2   8000  IHP8000    -0.2224
     10  O31        6.1250   22.3930   41.2950 O.3   8000  IHP8000    -0.1145
     11  O41        4.1770   22.1750   39.5750 O.3   8000  IHP8000    -0.1145
     12  O12        8.7880   19.9240   39.3280 O.3   8000  IHP8000    -0.2675
     13  P2         9.7740   21.0360   39.9000 P.3   8000  IHP8000     0.5327
     14  O22       10.2510   21.7120   38.6320 O.2   8000  IHP8000    -0.2224
     15  O32        8.9690   21.9300   40.8170 O.3   8000  IHP8000    -0.1145
     16  O42       10.8080   20.2320   40.6340 O.3   8000  IHP8000    -0.1145
     17  O13        8.5360   17.3900   40.6520 O.3   8000  IHP8000    -0.2675
     18  P3         8.2850   16.3370   41.8520 P.3   8000  IHP8000     0.5327
     19  O23        9.1040   15.1880   41.3160 O.2   8000  IHP8000    -0.2224
     20  O33        6.8400   16.0450   41.8720 O.3   8000  IHP8000    -0.1145
     21  O43        8.7840   16.9420   43.1200 O.3   8000  IHP8000    -0.1145
     22  O14        7.4750   15.9600   38.4740 O.3   8000  IHP8000    -0.2675
     23  P4         8.6910   15.0120   38.0250 P.3   8000  IHP8000     0.5327
     24  O24        9.7960   15.1550   39.0500 O.3   8000  IHP8000    -0.1145
     25  O34        7.9910   13.6560   38.0380 O.3   8000  IHP8000    -0.1145
     26  O44        9.1260   15.3180   36.6300 O.2   8000  IHP8000    -0.2224
     27  O15        6.1710   17.3460   36.4340 O.3   8000  IHP8000    -0.2675
     28  P5         4.7540   16.7730   35.8610 P.3   8000  IHP8000     0.5327
     29  O25        4.0000   16.5330   37.1300 O.3   8000  IHP8000    -0.1145
     30  O35        4.1480   17.8180   34.9530 O.2   8000  IHP8000    -0.2224
     31  O45        5.1300   15.5110   35.1290 O.3   8000  IHP8000    -0.1145
     32  O16        5.3790   20.0750   36.8800 O.3   8000  IHP8000    -0.2675
     33  P6         5.6350   20.8210   35.5080 P.3   8000  IHP8000     0.5327
     34  O26        5.5140   19.7630   34.4520 O.2   8000  IHP8000    -0.2224
     35  O36        4.4770   21.7770   35.5240 O.3   8000  IHP8000    -0.1145
     36  O46        7.0330   21.4540   35.5060 O.3   8000  IHP8000    -0.1145
@<TRIPOS>BOND
     1    34    33    2
     2    30    28    2
     3    31    28    1
     4    36    33    1
     5    33    35    1
     6    33    32    1
     7    28    27    1
     8    28    29    1
     9    27     5    1
    10    26    23    2
    11    32     6    1
    12     6     5    1
    13     6     1    1
    14     5     4    1
    15    23    25    1
    16    23    22    1
    17    23    24    1
    18     4    22    1
    19     4     3    1
    20    14    13    2
    21     7     1    1
    22     7     8    1
    23     1     2    1
    24     9     8    2
    25    12     2    1
    26    12    13    1
    27    11     8    1
    28     8    10    1
    29     3     2    1
    30     3    17    1
    31    13    16    1
    32    13    15    1
    33    17    18    1
    34    19    18    2
    35    18    20    1
    36    18    21    1
