@<TRIPOS>MOLECULE
3g07_SAM_A_1.pdb
 27 29 0 0 0
SMALL
GASTEIGER

@<TRIPOS>ATOM
      1  N         42.4760   72.9080   55.7670 N.3   701  SAM701     -0.1208
      2  CA        43.5080   72.7490   54.7410 C.3   701  SAM701      0.1952
      3  C         44.7770   72.0870   55.2660 C.2   701  SAM701      0.3819
      4  O         44.9990   71.9790   56.4760 O.co2 701  SAM701     -0.2441
      5  OXT       45.6010   71.6430   54.4640 O.co2 701  SAM701     -0.2441
      6  CB        43.8710   74.0770   54.0860 C.3   701  SAM701      0.0414
      7  CG        44.6380   75.0610   54.9620 C.3   701  SAM701      0.0503
      8  SD        45.0540   76.5300   53.9810 S.3   701  SAM701     -0.1761
      9  CE        46.2610   77.3220   55.0770 C.3   701  SAM701      0.0590
     10  C5'       43.5900   77.5630   54.2470 C.3   701  SAM701      0.0806
     11  C4'       42.5440   77.3800   53.1510 C.3   701  SAM701      0.1622
     12  O4'       41.3160   77.9300   53.5830 O.3   701  SAM701     -0.3153
     13  C3'       42.9300   78.1150   51.8810 C.3   701  SAM701      0.2168
     14  O3'       42.8230   77.2210   50.7940 O.3   701  SAM701     -0.2175
     15  C2'       41.9200   79.2510   51.7690 C.3   701  SAM701      0.2569
     16  O2'       41.5790   79.5690   50.4330 O.3   701  SAM701     -0.2130
     17  C1'       40.7390   78.7290   52.5710 C.3   701  SAM701      0.3185
     18  N9        39.9050   79.7620   53.2170 N.pl3 701  SAM701     -0.1439
     19  C8        40.3350   80.8840   53.8650 C.3   701  SAM701      0.3377
     20  N7        39.2650   81.5650   54.3240 N.2   701  SAM701     -0.2095
     21  C5        38.1510   80.8800   53.9890 C.2   701  SAM701      0.2526
     22  C6        36.8040   81.1300   54.2180 C.2   701  SAM701      0.4393
     23  N6        36.4540   82.2230   54.8880 N.pl3 701  SAM701      0.2180
     24  N1        35.8550   80.2460   53.7480 N.2   701  SAM701      0.0021
     25  C2        36.2570   79.1190   53.0590 C.3   701  SAM701      0.5254
     26  N3        37.5920   78.8740   52.8250 N.2   701  SAM701     -0.0055
     27  C4        38.5320   79.7430   53.2890 C.2   701  SAM701      0.3518
@<TRIPOS>BOND
     1    16    15    1
     2    14    13    1
     3    15    13    1
     4    15    17    1
     5    13    11    1
     6    17    18    1
     7    17    12    1
     8    26    25    1
     9    26    27    2
    10    25    24    1
    11    11    12    1
    12    11    10    1
    13    18    27    1
    14    18    19    1
    15    27    21    1
    16    24    22    2
    17    19    20    1
    18     8    10    1
    19     8     7    1
    20     8     9    1
    21    21    22    1
    22    21    20    2
    23     6     2    1
    24     6     7    1
    25    22    23    1
    26     5     3   ar
    27     2     3    1
    28     2     1    1
    29     3     4   ar
