@<TRIPOS>MOLECULE
3g0b_T22_A_1.pdb
 25 27 0 0 0
SMALL
GASTEIGER

@<TRIPOS>ATOM
      1  O26       41.2630   33.8520   11.7700 O.2   800  T22800     -0.2461
      2  C25       42.0840   33.4010   12.6020 C.ar  800  T22800      0.3350
      3  N2        42.5640   32.1420   12.4290 N.ar  800  T22800     -0.2466
      4  C1        42.0920   31.3540   11.2710 C.3   800  T22800      0.1382
      5  N15       42.4670   34.1610   13.6530 N.ar  800  T22800     -0.2651
      6  C16       41.9100   35.5340   13.7850 C.3   800  T22800      0.1391
      7  C17       40.3890   35.6000   13.9450 C.ar  800  T22800      0.0102
      8  C22       39.6620   34.8050   14.8640 C.ar  800  T22800      0.0663
      9  C23       40.2280   33.9290   15.6510 C.1   800  T22800      0.1002
     10  N24       40.7240   33.1510   16.3760 N.1   800  T22800     -0.1908
     11  C21       38.2650   34.9480   14.9320 C.ar  800  T22800      0.0100
     12  C20       37.5930   35.8730   14.1150 C.ar  800  T22800      0.0007
     13  C19       38.3180   36.6800   13.2310 C.ar  800  T22800     -0.0002
     14  C18       39.7050   36.5260   13.1540 C.ar  800  T22800     -0.0017
     15  C6        43.3720   33.6580   14.5520 C.ar  800  T22800      0.1208
     16  C5        43.8720   32.3590   14.3960 C.ar  800  T22800      0.0935
     17  C3        43.4460   31.6200   13.3110 C.ar  800  T22800      0.2671
     18  O4        43.9100   30.4730   13.1810 O.2   800  T22800     -0.2668
     19  N7        43.9910   34.4110   15.5810 N.pl3 800  T22800     -0.2928
     20  C14       44.0770   33.8920   16.9690 C.3   800  T22800      0.1110
     21  C11       44.0450   34.9720   18.0630 C.3   800  T22800      0.1116
     22  N13       42.6720   35.5000   18.2800 N.3   800  T22800     -0.1311
     23  C10       45.0000   36.1080   17.7300 C.3   800  T22800      0.0225
     24  C9        44.7530   36.6570   16.3310 C.3   800  T22800      0.0230
     25  C8        44.8200   35.5820   15.2680 C.3   800  T22800      0.0922
@<TRIPOS>BOND
     1     4     3    1
     2     1     2    2
     3     3     2   ar
     4     3    17   ar
     5     2     5   ar
     6    14    13   ar
     7    14     7   ar
     8    18    17    2
     9    13    12   ar
    10    17    16   ar
    11     5     6    1
    12     5    15   ar
    13     6     7    1
    14     7     8   ar
    15    12    11   ar
    16    16    15   ar
    17    15    19    1
    18     8    11   ar
    19     8     9    1
    20    25    19    1
    21    25    24    1
    22    19    20    1
    23     9    10    3
    24    24    23    1
    25    20    21    1
    26    23    21    1
    27    21    22    1
