@<TRIPOS>MOLECULE
3g0b_NAG_A_1.pdb
 14 14 0 0 0
SMALL
GASTEIGER

@<TRIPOS>ATOM
      1  C1        75.6040   12.0200   32.4320 C.3   801  NAG801      0.1665
      2  C2        74.8320   12.2120   33.7350 C.3   801  NAG801      0.1576
      3  C3        75.6920   13.0070   34.7280 C.3   801  NAG801      0.2069
      4  C4        77.0880   12.3790   34.8690 C.3   801  NAG801      0.2134
      5  C5        77.7170   12.1070   33.4950 C.3   801  NAG801      0.1809
      6  C6        79.0270   11.3370   33.6040 C.3   801  NAG801      0.2141
      7  C7        72.3950   12.2440   33.4380 C.2   801  NAG801      0.2420
      8  C8        71.4560   12.5860   34.5560 C.3   801  NAG801      0.0964
      9  N2        73.5720   12.8790   33.4410 N.am  801  NAG801     -0.2019
     10  O3        75.0660   13.0990   35.9940 O.3   801  NAG801     -0.2184
     11  O4        77.9280   13.2210   35.6360 O.3   801  NAG801     -0.2176
     12  O5        76.8290   11.3600   32.6800 O.3   801  NAG801     -0.3489
     13  O6        79.5300   11.1110   32.3060 O.3   801  NAG801     -0.2176
     14  O7        72.0570   11.4270   32.5830 O.2   801  NAG801     -0.2733
@<TRIPOS>BOND
     1    13     6    1
     2     1    12    1
     3     1     2    1
     4    14     7    2
     5    12     5    1
     6     7     9   am
     7     7     8    1
     8     9     2    1
     9     5     6    1
    10     5     4    1
    11     2     3    1
    12     3     4    1
    13     3    10    1
    14     4    11    1
