@<TRIPOS>MOLECULE
3g0c_NAG_A_1.pdb
 14 14 0 0 0
SMALL
GASTEIGER

@<TRIPOS>ATOM
      1  C1        76.0560   -3.9300   31.9460 C.3   801  NAG801      0.1665
      2  C2        75.3420   -3.6790   33.2920 C.3   801  NAG801      0.1576
      3  C3        76.1840   -2.8300   34.2610 C.3   801  NAG801      0.2069
      4  C4        77.6190   -3.3420   34.3530 C.3   801  NAG801      0.2134
      5  C5        78.2220   -3.4710   32.9550 C.3   801  NAG801      0.1809
      6  C6        79.6390   -4.0440   33.0390 C.3   801  NAG801      0.2141
      7  C7        72.8650   -3.6350   33.1750 C.2   801  NAG801      0.2420
      8  C8        71.6830   -2.7320   33.3580 C.3   801  NAG801      0.0964
      9  N2        74.0510   -3.0290   33.0590 N.am  801  NAG801     -0.2019
     10  O3        75.6120   -2.8060   35.5550 O.3   801  NAG801     -0.2184
     11  O4        78.4040   -2.4840   35.1590 O.3   801  NAG801     -0.2176
     12  O5        77.4110   -4.3120   32.1460 O.3   801  NAG801     -0.3489
     13  O6        79.6860   -5.3420   32.4880 O.3   801  NAG801     -0.2176
     14  O7        72.7020   -4.8530   33.1420 O.2   801  NAG801     -0.2733
@<TRIPOS>BOND
     1     1    12    1
     2     1     2    1
     3    12     5    1
     4    13     6    1
     5     5     6    1
     6     5     4    1
     7     9     7   am
     8     9     2    1
     9    14     7    2
    10     7     8    1
    11     2     3    1
    12     3     4    1
    13     3    10    1
    14     4    11    1
