@<TRIPOS>MOLECULE
3g0c_RUF_A_1.pdb
 27 30 0 0 0
SMALL
GASTEIGER

@<TRIPOS>ATOM
      1  C1        46.4360   16.1120   13.7630 C.3   800  RUF800      0.1239
      2  N2        45.1930   16.6010   13.1520 N.am  800  RUF800     -0.2178
      3  C3        44.6280   17.7960   13.6080 C.2   800  RUF800      0.1973
      4  N4        44.9600   18.6910   14.5430 N.2   800  RUF800     -0.3599
      5  C5        44.0750   19.6780   14.6130 C.cat 800  RUF800      0.2436
      6  N6        44.1620   20.7570   15.5020 N.pl3 800  RUF800     -0.2686
      7  C7        45.3080   20.6920   16.4430 C.3   800  RUF800      0.1132
      8  C8        44.9420   19.8670   17.6920 C.3   800  RUF800      0.1102
      9  N9        43.6900   20.3430   18.3200 N.3   800  RUF800     -0.2144
     10  C10       42.5380   20.4080   17.4010 C.3   800  RUF800      0.1102
     11  C11       42.9010   21.2140   16.1500 C.3   800  RUF800      0.1132
     12  N12       43.1070   19.4380   13.6630 N.pl3 800  RUF800     -0.2541
     13  C13       41.8860   20.2000   13.3730 C.3   800  RUF800      0.1228
     14  C14       40.7600   19.5350   14.1530 C.ar  800  RUF800      0.0083
     15  C15       40.9790   18.4150   14.9640 C.ar  800  RUF800     -0.0018
     16  C16       39.9480   17.8220   15.6820 C.ar  800  RUF800     -0.0002
     17  C17       38.6650   18.3430   15.5860 C.ar  800  RUF800      0.0008
     18  C18       38.4270   19.4560   14.7860 C.ar  800  RUF800      0.0111
     19  C19       39.4730   20.0400   14.0810 C.ar  800  RUF800      0.0553
     20 CL20       39.1690   21.4110   13.0830 Cl    800  RUF800     -0.0825
     21  C21       43.4390   18.2420   13.0270 C.3   800  RUF800      0.2214
     22  C22       42.8300   17.4750   12.0040 C.2   800  RUF800      0.2591
     23  O23       41.7870   17.8660   11.4990 O.2   800  RUF800     -0.2721
     24  N24       43.4120   16.3110   11.6010 N.am  800  RUF800     -0.2103
     25  C25       42.7810   15.5020   10.5420 C.3   800  RUF800      0.1245
     26  C26       44.5670   15.8900   12.1710 C.2   800  RUF800      0.3185
     27  O27       45.0520   14.8480   11.7790 O.2   800  RUF800     -0.2515
@<TRIPOS>BOND
     1    25    24    1
     2    23    22    2
     3    24    22   am
     4    24    26   am
     5    27    26    2
     6    22    21    1
     7    26     2   am
     8    21     3    1
     9    21    12    1
    10    20    19    1
    11     2     3    1
    12     2     1    1
    13    13    12    1
    14    13    14    1
    15     3     4    2
    16    12     5    1
    17    19    14   ar
    18    19    18   ar
    19    14    15   ar
    20     4     5    2
    21     5     6    1
    22    18    17   ar
    23    15    16   ar
    24     6    11    1
    25     6     7    1
    26    17    16   ar
    27    11    10    1
    28     7     8    1
    29    10     9    1
    30     8     9    1
