@<TRIPOS>MOLECULE
3g0d_NAG_A_1.pdb
 14 14 0 0 0
SMALL
GASTEIGER

@<TRIPOS>ATOM
      1  C1        76.6820  -21.5400   32.1410 C.3   801  NAG801      0.1665
      2  C2        76.0760  -20.9570   33.4250 C.3   801  NAG801      0.1576
      3  C3        77.1630  -20.4140   34.3570 C.3   801  NAG801      0.2069
      4  C4        78.2740  -21.4440   34.5670 C.3   801  NAG801      0.2134
      5  C5        78.7780  -21.9780   33.2220 C.3   801  NAG801      0.1809
      6  C6        79.8020  -23.0940   33.4160 C.3   801  NAG801      0.2141
      7  C7        73.8390  -19.9200   33.4660 C.2   801  NAG801      0.2420
      8  C8        73.2770  -18.5950   33.8910 C.3   801  NAG801      0.0964
      9  N2        75.1250  -19.9040   33.1050 N.am  801  NAG801     -0.2019
     10  O3        76.6000  -20.0580   35.6010 O.3   801  NAG801     -0.2184
     11  O4        79.3340  -20.8700   35.3030 O.3   801  NAG801     -0.2176
     12  O5        77.6960  -22.4820   32.4550 O.3   801  NAG801     -0.3489
     13  O6        80.3250  -23.4770   32.1640 O.3   801  NAG801     -0.2176
     14  O7        73.1240  -20.9280   33.4540 O.2   801  NAG801     -0.2733
@<TRIPOS>BOND
     1     1    12    1
     2     1     2    1
     3    13     6    1
     4    12     5    1
     5     9     2    1
     6     9     7   am
     7     5     6    1
     8     5     4    1
     9     2     3    1
    10    14     7    2
    11     7     8    1
    12     3     4    1
    13     3    10    1
    14     4    11    1
