@<TRIPOS>MOLECULE
3g0d_XIH_A_1.pdb
 29 32 0 0 0
SMALL
GASTEIGER

@<TRIPOS>ATOM
      1  C5        43.1440    0.1760   13.0240 C.3   800  XIH800      0.2214
      2  C6        44.1360   -0.8220   13.4410 C.2   800  XIH800      0.1973
      3  C8        44.2020    0.8640   14.7340 C.cat 800  XIH800      0.2435
      4  C10       45.4420    2.8400   15.4660 C.3   800  XIH800      0.0945
      5  C13       44.7140    2.0420   18.2610 C.3   800  XIH800      0.1117
      6  C15       44.6520    1.0030   17.1360 C.3   800  XIH800      0.1133
      7  C17       42.4830    2.4980   13.8840 C.3   800  XIH800      0.1226
      8  C20       38.9510    3.5370   13.1090 C.ar  800  XIH800     -0.0002
      9  C21       38.2010    2.7180   13.9480 C.ar  800  XIH800      0.0007
     10  C22       38.8260    1.7920   14.7840 C.ar  800  XIH800      0.0100
     11  C24       40.7500    0.8000   15.6100 C.1   800  XIH800      0.1001
     12  C28       43.5150   -2.2950   11.6930 C.2   800  XIH800      0.3185
     13  C         41.7520   -1.8160   10.0220 C.3   800  XIH800      0.1245
     14  N         42.5230   -1.4020   11.2060 N.am  800  XIH800     -0.2103
     15  C3        42.2990   -0.1530   11.8420 C.2   800  XIH800      0.2591
     16  O         41.4390    0.6360   11.4140 O.2   800  XIH800     -0.2721
     17  N7        44.7670   -0.3490   14.5170 N.2   800  XIH800     -0.3599
     18  N9        44.7210    1.5970   15.7920 N.pl3 800  XIH800     -0.2701
     19  C11       45.5420    3.7830   16.6650 C.3   800  XIH800      0.0231
     20  C12       45.8260    3.0480   17.9720 C.3   800  XIH800      0.0225
     21  N14       43.4260    2.7020   18.3750 N.3   800  XIH800     -0.1311
     22  N16       43.2160    1.2240   13.8780 N.pl3 800  XIH800     -0.2541
     23  C18       40.9760    2.4950   13.9560 C.ar  800  XIH800      0.0074
     24  C19       40.3350    3.4190   13.1250 C.ar  800  XIH800     -0.0019
     25  C23       40.2220    1.6710   14.8000 C.ar  800  XIH800      0.0661
     26  N25       41.2610    0.0890   16.3760 N.1   800  XIH800     -0.1908
     27  N26       44.3250   -1.9920   12.8120 N.am  800  XIH800     -0.2178
     28  C27       45.3330   -2.9560   13.2860 C.3   800  XIH800      0.1239
     29  O29       43.6960   -3.3840   11.1160 O.2   800  XIH800     -0.2515
@<TRIPOS>BOND
     1    13    14    1
     2    29    12    2
     3    14    12   am
     4    14    15   am
     5    16    15    2
     6    12    27   am
     7    15     1    1
     8    27    28    1
     9    27     2    1
    10     1     2    1
    11     1    22    1
    12     8    24   ar
    13     8     9   ar
    14    24    23   ar
    15     2    17    2
    16    22     7    1
    17    22     3    1
    18     7    23    1
    19     9    10   ar
    20    23    25   ar
    21    17     3    2
    22     3    18    1
    23    10    25   ar
    24    25    11    1
    25     4    18    1
    26     4    19    1
    27    11    26    3
    28    18     6    1
    29    19    20    1
    30     6     5    1
    31    20     5    1
    32     5    21    1
