@<TRIPOS>MOLECULE
3g0e_B49_A_1.pdb
 22 24 0 0 0
SMALL
GASTEIGER

@<TRIPOS>ATOM
      1  C4        30.4310   -1.0870  -77.3110 C.3   9000  B499000     0.0665
      2  C5        36.7490   -8.2550  -79.3610 C.2   9000  B499000     0.0317
      3  C6        35.3630   -8.3330  -79.0510 C.2   9000  B499000     0.0315
      4  C7        36.7290   -5.7850  -79.0920 C.2   9000  B499000     0.0154
      5  C13       34.1100   -1.0460  -78.0240 C.2   9000  B499000     0.0144
      6  C15       37.4160   -6.9940  -79.3790 C.2   9000  B499000     0.1367
      7  C17       35.3420   -5.8670  -78.7840 C.3   9000  B499000     0.1118
      8  C20       34.2960   -4.8670  -78.4420 C.2   9000  B499000     0.0855
      9  C21       33.0150   -5.6470  -78.2330 C.1   9000  B499000     0.2010
     10  C22       32.8040    1.1740  -77.5610 C.2   9000  B499000     0.2861
     11  C3        35.4800   -0.4750  -78.2400 C.3   9000  B499000     0.0339
     12  C12       34.5760   -3.5460  -78.3710 C.2   9000  B499000     0.0407
     13  C14       31.8840   -1.2200  -77.6050 C.2   9000  B499000     0.1136
     14  C16       34.6920   -7.1320  -78.7700 C.2   9000  B499000     0.1306
     15  C18       33.7640   -2.3980  -78.0890 C.2   9000  B499000     0.1277
     16  C19       32.9100   -0.2910  -77.7180 C.2   9000  B499000     0.0805
     17  N23       32.4170   -2.4670  -77.8280 N.2   9000  B499000    -0.4064
     18  N24       33.3450   -6.9850  -78.4480 N.2   9000  B499000    -0.3369
     19  N25       33.7330    1.7470  -76.7100 N.am  9000  B499000    -0.0836
     20  O27       31.9230   -5.2050  -77.9410 O.2   9000  B499000    -0.2096
     21  O28       31.9360    1.8230  -78.1530 O.2   9000  B499000    -0.2666
     22  F29       38.7250   -6.9540  -79.6720 F     9000  B499000    -0.2045
@<TRIPOS>BOND
     1    22     6    1
     2     6     2    1
     3     6     4    2
     4     2     3    2
     5     4     7    1
     6     3    14    1
     7     7    14    1
     8     7     8    1
     9    14    18    2
    10    18     9    2
    11     8    12    2
    12     8     9    1
    13    12    15    1
    14    11     5    1
    15     9    20    2
    16    21    10    2
    17    15     5    1
    18    15    17    2
    19     5    16    2
    20    17    13    2
    21    16    13    1
    22    16    10    1
    23    13     1    1
    24    10    19   am
