@<TRIPOS>MOLECULE
3g0f_B49_A_1.pdb
 22 24 0 0 0
SMALL
GASTEIGER

@<TRIPOS>ATOM
      1  C4       -12.5570   70.4800  -38.3840 C.3   9001  B499001     0.0665
      2  C5       -17.2200   78.9120  -37.0410 C.2   9001  B499001     0.0317
      3  C6       -15.9490   78.6880  -37.6290 C.2   9001  B499001     0.0315
      4  C7       -17.4610   76.4830  -36.5450 C.2   9001  B499001     0.0154
      5  C13      -15.7520   71.3360  -36.5950 C.2   9001  B499001     0.0144
      6  C15      -17.9580   77.8080  -36.5030 C.2   9001  B499001     0.1367
      7  C17      -16.2070   76.2720  -37.1310 C.3   9001  B499001     0.1118
      8  C20      -15.3940   75.0750  -37.3600 C.2   9001  B499001     0.0855
      9  C21      -14.1310   75.5470  -38.0500 C.1   9001  B499001     0.2010
     10  C22      -14.9040   68.8820  -36.6820 C.2   9001  B499001     0.2861
     11  C3       -17.0050   71.1090  -35.8030 C.3   9001  B499001     0.0339
     12  C12      -15.8450   73.8610  -36.9720 C.2   9001  B499001     0.0407
     13  C14      -13.8060   70.9660  -37.7090 C.2   9001  B499001     0.1136
     14  C16      -15.4740   77.3620  -37.6560 C.2   9001  B499001     0.1306
     15  C18      -15.2880   72.5530  -37.0820 C.2   9001  B499001     0.1277
     16  C19      -14.8080   70.3190  -36.9890 C.2   9001  B499001     0.0805
     17  N23      -14.1260   72.3020  -37.7440 N.2   9001  B499001    -0.4064
     18  N24      -14.2720   76.9180  -38.1800 N.2   9001  B499001    -0.3369
     19  N25      -15.2650   68.5790  -35.3700 N.am  9001  B499001    -0.0836
     20  O27      -13.1940   74.8890  -38.4210 O.2   9001  B499001    -0.2096
     21  O28      -14.6630   68.0270  -37.5350 O.2   9001  B499001    -0.2666
     22  F29      -19.1470   78.0170  -35.9440 F     9001  B499001    -0.2045
@<TRIPOS>BOND
     1    20     9    2
     2     1    13    1
     3    18     9    2
     4    18    14    2
     5     9     8    1
     6    17    13    2
     7    17    15    2
     8    13    16    1
     9    14     3    1
    10    14     7    1
    11     3     2    2
    12    21    10    2
    13     8     7    1
    14     8    12    2
    15     7     4    1
    16    15    12    1
    17    15     5    1
    18     2     6    1
    19    16    10    1
    20    16     5    2
    21    10    19   am
    22     5    11    1
    23     4     6    2
    24     6    22    1
