@<TRIPOS>MOLECULE
3g0g_RUM_A_1.pdb
 24 26 0 0 0
SMALL
GASTEIGER

@<TRIPOS>ATOM
      1  N17       40.8130    0.4950   16.4140 N.1   800  RUM800     -0.1908
      2  C16       40.4010    1.2910   15.6730 C.1   800  RUM800      0.1002
      3  C15       39.9170    2.1800   14.8700 C.ar  800  RUM800      0.0663
      4  C14       38.5340    2.3950   14.8540 C.ar  800  RUM800      0.0100
      5  C13       37.9740    3.3670   14.0090 C.ar  800  RUM800      0.0007
      6  C12       38.7730    4.1230   13.1510 C.ar  800  RUM800     -0.0002
      7  C11       40.1580    3.9300   13.1180 C.ar  800  RUM800     -0.0017
      8  C10       40.7780    2.9860   13.9430 C.ar  800  RUM800      0.0102
      9  C9        42.2850    2.8530   13.8750 C.3   800  RUM800      0.1391
     10  N2        42.7440    1.4640   13.7100 N.ar  800  RUM800     -0.2640
     11  C3        43.6600    0.8340   14.6250 C.ar  800  RUM800      0.2037
     12  N4        44.0640   -0.4440   14.4070 N.ar  800  RUM800     -0.2128
     13  C5        43.6390   -1.1970   13.3730 C.ar  800  RUM800      0.1132
     14  C6        42.7360   -0.6770   12.4460 C.ar  800  RUM800      0.1098
     15 BR7        42.0940   -1.6440   10.9430 Br    800  RUM800     -0.0424
     16  C1        42.2650    0.7120   12.6090 C.ar  800  RUM800      0.2708
     17  O8        41.4640    1.1520   11.7540 O.2   800  RUM800     -0.2663
     18  N18       44.2560    1.5000   15.7160 N.pl3 800  RUM800     -0.2780
     19  C23       44.2280    0.9590   17.0860 C.3   800  RUM800      0.1125
     20  C22       44.4610    2.0740   18.1230 C.3   800  RUM800      0.1116
     21  N24       43.2740    2.8910   18.2360 N.3   800  RUM800     -0.1311
     22  C21       45.6340    2.9730   17.7330 C.3   800  RUM800      0.0225
     23  C20       45.2490    3.6920   16.4490 C.3   800  RUM800      0.0231
     24  C19       45.0000    2.7070   15.3120 C.3   800  RUM800      0.0937
@<TRIPOS>BOND
     1    15    14    1
     2    17    16    2
     3    14    16   ar
     4    14    13   ar
     5    16    10   ar
     6     7     6   ar
     7     7     8   ar
     8     6     5   ar
     9    13    12   ar
    10    10     9    1
    11    10    11   ar
    12     9     8    1
    13     8     3   ar
    14     5     4   ar
    15    12    11   ar
    16    11    18    1
    17     4     3   ar
    18     3     2    1
    19    24    18    1
    20    24    23    1
    21     2     1    3
    22    18    19    1
    23    23    22    1
    24    19    20    1
    25    22    20    1
    26    20    21    1
