@<TRIPOS>MOLECULE
3g0g_NAG_A_1.pdb
 14 14 0 0 0
SMALL
GASTEIGER

@<TRIPOS>ATOM
      1  C1        69.0140    7.2270   43.0250 C.3   803  NAG803      0.1665
      2  C2        69.9780    6.7450   44.1220 C.3   803  NAG803      0.1576
      3  C3        70.2380    7.7340   45.2760 C.3   803  NAG803      0.2069
      4  C4        70.0380    9.2180   44.9440 C.3   803  NAG803      0.2134
      5  C5        68.8790    9.4050   43.9560 C.3   803  NAG803      0.1809
      6  C6        68.6520   10.8680   43.5640 C.3   803  NAG803      0.2141
      7  C7        70.2280    4.3940   44.8100 C.2   803  NAG803      0.2420
      8  C8        69.9330    3.5340   46.0100 C.3   803  NAG803      0.0964
      9  N2        69.4760    5.4930   44.6760 N.am  803  NAG803     -0.2019
     10  O3        71.5690    7.5510   45.7090 O.3   803  NAG803     -0.2184
     11  O4        69.8260    9.9570   46.1350 O.3   803  NAG803     -0.2176
     12  O5        69.1280    8.6230   42.8000 O.3   803  NAG803     -0.3489
     13  O6        69.7810   11.3860   42.8950 O.3   803  NAG803     -0.2176
     14  O7        71.1180    4.0750   44.0100 O.2   803  NAG803     -0.2733
@<TRIPOS>BOND
     1    12     1    1
     2    12     5    1
     3    13     6    1
     4     1     2    1
     5     6     5    1
     6     5     4    1
     7    14     7    2
     8     2     9    1
     9     2     3    1
    10     9     7   am
    11     7     8    1
    12     4     3    1
    13     4    11    1
    14     3    10    1
