@<TRIPOS>MOLECULE
3g0h_ANP_A_1.pdb
 31 33 0 0 0
SMALL
GASTEIGER

@<TRIPOS>ATOM
      1  PG         3.8440  -10.9280  -23.2880 P.3     1  ANP1        0.4884
      2  O1G        3.7520   -9.7310  -22.3750 O.3     1  ANP1       -0.1240
      3  O2G        5.1150  -11.7440  -23.1510 O.3     1  ANP1       -0.1240
      4  O3G        3.4150  -10.7060  -24.7060 O.2     1  ANP1       -0.2331
      5  PB         1.5270  -11.6490  -21.4730 P.3     1  ANP1        0.4669
      6  O1B        0.6650  -12.8600  -21.2860 O.2     1  ANP1       -0.2351
      7  O2B        2.3210  -11.1540  -20.3050 O.3     1  ANP1       -0.1253
      8  N3B        2.6660  -12.0610  -22.7070 N.3     1  ANP1       -0.0163
      9  PA        -0.9470  -10.2960  -21.5510 P.3     1  ANP1        0.2220
     10  O1A       -1.1290  -10.9810  -20.2200 O.3     1  ANP1       -0.4370
     11  O2A       -1.3230   -8.8470  -21.7360 O.2     1  ANP1       -0.5170
     12  O3A        0.6020  -10.4440  -21.9830 O.3     1  ANP1       -0.2360
     13  O5'       -1.7190  -11.0700  -22.7220 O.3     1  ANP1       -0.3111
     14  C5'       -2.8560  -11.8670  -22.4410 C.3     1  ANP1        0.1813
     15  C4'       -4.0810  -11.3480  -23.1650 C.3     1  ANP1        0.1821
     16  O4'       -5.1080  -12.2990  -22.9210 O.3     1  ANP1       -0.3135
     17  C3'       -4.5900  -10.0430  -22.5820 C.3     1  ANP1        0.2184
     18  O3'       -5.3130   -9.3050  -23.5730 O.3     1  ANP1       -0.2174
     19  C2'       -5.5060  -10.4620  -21.4520 C.3     1  ANP1        0.2570
     20  O2'       -6.6090   -9.5660  -21.2580 O.3     1  ANP1       -0.2130
     21  C1'       -6.0040  -11.8280  -21.8940 C.3     1  ANP1        0.3186
     22  N9        -6.1320  -12.8180  -20.7820 N.pl3   1  ANP1       -0.1439
     23  C8        -5.3340  -12.9970  -19.7050 C.3     1  ANP1        0.3377
     24  N7        -5.7960  -14.0110  -18.9170 N.2     1  ANP1       -0.2095
     25  C5        -6.9080  -14.4860  -19.4970 C.2     1  ANP1        0.2526
     26  C6        -7.8900  -15.5470  -19.2100 C.2     1  ANP1        0.4393
     27  N6        -7.7640  -16.3210  -18.1030 N.pl3   1  ANP1        0.2180
     28  N1        -8.9120  -15.7140  -20.0920 N.2     1  ANP1        0.0021
     29  C2        -9.0630  -14.9500  -21.1900 C.3     1  ANP1        0.5254
     30  N3        -8.2040  -13.9730  -21.5090 N.2     1  ANP1       -0.0055
     31  C4        -7.1300  -13.7020  -20.7200 C.2     1  ANP1        0.3518
@<TRIPOS>BOND
     1     4     1    2
     2    18    17    1
     3     1     3    1
     4     1     8    1
     5     1     2    1
     6    15    16    1
     7    15    17    1
     8    15    14    1
     9    16    21    1
    10    13    14    1
    11    13     9    1
    12     8     5    1
    13    17    19    1
    14    12     9    1
    15    12     5    1
    16    21    19    1
    17    21    22    1
    18    11     9    2
    19     9    10    1
    20    30    29    1
    21    30    31    2
    22     5     6    2
    23     5     7    1
    24    19    20    1
    25    29    28    1
    26    22    31    1
    27    22    23    1
    28    31    25    1
    29    28    26    2
    30    23    24    1
    31    25    26    1
    32    25    24    2
    33    26    27    1
