@<TRIPOS>MOLECULE
3g0i_VPR_A_1.pdb
 10 9 0 0 0
SMALL
GASTEIGER

@<TRIPOS>ATOM
      1  C5        26.5640   37.9770   58.6540 C.3     1  VPR1        0.0000
      2  C4        26.1170   37.6150   60.0440 C.3     1  VPR1        0.0005
      3  C3        24.5980   37.6380   60.0160 C.3     1  VPR1        0.0092
      4  C2        23.9640   36.6500   60.9940 C.3     1  VPR1        0.0799
      5  C3A       22.4400   36.7340   60.9810 C.3     1  VPR1        0.0092
      6  C4A       21.9430   38.1590   61.2060 C.3     1  VPR1        0.0005
      7  C5A       20.9180   38.4800   60.1480 C.3     1  VPR1        0.0000
      8  C1        24.4050   35.2400   60.7170 C.2     1  VPR1        0.2603
      9  N         24.1070   34.6720   59.6360 N.am    1  VPR1       -0.0878
     10  O         25.1160   34.6170   61.6350 O.2     1  VPR1       -0.2717
@<TRIPOS>BOND
     1     1     2    1
     2     9     8   am
     3     3     2    1
     4     3     4    1
     5     7     6    1
     6     8     4    1
     7     8    10    2
     8     5     4    1
     9     5     6    1
