@<TRIPOS>MOLECULE
3g0u_FMN_A_1.pdb
 31 33 0 0 0
SMALL
GASTEIGER

@<TRIPOS>ATOM
      1  N1        34.9080   24.3270   -8.6580 N.2   398  FMN398     -0.2887
      2  C2        35.7180   24.2920   -9.7510 C.1   398  FMN398      0.3669
      3  O2        35.3210   24.7200  -10.8030 O.2   398  FMN398     -0.1744
      4  N3        36.9890   23.7270   -9.6730 N.2   398  FMN398     -0.2300
      5  C4        37.4950   23.2250   -8.5380 C.1   398  FMN398      0.2513
      6  O4        38.6100   22.6860   -8.5580 O.2   398  FMN398     -0.2057
      7  C4A       36.7220   23.3040   -7.3800 C.2   398  FMN398      0.2706
      8  N5        37.2190   22.8180   -6.2020 N.2   398  FMN398     -0.3841
      9  C5A       36.4110   22.7770   -5.0500 C.2   398  FMN398      0.1452
     10  C6        36.8990   22.2170   -3.8350 C.2   398  FMN398      0.0252
     11  C7        36.0450   22.1630   -2.7500 C.2   398  FMN398     -0.0375
     12  C7M       36.4090   21.4520   -1.4090 C.3   398  FMN398      0.0268
     13  C8        34.7160   22.6310   -2.8690 C.3   398  FMN398      0.0417
     14  C8M       33.7300   22.4010   -1.7060 C.3   398  FMN398      0.0091
     15  C9        34.2270   23.1930   -4.0570 C.2   398  FMN398     -0.0049
     16  C9A       35.0770   23.2330   -5.1680 C.2   398  FMN398      0.0795
     17  N10       34.5910   23.8000   -6.3720 N.pl3 398  FMN398     -0.2545
     18  C10       35.3860   23.8010   -7.4710 C.2   398  FMN398      0.2449
     19  C1'       33.2480   24.4620   -6.3830 C.3   398  FMN398      0.1336
     20  C2'       32.1110   23.4040   -6.5630 C.3   398  FMN398      0.2048
     21  O2'       32.3820   22.8330   -7.8550 O.3   398  FMN398     -0.2185
     22  C3'       30.7480   24.1480   -6.6430 C.3   398  FMN398      0.2165
     23  O3'       30.8130   25.1570   -7.7260 O.3   398  FMN398     -0.2175
     24  C4'       30.5070   24.8780   -5.3040 C.3   398  FMN398      0.2147
     25  O4'       31.0870   24.1120   -4.2150 O.3   398  FMN398     -0.2176
     26  C5'       29.0060   25.0270   -5.0000 C.3   398  FMN398      0.1892
     27  O5'       28.4080   23.7200   -4.9750 O.3   398  FMN398     -0.2674
     28  P         28.0550   22.9810   -3.5640 P.3   398  FMN398      0.5327
     29  O1P       29.3250   22.4190   -2.9670 O.3   398  FMN398     -0.1145
     30  O2P       27.1230   21.8680   -3.8440 O.2   398  FMN398     -0.2224
     31  O3P       27.4140   23.9670   -2.6600 O.3   398  FMN398     -0.1145
@<TRIPOS>BOND
     1     3     2    2
     2     2     4    2
     3     2     1    2
     4     4     5    2
     5     1    18    2
     6     6     5    2
     7     5     7    1
     8    21    20    1
     9    23    22    1
    10    18     7    1
    11    18    17    1
    12     7     8    2
    13    22    20    1
    14    22    24    1
    15    20    19    1
    16    19    17    1
    17    17    16    1
    18     8     9    2
    19    24    26    1
    20    24    25    1
    21    16     9    1
    22    16    15    2
    23     9    10    1
    24    26    27    1
    25    27    28    1
    26    15    13    1
    27    30    28    2
    28    10    11    2
    29    28    29    1
    30    28    31    1
    31    13    11    1
    32    13    14    1
    33    11    12    1
