@<TRIPOS>MOLECULE
3g0u_MDY_A_1.pdb
 24 25 0 0 0
SMALL
GASTEIGER

@<TRIPOS>ATOM
      1  CAA       32.6350    8.0230   -0.9190 C.3     2  MDY2        0.2525
      2  OAP       32.3050    9.0300    0.0920 O.3     2  MDY2       -0.4714
      3  CAW       31.7860    8.5960    1.2590 C.ar    2  MDY2        0.1386
      4  CAJ       31.2730    7.2850    1.3330 C.ar    2  MDY2        0.0369
      5  CAH       30.7450    6.8760    2.5340 C.ar    2  MDY2        0.0031
      6  CAI       30.7080    7.7340    3.6370 C.ar    2  MDY2        0.0002
      7  CAK       31.2520    9.0230    3.5500 C.ar    2  MDY2        0.0030
      8  CAX       31.7960    9.4860    2.3480 C.ar    2  MDY2        0.0340
      9  CAU       32.3670   10.8110    2.2190 C.ar    2  MDY2        0.0038
     10  CAN       32.1010   11.6520    1.1020 C.ar    2  MDY2        0.0128
     11  CAT       32.7280   12.8720    1.0950 C.ar    2  MDY2        0.0730
     12 CLAF       32.4800   13.8990   -0.2920 Cl      2  MDY2       -0.0809
     13  CAL       33.1870   11.2890    3.2730 C.ar    2  MDY2        0.0015
     14  CAM       33.8160   12.5380    3.2620 C.ar    2  MDY2        0.0175
     15  CAV       33.5930   13.3480    2.1270 C.ar    2  MDY2        0.0842
     16  NAO       34.1790   14.5790    1.9930 N.am    2  MDY2       -0.1739
     17  CAR       34.3170   15.3980    3.0180 C.2     2  MDY2        0.2815
     18  OAD       33.9350   15.1170    4.1460 O.2     2  MDY2       -0.2672
     19  CAS       34.8370   16.7580    2.7860 C.2     2  MDY2        0.1581
     20  CAG       34.8870   17.6530    3.9010 C.1     2  MDY2        0.1080
     21  NAC       34.9570   18.4410    4.7560 N.1     2  MDY2       -0.1906
     22  CAQ       35.2270   17.2060    1.3850 C.2     2  MDY2        0.1876
     23  CAB       35.8380   18.5640    1.1340 C.3     2  MDY2        0.0782
     24  OAE       35.1430   16.3820    0.3380 O.2     2  MDY2       -0.2905
@<TRIPOS>BOND
     1     1     2    1
     2    12    11    1
     3     2     3    1
     4    24    22    1
     5    11    10   ar
     6    11    15   ar
     7    10     9   ar
     8    23    22    1
     9     3     4   ar
    10     3     8   ar
    11     4     5   ar
    12    22    19    2
    13    16    15    1
    14    16    17   am
    15    15    14   ar
    16     9     8    1
    17     9    13   ar
    18     8     7   ar
    19     5     6   ar
    20    19    17    1
    21    19    20    1
    22    17    18    2
    23    14    13   ar
    24     7     6   ar
    25    20    21    3
