@<TRIPOS>MOLECULE
3g0w_LGB_A_1.pdb
 24 26 0 0 0
SMALL
GASTEIGER

@<TRIPOS>ATOM
      1  C1        55.1480   -1.1510    3.5980 C.3     1  LGB1        0.0979
      2  N2        55.7450   -0.1600    4.5290 N.pl3   1  LGB1       -0.2591
      3  C3        57.2010   -0.2970    4.4980 C.3     1  LGB1        0.1558
      4  C4        57.5270   -1.0260    3.1770 C.3     1  LGB1        0.1756
      5  C5        56.2840   -1.9610    2.9720 C.3     1  LGB1        0.0563
      6  C6        55.5680    1.2330    4.3680 C.2     1  LGB1        0.2879
      7  O7        56.6750    1.9120    4.6940 O.2     1  LGB1       -0.4426
      8  C8        57.7870    1.0940    4.7280 C.3     1  LGB1        0.2831
      9  N9        54.4330    1.8000    3.9440 N.2     1  LGB1       -0.1983
     10  C10       54.1190    3.1190    3.9100 C.ar    1  LGB1        0.0826
     11  C11       52.7650    3.4810    4.0750 C.ar    1  LGB1        0.0072
     12  C12       52.4540    4.8370    4.0380 C.ar    1  LGB1        0.0647
     13  C13       53.4380    5.8270    3.8440 C.ar    1  LGB1        0.0788
     14  C14       54.7610    5.4800    3.6840 C.ar    1  LGB1        0.0127
     15  C15       55.1000    4.1260    3.7180 C.ar    1  LGB1        0.0197
     16  C16       51.7030    2.4280    4.2830 C.3     1  LGB1        0.0335
     17 CL17       50.8370    5.3070    4.2320 Cl      1  LGB1       -0.0818
     18  O18       58.7040   -1.7810    3.2710 O.3     1  LGB1       -0.2212
     19  C19       53.1470    7.2040    3.8050 C.1     1  LGB1        0.1013
     20  N20       52.7850    8.2870    3.7920 N.1     1  LGB1       -0.1908
     21  C21       58.3190    1.2380    6.1410 C.3     1  LGB1        0.4359
     22  F22       59.3640    0.4310    6.2720 F       1  LGB1       -0.1663
     23  F23       57.4070    0.9410    7.0770 F       1  LGB1       -0.1663
     24  F24       58.6840    2.4840    6.3220 F       1  LGB1       -0.1663
@<TRIPOS>BOND
     1     5     4    1
     2     5     1    1
     3     4    18    1
     4     4     3    1
     5     1     2    1
     6    14    15   ar
     7    14    13   ar
     8    15    10   ar
     9    20    19    3
    10    19    13    1
    11    13    12   ar
    12    10     9    1
    13    10    11   ar
    14     9     6    2
    15    12    11   ar
    16    12    17    1
    17    11    16    1
    18     6     2    1
    19     6     7    1
    20     3     2    1
    21     3     8    1
    22     7     8    1
    23     8    21    1
    24    21    22    1
    25    21    24    1
    26    21    23    1
