@<TRIPOS>MOLECULE
3g0x_FMN_A_1.pdb
 31 33 0 0 0
SMALL
GASTEIGER

@<TRIPOS>ATOM
      1  N1        -3.6420  -42.5920    8.8430 N.2   398  FMN398     -0.2890
      2  C2        -3.1760  -43.2640    9.9540 C.1   398  FMN398      0.3669
      3  O2        -3.7640  -43.1240   10.9940 O.2   398  FMN398     -0.1744
      4  N3        -2.0330  -44.0680    9.9010 N.2   398  FMN398     -0.2300
      5  C4        -1.3460  -44.2700    8.7390 C.1   398  FMN398      0.2513
      6  O4        -0.3600  -45.0570    8.8040 O.2   398  FMN398     -0.2057
      7  C4A       -1.7820  -43.6060    7.5690 C.2   398  FMN398      0.2700
      8  N5        -1.1500  -43.8010    6.3350 N.2   398  FMN398     -0.3878
      9  C5A       -1.5570  -43.0910    5.2100 C.2   398  FMN398      0.1320
     10  C6        -0.8640  -43.2500    3.9950 C.2   398  FMN398      0.0250
     11  C7        -1.2170  -42.5070    2.8730 C.2   398  FMN398     -0.0238
     12  C7M       -0.3520  -42.4470    1.6030 C.3   398  FMN398      0.0308
     13  C8        -2.3140  -41.6130    2.9980 C.2   398  FMN398     -0.0280
     14  C8M       -2.6760  -40.6890    1.8430 C.3   398  FMN398      0.0304
     15  C9        -3.0260  -41.5040    4.1770 C.2   398  FMN398     -0.0041
     16  C9A       -2.6360  -42.2240    5.3090 C.3   398  FMN398      0.1497
     17  N10       -3.3620  -42.0740    6.5370 N.pl3 398  FMN398     -0.2691
     18  C10       -2.9490  -42.7650    7.6580 C.2   398  FMN398      0.2416
     19  C1'       -4.5750  -41.2730    6.6020 C.3   398  FMN398      0.1294
     20  C2'       -4.2420  -39.7780    6.8150 C.3   398  FMN398      0.2044
     21  O2'       -3.5970  -39.6330    8.0990 O.3   398  FMN398     -0.2185
     22  C3'       -5.5270  -38.9030    6.7680 C.3   398  FMN398      0.2164
     23  O3'       -6.4220  -39.4010    7.8290 O.3   398  FMN398     -0.2175
     24  C4'       -6.2770  -39.0950    5.3800 C.3   398  FMN398      0.2147
     25  O4'       -5.3500  -39.2630    4.3410 O.3   398  FMN398     -0.2176
     26  C5'       -7.2110  -37.8990    5.1580 C.3   398  FMN398      0.1892
     27  O5'       -6.4210  -36.6420    5.0830 O.3   398  FMN398     -0.2674
     28  P         -5.9280  -35.9890    3.6560 P.3   398  FMN398      0.5327
     29  O1P       -4.8440  -36.8300    3.0660 O.3   398  FMN398     -0.1145
     30  O2P       -5.4580  -34.5850    3.9950 O.3   398  FMN398     -0.1145
     31  O3P       -7.1480  -36.0150    2.7790 O.2   398  FMN398     -0.2224
@<TRIPOS>BOND
     1    12    11    1
     2    14    13    1
     3    31    28    2
     4    11    13    1
     5    11    10    2
     6    13    15    2
     7    29    28    1
     8    28    30    1
     9    28    27    1
    10    10     9    1
    11    15    16    1
    12    25    24    1
    13    27    26    1
    14    26    24    1
    15     9    16    1
    16     9     8    2
    17    16    17    1
    18    24    22    1
    19     8     7    2
    20    17    19    1
    21    17    18    1
    22    19    20    1
    23    22    20    1
    24    22    23    1
    25    20    21    1
    26     7    18    1
    27     7     5    1
    28    18     1    2
    29     5     6    2
    30     5     4    2
    31     1     2    2
    32     4     2    2
    33     2     3    2
