@<TRIPOS>MOLECULE
3g0x_MD7_A_1.pdb
 23 25 0 0 0
SMALL
GASTEIGER

@<TRIPOS>ATOM
      1  CAN        2.5830  -41.5180   -1.0030 C.3     2  MD72        0.0081
      2  CAO        1.6290  -40.7510   -1.9810 C.3     2  MD72        0.0081
      3  CAW        2.2670  -40.0040   -0.8300 C.3     2  MD72        0.0628
      4  CAS        3.1990  -38.8140   -1.3090 C.2     2  MD72        0.1867
      5  OAC        3.8340  -38.1160   -0.2990 O.2     2  MD72       -0.2905
      6  CAR        3.4540  -38.2680   -2.7880 C.2     2  MD72        0.1581
      7  CAD        2.9620  -38.7750   -4.0380 C.1     2  MD72        0.1080
      8  NAA        2.6420  -39.0340   -5.1130 N.1     2  MD72       -0.1906
      9  CAQ        4.3560  -36.9890   -2.9570 C.2     2  MD72        0.2815
     10  OAB        4.5520  -36.4700   -4.0690 O.2     2  MD72       -0.2672
     11  NAP        4.7430  -36.4430   -1.8120 N.am    2  MD72       -0.1748
     12  CAT        5.5270  -35.3730   -1.6640 C.ar    2  MD72        0.0737
     13  CAK        6.4690  -35.0600   -2.6560 C.ar    2  MD72        0.0166
     14  CAM        7.3130  -33.9650   -2.4030 C.ar    2  MD72        0.0013
     15  CAJ        5.4380  -34.5850   -0.4800 C.ar    2  MD72        0.0166
     16  CAL        6.2790  -33.4850   -0.2230 C.ar    2  MD72        0.0013
     17  CAV        7.1870  -33.1570   -1.2420 C.ar    2  MD72        0.0001
     18  CAU        8.1720  -32.1970   -1.0690 C.ar    2  MD72        0.0000
     19  CAH        8.7690  -32.2600    0.1970 C.ar    2  MD72        0.0000
     20  CAF        9.8390  -31.4360    0.5120 C.ar    2  MD72        0.0000
     21  CAE       10.3650  -30.5770   -0.4650 C.ar    2  MD72        0.0000
     22  CAG        9.8100  -30.5540   -1.7590 C.ar    2  MD72        0.0000
     23  CAI        8.7300  -31.3970   -2.0870 C.ar    2  MD72        0.0000
@<TRIPOS>BOND
     1     8     7    3
     2    10     9    2
     3     7     6    1
     4     9     6    1
     5     9    11   am
     6     6     4    2
     7    13    14   ar
     8    13    12   ar
     9    14    17   ar
    10    23    22   ar
    11    23    18   ar
    12     2     1    1
    13     2     3    1
    14    11    12    1
    15    22    21   ar
    16    12    15   ar
    17     4     3    1
    18     4     5    1
    19    17    18    1
    20    17    16   ar
    21    18    19   ar
    22     1     3    1
    23    15    16   ar
    24    21    20   ar
    25    19    20   ar
