@<TRIPOS>MOLECULE
3g0y_P9A_A_1.pdb
 32 36 0 0 0
SMALL
GASTEIGER

@<TRIPOS>ATOM
      1  O16      -25.3850   30.3450    5.3420 O.3   413  P9A413     -0.3610
      2  O19      -23.1250   33.4700    0.7190 O.2   413  P9A413     -0.2961
      3  O20      -23.6970   36.5430    3.8610 O.2   413  P9A413     -0.2730
      4  O30      -26.4230   37.0760    7.1560 O.3   413  P9A413     -0.2851
      5  O31      -21.8290   36.1680    6.3160 O.3   413  P9A413     -0.2848
      6  O32      -20.1100   37.6940    7.6670 O.co2 413  P9A413     -0.2404
      7  O33      -21.0000   39.4760    8.7290 O.co2 413  P9A413     -0.2404
      8  N28      -24.3220   35.4960    5.8110 N.am  413  P9A413     -0.1727
      9  C1       -24.1170   35.5070    4.4580 C.2   413  P9A413      0.2458
     10  C2       -24.4140   34.2240    3.7020 C.3   413  P9A413      0.0876
     11  C3       -23.1530   33.3820    3.8510 C.3   413  P9A413      0.0166
     12  C4       -22.9990   32.1790    2.8980 C.3   413  P9A413      0.0542
     13  C5       -23.2410   32.4070    1.3400 C.2   413  P9A413      0.1499
     14  C6       -23.6440   31.2190    0.5720 C.3   413  P9A413      0.0645
     15  C7       -24.9160   30.6240    1.1520 C.3   413  P9A413      0.0079
     16  C8       -24.6950   30.1600    2.5450 C.3   413  P9A413      0.0054
     17  C9       -24.1890   31.3220    3.4380 C.3   413  P9A413      0.0338
     18  C10      -24.0750   30.8150    4.8880 C.3   413  P9A413      0.1154
     19  C11      -23.2270   29.5400    4.9920 C.3   413  P9A413      0.0319
     20  C12      -24.1550   28.5790    4.2480 C.3   413  P9A413      0.0274
     21  C13      -23.8330   28.8440    2.7580 C.3   413  P9A413      0.0026
     22  C14      -26.0470   29.7530    3.1750 C.3   413  P9A413      0.0273
     23  C15      -25.6020   29.1600    4.5300 C.3   413  P9A413      0.0927
     24  C17      -26.6110   28.2420    5.2430 C.3   413  P9A413      0.0296
     25  C18      -21.5280   31.5760    2.9960 C.3   413  P9A413      0.0074
     26  C21      -21.0500   38.3840    8.0810 C.2   413  P9A413      0.3909
     27  C22      -22.4780   38.0080    7.8270 C.ar  413  P9A413      0.1201
     28  C23      -22.7540   36.9390    6.9670 C.ar  413  P9A413      0.2203
     29  C24      -24.0980   36.6190    6.7330 C.ar  413  P9A413      0.1511
     30  C25      -25.1040   37.3610    7.3570 C.ar  413  P9A413      0.2140
     31  C26      -24.8070   38.4260    8.2180 C.ar  413  P9A413      0.0438
     32  C27      -23.5260   38.7410    8.4520 C.ar  413  P9A413      0.0132
@<TRIPOS>BOND
     1    14    15    1
     2    14    13    1
     3     2    13    2
     4    15    16    1
     5    13    12    1
     6    16    21    1
     7    16    22    1
     8    16    17    1
     9    21    20    1
    10    12    25    1
    11    12    17    1
    12    12    11    1
    13    22    23    1
    14    17    18    1
    15    10    11    1
    16    10     9    1
    17     3     9    2
    18    20    23    1
    19    20    19    1
    20     9     8   am
    21    23    24    1
    22    23     1    1
    23    18    19    1
    24    18     1    1
    25     8    29    1
    26     5    28    1
    27    29    28   ar
    28    29    30   ar
    29    28    27   ar
    30     4    30    1
    31    30    31   ar
    32     6    26   ar
    33    27    26    1
    34    27    32   ar
    35    26     7   ar
    36    31    32   ar
