@<TRIPOS>MOLECULE
3g11_P9C_A_1.pdb
 38 43 0 0 0
SMALL
GASTEIGER

@<TRIPOS>ATOM
      1  O16       62.7990   37.4710   43.7220 O.3   413  P9C413     -0.3610
      2  O19       59.0270   36.7280   48.2770 O.2   413  P9C413     -0.2961
      3  O20       56.5480   38.7060   45.0310 O.2   413  P9C413     -0.2730
      4  O30       57.7000   41.4350   41.8620 O.3   413  P9C413     -0.2851
      5  O31       55.9800   37.0530   42.6090 O.3   413  P9C413     -0.2848
      6  O32       53.7920   36.3060   41.3510 O.co2 413  P9C413     -0.2404
      7  O33       52.7080   37.7870   40.0380 O.co2 413  P9C413     -0.2404
      8  N28       57.8700   38.9170   43.1510 N.am  413  P9C413     -0.1727
      9  C1        57.7010   38.6580   44.4670 C.2   413  P9C413      0.2458
     10  C2        58.9020   38.3010   45.3290 C.3   413  P9C413      0.0876
     11  C3        58.9420   36.7930   45.3160 C.3   413  P9C413      0.0166
     12  C4        60.1280   36.1770   46.1680 C.3   413  P9C413      0.0543
     13  C5        60.0730   36.5950   47.6810 C.2   413  P9C413      0.1503
     14  C6        61.3430   36.8420   48.4240 C.3   413  P9C413      0.0688
     15  C7        62.5040   35.9830   47.9060 C.3   413  P9C413      0.0298
     16  C8        62.7520   36.1400   46.3850 C.3   413  P9C413      0.0091
     17  C9        61.4630   36.7380   45.6140 C.3   413  P9C413      0.0341
     18  C10       61.7030   36.5690   44.0630 C.3   413  P9C413      0.1154
     19  C11       62.2010   35.2010   43.5870 C.3   413  P9C413      0.0319
     20  C12       63.6180   35.2180   44.2590 C.3   413  P9C413      0.0274
     21  C13       63.2650   34.7510   45.7530 C.3   413  P9C413      0.0029
     22  C14       63.8510   37.0930   45.8810 C.3   413  P9C413      0.0276
     23  C15       63.9380   36.7580   44.3380 C.3   413  P9C413      0.0927
     24  C17       65.2550   37.3590   43.6230 C.3   413  P9C413      0.0296
     25  C18       60.0520   34.6220   46.0820 C.3   413  P9C413      0.0074
     26  C21       53.6510   37.4430   40.7990 C.2   413  P9C413      0.3909
     27  C22       54.6830   38.5960   41.0070 C.ar  413  P9C413      0.1201
     28  C23       55.7930   38.2800   41.9340 C.ar  413  P9C413      0.2203
     29  C24       56.7490   39.2750   42.1940 C.ar  413  P9C413      0.1511
     30  C25       56.6800   40.5280   41.5620 C.ar  413  P9C413      0.2140
     31  C26       55.6030   40.8450   40.6410 C.ar  413  P9C413      0.0438
     32  C27       54.6100   39.8660   40.3890 C.ar  413  P9C413      0.0132
     33  C34       64.2980   37.3670   49.1840 C.ar  413  P9C413     -0.0043
     34  C35       64.3390   34.9000   49.2500 C.ar  413  P9C413     -0.0043
     35  C36       65.4790   37.4850   50.0400 C.ar  413  P9C413     -0.0003
     36  C37       66.0470   36.2790   50.4600 C.ar  413  P9C413     -0.0000
     37  C38       65.5150   35.0040   50.0880 C.ar  413  P9C413     -0.0003
     38  C39       63.7640   36.0770   48.8250 C.ar  413  P9C413     -0.0221
@<TRIPOS>BOND
     1     7    26   ar
     2    32    31   ar
     3    32    27   ar
     4    31    30   ar
     5    26    27    1
     6    26     6   ar
     7    27    28   ar
     8    30     4    1
     9    30    29   ar
    10    28    29   ar
    11    28     5    1
    12    29     8    1
    13     8     9   am
    14    19    18    1
    15    19    20    1
    16    24    23    1
    17     1    18    1
    18     1    23    1
    19    18    17    1
    20    20    23    1
    21    20    21    1
    22    23    22    1
    23     9     3    2
    24     9    10    1
    25    11    10    1
    26    11    12    1
    27    17    12    1
    28    17    16    1
    29    21    16    1
    30    22    16    1
    31    25    12    1
    32    12    13    1
    33    16    15    1
    34    13     2    2
    35    13    14    1
    36    15    14    1
    37    15    38    1
    38    38    33   ar
    39    38    34   ar
    40    33    35   ar
    41    34    37   ar
    42    35    36   ar
    43    37    36   ar
