@<TRIPOS>MOLECULE
3g15_HC6_A_1.pdb
 30 33 0 0 0
SMALL
GASTEIGER

@<TRIPOS>ATOM
      1  CAC       -9.9530  -13.1760    5.1130 C.3   603  HC6603     -0.0080
      2  NAA       -9.2730  -12.3060    4.1160 N.4   603  HC6603      0.3924
      3  CBA      -10.2140  -11.6050    3.2020 C.3   603  HC6603     -0.0955
      4  CBB       -8.4700  -11.3780    4.9250 C.3   603  HC6603     -0.0955
      5  CAB       -8.4010  -13.1220    3.2860 C.3   603  HC6603     -0.0403
      6  CAF       -9.2050  -14.1950    2.5720 C.3   603  HC6603      0.1229
      7  OAE       -9.8710  -15.0860    3.5470 O.3   603  HC6603     -0.3327
      8  CAD      -10.7190  -14.3550    4.4630 C.3   603  HC6603      0.2200
      9  OBC      -11.7500  -13.7380    3.6760 O.3   603  HC6603     -0.1927
     10  CAG      -11.2190  -15.2250    5.5500 C.ar  603  HC6603      0.0290
     11  CAL      -10.5250  -16.3780    5.9660 C.ar  603  HC6603      0.0004
     12  CAK      -10.9950  -17.1920    7.0180 C.ar  603  HC6603     -0.0002
     13  CAH      -12.3950  -14.9120    6.2440 C.ar  603  HC6603      0.0004
     14  CAI      -12.8780  -15.7210    7.2900 C.ar  603  HC6603     -0.0002
     15  CAJ      -12.1940  -16.8770    7.6740 C.ar  603  HC6603     -0.0000
     16  CAM      -12.6840  -17.6440    8.7610 C.ar  603  HC6603     -0.0000
     17  CAR      -11.7930  -18.2380    9.6560 C.ar  603  HC6603     -0.0002
     18  CAQ      -12.2180  -18.9580   10.7660 C.ar  603  HC6603      0.0004
     19  CAN      -14.0370  -17.8040    9.0020 C.ar  603  HC6603     -0.0002
     20  CAO      -14.4850  -18.5380   10.1160 C.ar  603  HC6603      0.0004
     21  CAP      -13.5810  -19.1420   11.0190 C.ar  603  HC6603      0.0290
     22  CAS      -14.0320  -19.9140   12.1850 C.3   603  HC6603      0.2200
     23  OBD      -15.2900  -19.4250   12.6820 O.3   603  HC6603     -0.1927
     24  CAX      -14.2420  -21.3800   11.8130 C.3   603  HC6603     -0.0080
     25  OAT      -13.0500  -19.8210   13.2910 O.3   603  HC6603     -0.3327
     26  CAU      -13.4630  -20.6870   14.4060 C.3   603  HC6603      0.1229
     27  CAV      -13.6330  -22.1210   13.9940 C.3   603  HC6603     -0.0403
     28  NAW      -14.6550  -22.2310   12.9450 N.4   603  HC6603      0.3924
     29  CAZ      -15.9740  -21.8390   13.5050 C.3   603  HC6603     -0.0955
     30  CAY      -14.6730  -23.6260   12.4710 C.3   603  HC6603     -0.0955
@<TRIPOS>BOND
     1     6     5    1
     2     6     7    1
     3     3     2    1
     4     5     2    1
     5     7     8    1
     6     9     8    1
     7     2     4    1
     8     2     1    1
     9     8     1    1
    10     8    10    1
    11    10    11   ar
    12    10    13   ar
    13    11    12   ar
    14    13    14   ar
    15    12    15   ar
    16    14    15   ar
    17    15    16    1
    18    16    19   ar
    19    16    17   ar
    20    19    20   ar
    21    17    18   ar
    22    20    21   ar
    23    18    21   ar
    24    21    22    1
    25    24    22    1
    26    24    28    1
    27    22    23    1
    28    22    25    1
    29    30    28    1
    30    28    29    1
    31    28    27    1
    32    25    26    1
    33    27    26    1
