@<TRIPOS>MOLECULE
3g15_ADP_A_1.pdb
 27 29 0 0 0
SMALL
GASTEIGER

@<TRIPOS>ATOM
      1  PB       -12.3090   -8.9380   12.0210 P.3   601  ADP601      0.5373
      2  O1B      -11.1120   -8.1830   11.4510 O.3   601  ADP601     -0.1143
      3  O2B      -13.1330   -9.6440   10.9680 O.2   601  ADP601     -0.2221
      4  O3B      -11.9620   -9.8610   13.1710 O.3   601  ADP601     -0.1143
      5  PA       -14.5540   -7.0180   12.3110 P.3   601  ADP601      0.2231
      6  O1A      -14.5070   -5.5510   12.6550 O.3   601  ADP601     -0.4370
      7  O2A      -14.9770   -7.4060   10.9060 O.2   601  ADP601     -0.5169
      8  O3A      -13.1950   -7.7960   12.7750 O.3   601  ADP601     -0.2261
      9  O5'      -15.6020   -7.6700   13.3540 O.3   601  ADP601     -0.3111
     10  C5'      -15.9690   -9.0470   13.3060 C.3   601  ADP601      0.1813
     11  C4'      -17.4880   -9.1810   13.4330 C.3   601  ADP601      0.1821
     12  O4'      -17.9330   -8.5420   14.6440 O.3   601  ADP601     -0.3135
     13  C3'      -18.2930   -8.5480   12.2930 C.3   601  ADP601      0.2184
     14  O3'      -18.5850   -9.4270   11.1830 O.3   601  ADP601     -0.2174
     15  C2'      -19.5740   -8.1250   12.9660 C.3   601  ADP601      0.2570
     16  O2'      -20.5060   -9.2020   12.9220 O.3   601  ADP601     -0.2130
     17  C1'      -19.1790   -7.8310   14.4170 C.3   601  ADP601      0.3186
     18  N9       -18.9770   -6.3720   14.6430 N.pl3 601  ADP601     -0.1439
     19  C8       -17.8730   -5.6910   14.2760 C.3   601  ADP601      0.3377
     20  N7       -17.9650   -4.3780   14.6010 N.2   601  ADP601     -0.2095
     21  C5       -19.1550   -4.2180   15.1960 C.2   601  ADP601      0.2526
     22  C6       -19.8480   -3.0790   15.7930 C.2   601  ADP601      0.4393
     23  N6       -19.2400   -1.8560   15.7860 N.pl3 601  ADP601      0.2180
     24  N1       -21.0750   -3.3030   16.3260 N.2   601  ADP601      0.0021
     25  C2       -21.6520   -4.5240   16.3140 C.3   601  ADP601      0.5254
     26  N3       -21.0620   -5.6070   15.7860 N.2   601  ADP601     -0.0055
     27  C4       -19.8300   -5.5140   15.2210 C.2   601  ADP601      0.3518
@<TRIPOS>BOND
     1     7     5    2
     2     3     1    2
     3    14    13    1
     4     2     1    1
     5     1     8    1
     6     1     4    1
     7    13    15    1
     8    13    11    1
     9     5     6    1
    10     5     8    1
    11     5     9    1
    12    16    15    1
    13    15    17    1
    14    10     9    1
    15    10    11    1
    16    11    12    1
    17    19    20    1
    18    19    18    1
    19    17    18    1
    20    17    12    1
    21    20    21    2
    22    18    27    1
    23    21    27    1
    24    21    22    1
    25    27    26    2
    26    23    22    1
    27    26    25    1
    28    22    24    2
    29    25    24    1
