@<TRIPOS>MOLECULE
3g19_III_C_1.pdb
 25 24 0 0 0
SMALL
GASTEIGER

@<TRIPOS>ATOM
      1  N         20.8980   -4.1080  -16.3120 N.3     1  LEU1       -0.1231
      2  CA        21.1370   -4.8800  -15.0990 C.3     1  LEU1        0.1693
      3  C         22.1910   -5.9580  -15.3300 C.2     1  LEU1        0.2592
      4  O         22.4510   -6.3480  -16.4670 O.2     1  LEU1       -0.2718
      5  CB        19.8340   -5.5130  -14.6040 C.3     1  LEU1        0.0284
      6  CG        18.6950   -4.5460  -14.2750 C.3     1  LEU1        0.0019
      7  CD1       17.4170   -5.3090  -13.9610 C.3     1  LEU1        0.0001
      8  CD2       19.0770   -3.6320  -13.1190 C.3     1  LEU1        0.0001
      9  N         22.7920   -6.4340  -14.2450 N.am    2  LEU2       -0.1966
     10  CA        23.8200   -7.4660  -14.3220 C.3     2  LEU2        0.1728
     11  C         23.2060   -8.8460  -14.5490 C.2     2  LEU2        0.2617
     12  O         22.1100   -9.1320  -14.0650 O.2     2  LEU2       -0.2715
     13  CB        24.6670   -7.4660  -13.0480 C.3     2  LEU2        0.0311
     14  CG        25.7620   -8.5280  -12.9250 C.3     2  LEU2        0.0022
     15  CD1       26.8070   -8.3570  -14.0170 C.3     2  LEU2        0.0001
     16  CD2       26.4070   -8.4680  -11.5500 C.3     2  LEU2        0.0001
     17  N         23.9280   -9.6890  -15.2830 N.am    3  LEU3       -0.1942
     18  CA        23.4770  -11.0340  -15.6460 C.3     3  LEU3        0.1978
     19  C         22.5720  -11.0130  -16.8750 C.2     3  LEU3        0.3842
     20  O         22.6430  -11.8970  -17.7310 O.co2   3  LEU3       -0.2437
     21  CB        22.7900  -11.7410  -14.4710 C.3     3  LEU3        0.0333
     22  CG        22.2250  -13.1410  -14.7370 C.3     3  LEU3        0.0023
     23  CD1       22.1430  -13.9470  -13.4500 C.3     3  LEU3        0.0001
     24  CD2       20.8630  -13.0750  -15.4210 C.3     3  LEU3        0.0001
     25  OXT       21.7570  -10.1080  -17.0440 O.co2   3  LEU3       -0.2437
@<TRIPOS>BOND
     1    20    19   ar
     2    25    19   ar
     3    19    18    1
     4     4     3    2
     5     1     2    1
     6    18    17    1
     7    18    21    1
     8    24    22    1
     9     3     2    1
    10     3     9   am
    11    17    11   am
    12     2     5    1
    13    22    21    1
    14    22    23    1
    15     5     6    1
    16    11    10    1
    17    11    12    2
    18    10     9    1
    19    10    13    1
    20     6     7    1
    21     6     8    1
    22    15    14    1
    23    13    14    1
    24    14    16    1
