@<TRIPOS>MOLECULE
3g1a_UP6_A_1.pdb
 21 22 0 0 0
SMALL
GASTEIGER

@<TRIPOS>ATOM
      1  N1        18.9270    0.1650    8.8120 N.am  229  UP6229     -0.0968
      2  C2        19.1700   -0.5800    7.6500 C.1   229  UP6229      0.3005
      3  N3        18.2260   -0.4040    6.6570 N.2   229  UP6229     -0.2426
      4  C4        17.1360    0.4690    6.7190 C.1   229  UP6229      0.2380
      5  C5        16.9790    1.2220    7.9300 C.2   229  UP6229      0.2253
      6  N6        17.8060    1.0080    8.9510 N.2   229  UP6229     -0.1496
      7  O2        20.1130   -1.2950    7.5210 O.2   229  UP6229     -0.1905
      8  O4        16.4090    0.5320    5.7630 O.2   229  UP6229     -0.2069
      9  C1'       19.8340    0.1170    9.9350 C.3   229  UP6229      0.2577
     10  C2'       20.1400   -1.2320   10.5880 C.3   229  UP6229      0.2334
     11  C3'       21.5460   -1.0240   11.1120 C.3   229  UP6229      0.2159
     12  C4'       22.1730   -0.0950   10.0670 C.3   229  UP6229      0.1801
     13  O2'       19.2070   -1.5230   11.6390 O.3   229  UP6229     -0.2157
     14  O3'       21.5250   -0.3700   12.3760 O.3   229  UP6229     -0.2175
     15  O4'       21.0840    0.6860    9.5390 O.3   229  UP6229     -0.3309
     16  C5'       22.8880   -0.7490    8.8910 C.3   229  UP6229      0.1859
     17  O5'       24.0410   -1.3820    9.4310 O.3   229  UP6229     -0.2675
     18  P         25.0170   -2.3100    8.5270 P.3   229  UP6229      0.5327
     19  O1P       24.2190   -3.1080    7.5240 O.2   229  UP6229     -0.2224
     20  O2P       25.7120   -3.1330    9.5690 O.3   229  UP6229     -0.1145
     21  O3P       26.0590   -1.3350    7.8410 O.3   229  UP6229     -0.1145
@<TRIPOS>BOND
     1     8     4    2
     2     3     4    2
     3     3     2    2
     4     4     5    1
     5     7     2    2
     6    19    18    2
     7     2     1   am
     8    21    18    1
     9     5     6    2
    10    18    17    1
    11    18    20    1
    12     1     6    1
    13     1     9    1
    14    16    17    1
    15    16    12    1
    16    15     9    1
    17    15    12    1
    18     9    10    1
    19    12    11    1
    20    10    11    1
    21    10    13    1
    22    11    14    1
