@<TRIPOS>MOLECULE
3g1b_III_C_1.pdb
 40 41 0 0 0
SMALL
GASTEIGER

@<TRIPOS>ATOM
      1  N         17.6500  -17.1530   27.5440 N.4     1  TRP1        0.3859
      2  CA        18.1430  -16.6280   28.8310 C.3     1  TRP1       -0.0010
      3  C         19.5300  -17.1830   29.0660 C.2     1  TRP1        0.1995
      4  O         20.1970  -17.6560   28.1410 O.2     1  TRP1       -0.2776
      5  CB        17.2170  -17.0550   29.9710 C.3     1  TRP1       -0.0305
      6  CG        15.7870  -16.8310   29.7170 C.ar    1  TRP1       -0.0235
      7  CD1       14.7800  -17.7460   29.8230 C.ar    1  TRP1        0.0059
      8  CD2       15.1780  -15.6080   29.3140 C.ar    1  TRP1        0.0028
      9  NE1       13.5780  -17.1630   29.5090 N.ar    1  TRP1       -0.3604
     10  CE2       13.7950  -15.8480   29.1950 C.ar    1  TRP1        0.0467
     11  CE3       15.6650  -14.3300   29.0460 C.ar    1  TRP1       -0.0523
     12  CZ2       12.8970  -14.8590   28.8230 C.ar    1  TRP1       -0.0378
     13  CZ3       14.7730  -13.3470   28.6790 C.ar    1  TRP1       -0.0611
     14  CH2       13.3970  -13.6220   28.5660 C.ar    1  TRP1       -0.0598
     15  H1        16.9410  -16.5920   27.2200 H       1  TRP1       -0.0890
     16  H2        18.3670  -17.1610   26.9060 H       1  TRP1       -0.0890
     17  H3        17.3210  -18.0460   27.6670 H       1  TRP1       -0.0890
     18  HA        18.1880  -15.6500   28.8030 H       1  TRP1        0.0181
     19  HB2       17.3410  -18.0030   30.1330 H       1  TRP1        0.0302
     20  HB3       17.4550  -16.5540   30.7670 H       1  TRP1        0.0302
     21  HD1       14.8930  -18.6360   30.0690 H       1  TRP1        0.0810
     22  HE1       12.8140  -17.5570   29.5110 H       1  TRP1        0.1653
     23  HE3       16.5730  -14.1430   29.1230 H       1  TRP1        0.0624
     24  HZ2       11.9840  -15.0300   28.7750 H       1  TRP1        0.0638
     25  HZ3       15.0860  -12.4900   28.4950 H       1  TRP1        0.0618
     26  HH2       12.8170  -12.9410   28.3100 H       1  TRP1        0.0618
     27  N         19.9570  -17.1220   30.3180 N.am    2  LEU2       -0.3048
     28  CA        21.1800  -17.7760   30.7380 C.3     2  LEU2        0.1067
     29  C         20.9120  -18.6600   31.9610 C.2     2  LEU2        0.2345
     30  O         19.8880  -18.5050   32.6580 O.2     2  LEU2       -0.2737
     31  CB        22.2410  -16.7190   31.0610 C.3     2  LEU2        0.0246
     32  H         19.5500  -16.7020   30.9490 H       2  LEU2        0.1494
     33  HA        21.5150  -18.3420   30.0120 H       2  LEU2        0.0601
     34  N         21.8320  -19.5900   32.2140 N.am    3  PHE3       -0.3031
     35  CA        21.7410  -20.4890   33.3620 C.3     3  PHE3        0.0965
     36  C         20.5080  -21.3750   33.2440 C.2     3  PHE3        0.2206
     37  O         19.7350  -21.2480   32.2920 O.2     3  PHE3       -0.2869
     38  CB        21.6940  -19.6870   34.6670 C.3     3  PHE3        0.0233
     39  H         22.5290  -19.7210   31.7270 H       3  PHE3        0.1495
     40  HA        22.5330  -21.0660   33.3840 H       3  PHE3        0.0588
@<TRIPOS>BOND
     1    16     1    1
     2    15     1    1
     3     1    17    1
     4     1     2    1
     5     4     3    2
     6    26    14    1
     7    25    13    1
     8    14    13   ar
     9    14    12   ar
    10    13    11   ar
    11    24    12    1
    12    18     2    1
    13    12    10   ar
    14     2     3    1
    15     2     5    1
    16    11    23    1
    17    11     8   ar
    18     3    27   am
    19    10     8   ar
    20    10     9   ar
    21     8     6   ar
    22     9    22    1
    23     9     7   ar
    24     6     7   ar
    25     6     5    1
    26     7    21    1
    27     5    19    1
    28     5    20    1
    29    33    28    1
    30    27    28    1
    31    27    32    1
    32    28    31    1
    33    28    29    1
    34    39    34    1
    35    29    34   am
    36    29    30    2
    37    34    35    1
    38    37    36    2
    39    36    35    1
    40    35    40    1
    41    35    38    1
