@<TRIPOS>MOLECULE
3g1d_U_A_1.pdb
 21 22 0 0 0
SMALL
GASTEIGER

@<TRIPOS>ATOM
      1  OP3       25.8690   -1.2150    7.9160 O.3   229  U229       -0.1145
      2  P         24.8370   -2.2650    8.5560 P.3   229  U229        0.5327
      3  OP1       24.1130   -3.0850    7.5190 O.2   229  U229       -0.2224
      4  OP2       25.6110   -3.1380    9.5060 O.3   229  U229       -0.1145
      5  O5'       23.8220   -1.4830    9.4760 O.3   229  U229       -0.2675
      6  C5'       22.6990   -0.7620    8.9500 C.3   229  U229        0.1859
      7  C4'       22.0560   -0.0450   10.1200 C.3   229  U229        0.1801
      8  O4'       20.9880    0.8080    9.6530 O.3   229  U229       -0.3320
      9  C3'       21.3870   -0.8830   11.2020 C.3   229  U229        0.2158
     10  O3'       21.4580   -0.2270   12.4690 O.3   229  U229       -0.2175
     11  C2'       19.9720   -1.0020   10.7350 C.3   229  U229        0.2319
     12  O2'       19.0570   -1.3360   11.7760 O.3   229  U229       -0.2157
     13  C1'       19.7290    0.3440   10.0990 C.3   229  U229        0.2401
     14  N1        18.7970    0.4210    8.9570 N.am  229  U229       -0.1766
     15  C2        18.9500   -0.3900    7.7960 C.1   229  U229        0.2845
     16  O2        19.9060   -1.1160    7.6390 O.2   229  U229       -0.1918
     17  N3        17.9290   -0.2710    6.8730 N.2   229  U229       -0.2452
     18  C4        16.8550    0.6420    6.8880 C.1   229  U229        0.2182
     19  O4        16.1160    0.6690    5.9230 O.2   229  U229       -0.2085
     20  C5        16.7710    1.4590    8.0830 C.2   229  U229        0.1242
     21  C6        17.7210    1.3500    9.0380 C.2   229  U229        0.0929
@<TRIPOS>BOND
     1    19    18    2
     2    17    18    2
     3    17    15    2
     4    18    20    1
     5     3     2    2
     6    16    15    2
     7    15    14   am
     8     1     2    1
     9    20    21    2
    10     2     5    1
    11     2     4    1
    12     6     5    1
    13     6     7    1
    14    14    21    1
    15    14    13    1
    16     8    13    1
    17     8     7    1
    18    13    11    1
    19     7     9    1
    20    11     9    1
    21    11    12    1
    22     9    10    1
