@<TRIPOS>MOLECULE
3g1f_2OM_A_1.pdb
 24 25 0 0 0
SMALL
GASTEIGER

@<TRIPOS>ATOM
      1  O5'        2.1210   45.0720  -19.8810 O.3   229  2OM229     -0.2675
      2  C5'        2.0130   45.5200  -21.2120 C.3   229  2OM229      0.1859
      3  C4'        3.2580   46.3270  -21.5970 C.3   229  2OM229      0.1801
      4  O4'        4.3610   45.4390  -22.0150 O.3   229  2OM229     -0.3322
      5  C3'        2.9600   47.2420  -22.7830 C.3   229  2OM229      0.2158
      6  O3'        3.6590   48.4700  -22.6370 O.3   229  2OM229     -0.2175
      7  C2'        3.4270   46.4150  -23.9710 C.3   229  2OM229      0.2316
      8  O2'        3.6600   47.2230  -25.1060 O.3   229  2OM229     -0.2157
      9  C1'        4.6880   45.7420  -23.4120 C.3   229  2OM229      0.2365
     10  N1         5.0480   44.5020  -24.1840 N.am  229  2OM229     -0.1902
     11  C2         4.3130   43.3380  -24.0720 C.1   229  2OM229      0.2807
     12  N3         4.5330   42.2800  -24.8780 N.2   229  2OM229     -0.2496
     13  C4         5.5780   42.2230  -25.7350 C.1   229  2OM229      0.1946
     14  C5         6.2830   43.4840  -26.1810 C.3   229  2OM229      0.1677
     15  C6         6.2370   44.5860  -25.0910 C.3   229  2OM229      0.2074
     16  P          0.6420   44.7460  -19.3450 P.3   229  2OM229      0.5327
     17  O2         3.4400   43.2360  -23.2350 O.2   229  2OM229     -0.1922
     18  O4         5.9450   41.1530  -26.1600 O.2   229  2OM229     -0.2133
     19  OP2       -0.0350   43.6240  -20.2560 O.2   229  2OM229     -0.2224
     20  OP3        0.7670   44.1840  -17.8600 O.3   229  2OM229     -0.1145
     21  OP1       -0.1850   45.9590  -19.3300 O.3   229  2OM229     -0.1145
     22  C7         7.5160   44.5470  -24.3180 C.2   229  2OM229      0.3844
     23  O71        7.5530   44.0740  -23.2010 O.co2 229  2OM229     -0.2438
     24  O72        8.6400   45.0480  -24.8660 O.co2 229  2OM229     -0.2438
@<TRIPOS>BOND
     1    14    13    1
     2    14    15    1
     3    18    13    2
     4    13    12    2
     5     8     7    1
     6    15    22    1
     7    15    10    1
     8    12    11    2
     9    24    22   ar
    10    22    23   ar
    11    10    11   am
    12    10     9    1
    13    11    17    2
    14     7     9    1
    15     7     5    1
    16     9     4    1
    17     5     6    1
    18     5     3    1
    19     4     3    1
    20     3     2    1
    21     2     1    1
    22    19    16    2
    23     1    16    1
    24    16    21    1
    25    16    20    1
