@<TRIPOS>MOLECULE
3g1h_H2U_A_1.pdb
 21 22 0 0 0
SMALL
GASTEIGER

@<TRIPOS>ATOM
      1  P          0.5490   44.7710  -19.4340 P.3   229  H2U229      0.5327
      2  OP1        0.2190   43.6850  -20.4760 O.2   229  H2U229     -0.2224
      3  OP2       -0.8210   45.5850  -19.0530 O.3   229  H2U229     -0.1145
      4  OP3        1.2390   44.2320  -18.2390 O.3   229  H2U229     -0.1145
      5  O5'        1.5410   45.8280  -20.1320 O.3   229  H2U229     -0.2675
      6  C5'        2.5390   45.0860  -20.8330 C.3   229  H2U229      0.1859
      7  C4'        3.5780   46.0630  -21.4210 C.3   229  H2U229      0.1801
      8  O4'        4.7260   45.2970  -22.0680 O.3   229  H2U229     -0.3322
      9  C3'        2.9600   46.9140  -22.5450 C.3   229  H2U229      0.2158
     10  O3'        3.5030   48.2460  -22.5190 O.3   229  H2U229     -0.2175
     11  C1'        4.7670   45.7180  -23.4850 C.3   229  H2U229      0.2361
     12  C2'        3.3570   46.2070  -23.7920 C.3   229  H2U229      0.2316
     13  O2'        3.3630   47.1230  -24.9190 O.3   229  H2U229     -0.2157
     14  N1         5.1320   44.5610  -24.3630 N.am  229  H2U229     -0.1996
     15  C2         4.3780   43.3740  -24.3060 C.1   229  H2U229      0.2802
     16  O2         3.4250   43.3070  -23.5490 O.2   229  H2U229     -0.1922
     17  N3         4.6970   42.2980  -25.0600 N.2   229  H2U229     -0.2497
     18  C4         5.7060   42.3480  -25.9570 C.1   229  H2U229      0.1941
     19  O4         6.1910   41.3260  -26.3820 O.2   229  H2U229     -0.2133
     20  C5         6.2170   43.6880  -26.4460 C.3   229  H2U229      0.1579
     21  C6         6.3500   44.6620  -25.2400 C.3   229  H2U229      0.1249
@<TRIPOS>BOND
     1    20    18    1
     2    20    21    1
     3    19    18    2
     4    18    17    2
     5    21    14    1
     6    17    15    2
     7    13    12    1
     8    14    15   am
     9    14    11    1
    10    15    16    2
    11    12    11    1
    12    12     9    1
    13    11     8    1
    14     9    10    1
    15     9     7    1
    16     8     7    1
    17     7     6    1
    18     6     5    1
    19     2     1    2
    20     5     1    1
    21     1     3    1
    22     1     4    1
