@<TRIPOS>MOLECULE
3g1l_RF2_A_1.pdb
 18 20 0 0 0
SMALL
GASTEIGER

@<TRIPOS>ATOM
      1  C6        33.7670   70.8100   10.8100 C.ar  237  RF2237      0.0134
      2  C5        33.9990   69.6270   11.5310 C.ar  237  RF2237      0.0304
      3  C4        33.6780   69.6150   12.8910 C.ar  237  RF2237      0.1402
      4  F         33.9070   68.4940   13.6130 F     237  RF2237     -0.2042
      5  C3        33.1210   70.7410   13.4890 C.ar  237  RF2237      0.0304
      6  C8        32.8910   71.9090   12.7560 C.ar  237  RF2237      0.0134
      7  C7        33.2390   71.9610   11.4080 C.ar  237  RF2237      0.0766
      8  C2        32.9750   73.1050   10.6230 C.1   237  RF2237      0.1185
      9  N3        32.4210   74.2540   11.0330 N.2   237  RF2237     -0.2949
     10  N2        33.1390   73.2200    9.2900 N.2   237  RF2237     -0.0712
     11  N1        32.7390   74.3460    8.8860 N.2   237  RF2237     -0.0712
     12  C1        32.3030   75.0510    9.9670 C.1   237  RF2237      0.1185
     13  C9        31.6760   76.3040    9.9570 C.ar  237  RF2237      0.0764
     14  C10       31.2220   76.8130    8.7300 C.ar  237  RF2237      0.0111
     15  C11       30.5190   78.0110    8.6390 C.ar  237  RF2237      0.0007
     16  C12       30.2240   78.7010    9.8050 C.ar  237  RF2237      0.0000
     17  C13       30.6270   78.1770   11.0380 C.ar  237  RF2237      0.0007
     18  C14       31.3310   76.9710   11.1220 C.ar  237  RF2237      0.0111
@<TRIPOS>BOND
     1    15    14   ar
     2    15    16   ar
     3    14    13   ar
     4    11    10    1
     5    11    12    2
     6    10     8    2
     7    16    17   ar
     8    13    12    1
     9    13    18   ar
    10    12     9    2
    11     8     9    2
    12     8     7    1
    13     1     7   ar
    14     1     2   ar
    15    17    18   ar
    16     7     6   ar
    17     2     3   ar
    18     6     5   ar
    19     3     5   ar
    20     3     4    1
