@<TRIPOS>MOLECULE
3g1m_RF3_A_1.pdb
 24 27 0 0 0
SMALL
GASTEIGER

@<TRIPOS>ATOM
      1  C40       30.8700   77.9550   10.8700 C.ar  217  RF3217      0.0032
      2  C38       30.5710   78.9320    9.9940 C.ar  217  RF3217      0.0072
      3  C36       30.3850   78.5360    8.7460 C.ar  217  RF3217      0.0351
      4  S35       30.5950   76.8810    8.6390 S.2   217  RF3217     -0.0903
      5  C01       30.9340   76.7430   10.3500 C.ar  217  RF3217      0.0164
      6  C02       31.1780   75.4190   11.0610 C.3   217  RF3217      0.1181
      7  C05       32.0290   74.3710   10.3200 C.2   217  RF3217      0.2306
      8  O07       32.2560   74.4870    9.1570 O.2   217  RF3217     -0.2745
      9  N06       32.3960   73.2970   11.0090 N.am  217  RF3217     -0.2792
     10  C19       32.1010   73.2050   12.4590 C.3   217  RF3217      0.0939
     11  C16       32.0900   71.7750   13.0050 C.3   217  RF3217      0.0320
     12  C08       33.2680   72.2770   10.3590 C.3   217  RF3217      0.0939
     13  C11       33.1960   70.9120   10.9610 C.3   217  RF3217      0.0320
     14  C14       33.2640   70.9640   12.4610 C.3   217  RF3217      0.0960
     15  C22       33.2730   69.5310   13.0210 C.2   217  RF3217      0.2934
     16  N26       33.1180   68.4270   12.3740 N.2   217  RF3217     -0.3122
     17  O23       33.3900   69.2760   14.2830 O.2   217  RF3217     -0.3156
     18  N24       33.3260   67.9360   14.4190 N.2   217  RF3217     -0.0067
     19  C25       33.1590   67.4290   13.2470 C.1   217  RF3217      0.1329
     20  C27       33.0160   66.0790   12.9430 C.ar  217  RF3217      0.1063
     21  C28       32.6990   65.0090   13.7000 C.ar  217  RF3217      0.0182
     22  C30       32.6320   63.8870   13.0050 C.ar  217  RF3217      0.0082
     23  C32       32.8640   63.9750   11.6940 C.ar  217  RF3217      0.0362
     24  S34       33.1960   65.6000   11.3950 S.2   217  RF3217     -0.0753
@<TRIPOS>BOND
     1     4     3   ar
     2     4     5   ar
     3     3     2   ar
     4     8     7    2
     5     2     1   ar
     6     7     9   am
     7     7     6    1
     8     5     1   ar
     9     5     6    1
    10    12    13    1
    11    12     9    1
    12    13    14    1
    13     9    10    1
    14    24    23   ar
    15    24    20   ar
    16    23    22   ar
    17    16    15    2
    18    16    19    2
    19    10    11    1
    20    14    11    1
    21    14    15    1
    22    20    19    1
    23    20    21   ar
    24    22    21   ar
    25    15    17    1
    26    19    18    2
    27    17    18    1
