@<TRIPOS>MOLECULE
3g1o_RF1_A_1.pdb
 23 25 0 0 0
SMALL
GASTEIGER

@<TRIPOS>ATOM
      1  C14       32.8760   64.8610   14.0620 C.3   237  RF1237      0.0437
      2  C10       33.5550   65.2510   12.7570 C.3   237  RF1237      0.1378
      3  C15       34.9660   64.6910   12.7750 C.3   237  RF1237      0.0437
      4  C16       32.7520   64.6570   11.5980 C.3   237  RF1237      0.0437
      5  O2        33.5760   66.7480   12.7510 O.3   237  RF1237     -0.4418
      6  C3        34.0200   67.5100   11.7040 C.2   237  RF1237      0.4046
      7  O3        34.5220   66.9830   10.7050 O.2   237  RF1237     -0.2262
      8  N3        33.9080   68.8480   11.7620 N.am  237  RF1237     -0.2460
      9  C7        33.3500   69.5010   12.9920 C.3   237  RF1237      0.0973
     10  C12       32.6770   70.8310   12.7140 C.3   237  RF1237      0.0322
     11  C6        34.4420   69.6180   10.6110 C.3   237  RF1237      0.0973
     12  C13       33.5620   70.8530   10.3330 C.3   237  RF1237      0.0322
     13  C5        33.4040   71.6550   11.6290 C.3   237  RF1237      0.0960
     14  C2        32.5900   72.9360   11.4430 C.2   237  RF1237      0.2934
     15  N1        32.5620   73.7580   10.4070 N.2   237  RF1237     -0.3122
     16  O1        31.7990   73.4080   12.4450 O.2   237  RF1237     -0.3156
     17  N2        31.2510   74.5840   11.9540 N.2   237  RF1237     -0.0067
     18  C1        31.7190   74.7670   10.7440 C.1   237  RF1237      0.1329
     19  C4        31.3320   75.8570    9.9830 C.ar  237  RF1237      0.1063
     20  C8        31.3940   76.0390    8.6640 C.ar  237  RF1237      0.0182
     21  C11       30.9080   77.2230    8.2420 C.ar  237  RF1237      0.0082
     22  C9        30.4450   78.0530    9.1950 C.ar  237  RF1237      0.0362
     23  S1        30.6300   77.2210   10.6730 S.2   237  RF1237     -0.0753
@<TRIPOS>BOND
     1    21    20   ar
     2    21    22   ar
     3    20    19   ar
     4    22    23   ar
     5    19    23   ar
     6    19    18    1
     7    12    11    1
     8    12    13    1
     9    15    18    2
    10    15    14    2
    11    11     8    1
    12     7     6    2
    13    18    17    2
    14    14    13    1
    15    14    16    1
    16     4     2    1
    17    13    10    1
    18     6     8   am
    19     6     5    1
    20     8     9    1
    21    17    16    1
    22    10     9    1
    23     5     2    1
    24     2     3    1
    25     2     1    1
