@<TRIPOS>MOLECULE
3g1q_HEM_A_1.pdb
 43 50 0 0 0
SMALL
GASTEIGER

@<TRIPOS>ATOM
      1  CHA        4.6510    7.4520   18.1930 C.2   480  HEM480      0.0000
      2  CHB        8.6980    6.6790   20.8650 C.2   480  HEM480      0.0000
      3  CHC        6.5140    8.3940   24.9180 C.2   480  HEM480      0.0000
      4  CHD        2.3830    8.4960   22.4370 C.2   480  HEM480      0.0000
      5  C1A        5.9600    7.1170   18.5810 C.ar  480  HEM480      0.0000
      6  C2A        6.9840    6.6600   17.6800 C.ar  480  HEM480      0.0000
      7  C3A        8.0840    6.4670   18.4260 C.ar  480  HEM480      0.0000
      8  C4A        7.7890    6.7440   19.8060 C.ar  480  HEM480      0.0000
      9  CMA        9.4650    5.9290   17.8490 C.3   480  HEM480      0.0000
     10  CAA        6.8240    6.5090   16.1670 C.3   480  HEM480      0.0000
     11  CBA        6.1890    5.1140   15.8160 C.3   480  HEM480      0.0000
     12  CGA        6.1510    4.8730   14.3230 C.2   480  HEM480      0.0000
     13  O1A        6.7780    5.5700   13.5160 O.co2 480  HEM480      0.0000
     14  O2A        5.5040    3.8610   13.9240 O.co2 480  HEM480      0.0000
     15  C1B        8.4650    7.0780   22.1810 C.2   480  HEM480      0.0000
     16  C2B        9.4300    7.1150   23.2160 C.2   480  HEM480      0.0000
     17  C3B        8.8460    7.6250   24.3040 C.2   480  HEM480      0.0000
     18  C4B        7.4620    7.8930   24.0120 C.2   480  HEM480      0.0000
     19  CMB       10.9630    6.7030   23.1030 C.3   480  HEM480      0.0000
     20  CAB        9.5690    7.8070   25.6420 C.2   480  HEM480      0.0000
     21  CBB        9.5150    8.9290   26.3080 C.2   480  HEM480      0.0000
     22  C1C        5.1830    8.5320   24.6110 C.ar  480  HEM480      0.0000
     23  C2C        4.1340    8.8750   25.5420 C.ar  480  HEM480      0.0000
     24  C3C        2.9740    8.8810   24.8560 C.ar  480  HEM480      0.0000
     25  C4C        3.2860    8.5620   23.4600 C.ar  480  HEM480      0.0000
     26  CMC        4.4850    9.1790   27.0050 C.3   480  HEM480      0.0000
     27  CAC        1.4820    9.2370   25.2660 C.2   480  HEM480      0.0000
     28  CBC        1.2910    9.7070   26.4850 C.2   480  HEM480      0.0000
     29  C1D        2.5790    8.2060   21.0510 C.2   480  HEM480      0.0000
     30  C2D        1.6020    8.0470   20.0810 C.2   480  HEM480      0.0000
     31  C3D        2.2610    7.7550   18.8030 C.2   480  HEM480      0.0000
     32  C4D        3.6700    7.6990   19.1330 C.2   480  HEM480      0.0000
     33  CMD        0.0140    8.1930   20.1400 C.3   480  HEM480      0.0000
     34  CAD        1.6730    7.5090   17.4080 C.3   480  HEM480      0.0000
     35  CBD        1.7400    8.8320   16.5880 C.3   480  HEM480      0.0000
     36  CGD        1.1070    8.6700   15.2060 C.2   480  HEM480      0.0000
     37  O1D        0.8970    9.6900   14.5410 O.co2 480  HEM480      0.0000
     38  O2D        0.7970    7.5480   14.8110 O.co2 480  HEM480      0.0000
     39  NA         6.4310    7.1690   19.8670 N.ar  480  HEM480      0.0000
     40  NB         7.2260    7.5200   22.6830 N.2   480  HEM480      0.0000
     41  NC         4.6380    8.3230   23.3710 N.ar  480  HEM480      0.0000
     42  ND         3.8310    7.9460   20.4560 N.2   480  HEM480      0.0000
     43 FE          5.5830    7.9740   21.5260 Fe    480  HEM480      0.0000
@<TRIPOS>BOND
     1    13    12   ar
     2    14    12   ar
     3    12    11    1
     4    37    36   ar
     5    38    36   ar
     6    36    35    1
     7    11    10    1
     8    10     6    1
     9    35    34    1
    10    34    31    1
    11     6     7   ar
    12     6     5   ar
    13     9     7    1
    14     1     5    2
    15     1    32    1
    16     7     8   ar
    17     5    39   ar
    18    31    32    1
    19    31    30    2
    20    32    42    2
    21     8    39   ar
    22     8     2    2
    23    39    43    1
    24    30    33    1
    25    30    29    1
    26    42    29    1
    27    42    43    1
    28     2    15    1
    29    29     4    2
    30    43    40    1
    31    43    41    1
    32    15    40    2
    33    15    16    1
    34     4    25    1
    35    40    18    1
    36    19    16    1
    37    16    17    2
    38    41    25   ar
    39    41    22   ar
    40    25    24   ar
    41    18    17    1
    42    18     3    2
    43    17    20    1
    44    22     3    1
    45    22    23   ar
    46    24    27    1
    47    24    23   ar
    48    27    28    2
    49    23    26    1
    50    20    21    2
