@<TRIPOS>MOLECULE
3g1r_FIT_B_1.pdb
 27 30 0 0 0
SMALL
GASTEIGER

@<TRIPOS>ATOM
      1  N1         2.4900   21.1370  -30.3640 N.2   327  FIT327     -0.2042
      2  C2         0.9120   19.3910  -30.8930 C.2   327  FIT327      0.0891
      3  N2         7.0460   15.1790  -36.7650 N.am  327  FIT327     -0.2088
      4  C4         3.5120   20.3940  -31.0630 C.3   327  FIT327      0.1184
      5  C5         4.7650   21.2840  -31.3100 C.3   327  FIT327      0.0255
      6  C6         5.8080   20.4390  -32.0340 C.3   327  FIT327      0.0020
      7  O1         0.6340   20.9280  -29.0260 O.2   327  FIT327     -0.2222
      8  O2         7.4810   17.1590  -37.8360 O.2   327  FIT327     -0.2734
      9  C1         1.6640   19.0500  -31.9930 C.2   327  FIT327     -0.0125
     10  C3         1.3010   20.5510  -30.0240 C.1   327  FIT327      0.1504
     11  C7         5.3200   19.8050  -33.3290 C.3   327  FIT327      0.0004
     12  C8         4.0250   18.9730  -33.0440 C.3   327  FIT327      0.0056
     13  C9         2.9380   19.8310  -32.3810 C.3   327  FIT327      0.0408
     14  C10        3.5740   18.3190  -34.3580 C.3   327  FIT327      0.0004
     15  C11        4.5970   17.4300  -34.8940 C.3   327  FIT327      0.0005
     16  C12        5.9460   18.1110  -35.1600 C.3   327  FIT327      0.0082
     17  C13        6.3510   18.8160  -33.8700 C.3   327  FIT327      0.0005
     18  C14        7.7920   19.2910  -34.2310 C.3   327  FIT327      0.0005
     19  C15        8.3500   18.1300  -35.1160 C.3   327  FIT327      0.0091
     20  C16        7.1580   17.2060  -35.4220 C.3   327  FIT327      0.0782
     21  C17        5.7150   19.1140  -36.3020 C.3   327  FIT327      0.0005
     22  C18        2.4220   20.9260  -33.3330 C.3   327  FIT327      0.0063
     23  C19        7.2050   16.5440  -36.8090 C.2   327  FIT327      0.2408
     24  C20        7.0280   14.2170  -37.9100 C.3   327  FIT327      0.0788
     25  C21        6.0070   14.6460  -38.9680 C.3   327  FIT327      0.0217
     26  C22        6.6830   12.8730  -37.2750 C.3   327  FIT327      0.0217
     27  C23        8.4290   14.1090  -38.5450 C.3   327  FIT327      0.0217
@<TRIPOS>BOND
     1    25    24    1
     2    27    24    1
     3    24    26    1
     4    24     3    1
     5     8    23    2
     6    23     3   am
     7    23    20    1
     8    21    16    1
     9    20    16    1
    10    20    19    1
    11    16    15    1
    12    16    17    1
    13    19    18    1
    14    15    14    1
    15    14    12    1
    16    18    17    1
    17    17    11    1
    18    22    13    1
    19    11    12    1
    20    11     6    1
    21    12    13    1
    22    13     9    1
    23    13     4    1
    24     6     5    1
    25     9     2    2
    26     5     4    1
    27     4     1    1
    28     2    10    1
    29     1    10    2
    30    10     7    2
