@<TRIPOS>MOLECULE
3g1r_NAP_A_1.pdb
 48 52 0 0 0
SMALL
GASTEIGER

@<TRIPOS>ATOM
      1  PA         6.3800  -15.8460    3.9590 P.3   944  NAP944      0.2189
      2  O1A        7.1050  -15.4420    5.1220 O.3   944  NAP944     -0.4371
      3  O2A        5.2900  -15.0150    3.4050 O.2   944  NAP944     -0.5170
      4  O5B        5.8450  -17.3540    4.2020 O.3   944  NAP944     -0.3112
      5  C5B        5.2200  -18.0210    3.3260 C.3   944  NAP944      0.1813
      6  C4B        5.0520  -19.5270    3.6300 C.3   944  NAP944      0.1820
      7  O4B        4.1640  -19.5200    4.7190 O.3   944  NAP944     -0.3136
      8  C3B        4.3350  -20.3410    2.5300 C.3   944  NAP944      0.2157
      9  O3B        4.9100  -21.6530    2.5970 O.3   944  NAP944     -0.2175
     10  C2B        2.8630  -20.3040    2.9600 C.3   944  NAP944      0.2314
     11  O2B        2.1850  -21.4790    2.5090 O.3   944  NAP944     -0.2630
     12  C1B        2.9510  -20.2790    4.4610 C.3   944  NAP944      0.3158
     13  N9A        1.9050  -19.5650    5.1890 N.pl3 944  NAP944     -0.1439
     14  C8A        1.2710  -18.4120    4.8340 C.3   944  NAP944      0.3377
     15  N7A        0.3560  -18.0120    5.7840 N.2   944  NAP944     -0.2095
     16  C5A        0.4740  -18.9870    6.7140 C.2   944  NAP944      0.2526
     17  C6A       -0.2510  -19.0890    7.9390 C.2   944  NAP944      0.4393
     18  N6A       -1.1640  -18.2800    8.4180 N.pl3 944  NAP944      0.2180
     19  N1A        0.0890  -20.2330    8.7490 N.2   944  NAP944      0.0021
     20  C2A        1.0480  -21.1740    8.3780 C.3   944  NAP944      0.5254
     21  N3A        1.7300  -21.0550    7.2130 N.2   944  NAP944     -0.0055
     22  C4A        1.4230  -19.9250    6.3550 C.2   944  NAP944      0.3518
     23  O3         7.4070  -15.8960    2.7440 O.3   944  NAP944     -0.2703
     24  PN         7.8490  -15.4480    1.3590 P.3   944  NAP944      0.2189
     25  O1N        9.2020  -15.7810    1.1330 O.3   944  NAP944     -0.4371
     26  O2N        6.8140  -15.9660    0.3930 O.2   944  NAP944     -0.5170
     27  O5D        7.6240  -14.0310    1.6060 O.3   944  NAP944     -0.3112
     28  C5D        6.5390  -13.1550    1.3120 C.3   944  NAP944      0.1813
     29  C4D        6.5350  -12.4410    0.0130 C.3   944  NAP944      0.1799
     30  O4D        7.6240  -11.4610    0.0950 O.3   944  NAP944     -0.3327
     31  C3D        6.9490  -13.2400   -1.2880 C.3   944  NAP944      0.2158
     32  O3D        5.8940  -14.1550   -1.6980 O.3   944  NAP944     -0.2175
     33  C2D        7.3370  -12.0640   -2.1730 C.3   944  NAP944      0.2309
     34  O2D        6.1310  -11.4220   -2.6430 O.3   944  NAP944     -0.2158
     35  C1D        8.1630  -11.2140   -1.2220 C.3   944  NAP944      0.2263
     36  N1N        9.6290  -11.5710   -1.1210 N.pl3 944  NAP944     -0.2787
     37  C2N       10.5190  -10.6250   -1.6660 C.3   944  NAP944      0.1244
     38  C3N       11.9160  -10.9130   -1.6080 C.2   944  NAP944      0.0544
     39  C7N       12.9070   -9.9070   -2.1860 C.2   944  NAP944      0.2818
     40  O7N       14.0470  -10.2730   -2.3760 O.2   944  NAP944     -0.2670
     41  N7N       12.3560   -8.7000   -2.3770 N.am  944  NAP944     -0.0839
     42  C4N       12.4030  -12.1340   -1.0190 C.2   944  NAP944      0.0033
     43  C5N       11.5060  -13.1310   -0.4510 C.2   944  NAP944      0.0157
     44  C6N       10.1310  -12.8310   -0.5100 C.2   944  NAP944      0.0633
     45  P2B        0.7300  -21.3960    1.8040 P.3   944  NAP944      0.5328
     46  O1X        0.8390  -20.4880    0.5870 O.2   944  NAP944     -0.2224
     47  O2X        0.4760  -22.8620    1.4620 O.3   944  NAP944     -0.1145
     48  O3X       -0.2170  -20.7900    2.8320 O.3   944  NAP944     -0.1145
@<TRIPOS>BOND
     1    34    33    1
     2    41    39   am
     3    40    39    2
     4    39    38    1
     5    33    31    1
     6    33    35    1
     7    32    31    1
     8    37    38    1
     9    37    36    1
    10    38    42    2
    11    31    29    1
    12    35    36    1
    13    35    30    1
    14    36    44    1
    15    42    43    1
    16    44    43    2
    17    29    30    1
    18    29    28    1
    19    26    24    2
    20    46    45    2
    21    25    24    1
    22    28    27    1
    23    24    27    1
    24    24    23    1
    25    47    45    1
    26    45    11    1
    27    45    48    1
    28    11    10    1
    29     8     9    1
    30     8    10    1
    31     8     6    1
    32    23     1    1
    33    10    12    1
    34     5     6    1
    35     5     4    1
    36     3     1    2
    37     6     7    1
    38     1     4    1
    39     1     2    1
    40    12     7    1
    41    12    13    1
    42    14    13    1
    43    14    15    1
    44    13    22    1
    45    15    16    2
    46    22    16    1
    47    22    21    2
    48    16    17    1
    49    21    20    1
    50    17    18    1
    51    17    19    2
    52    20    19    1
