@<TRIPOS>MOLECULE
3g1u_ADN_A_1.pdb
 19 21 0 0 0
SMALL
GASTEIGER

@<TRIPOS>ATOM
      1  O5'       -2.3230    0.3330   -1.5610 O.3   438  ADN438     -0.2176
      2  C5'       -1.6280   -0.7950   -1.0450 C.3   438  ADN438      0.2143
      3  C4'       -0.1770   -0.3850   -0.8330 C.3   438  ADN438      0.1851
      4  O4'       -0.2200    0.6580    0.1530 O.3   438  ADN438     -0.3134
      5  C3'        0.5680   -1.5180   -0.1340 C.3   438  ADN438      0.2186
      6  O3'        1.3400   -2.2960   -1.0720 O.3   438  ADN438     -0.2174
      7  C2'        1.4630   -0.7880    0.8770 C.3   438  ADN438      0.2570
      8  O2'        2.8350   -0.9190    0.5340 O.3   438  ADN438     -0.2130
      9  C1'        1.0790    0.6840    0.7230 C.3   438  ADN438      0.3186
     10  N9         1.2770    1.3250    2.0620 N.pl3 438  ADN438     -0.1439
     11  C8         1.0630    0.7840    3.2830 C.3   438  ADN438      0.3377
     12  N7         1.3960    1.6490    4.2340 N.2   438  ADN438     -0.2095
     13  C5         1.8320    2.7510    3.6200 C.2   438  ADN438      0.2526
     14  C6         2.3060    3.9830    4.0620 C.2   438  ADN438      0.4393
     15  N6         2.4000    4.2490    5.3640 N.pl3 438  ADN438      0.2180
     16  N1         2.6560    4.9090    3.1540 N.2   438  ADN438      0.0021
     17  C2         2.5690    4.6720    1.8540 C.3   438  ADN438      0.5254
     18  N3         2.1170    3.5140    1.3960 N.2   438  ADN438     -0.0055
     19  C4         1.7520    2.5460    2.2460 C.2   438  ADN438      0.3518
@<TRIPOS>BOND
     1     1     2    1
     2     6     5    1
     3     2     3    1
     4     3     5    1
     5     3     4    1
     6     5     7    1
     7     4     9    1
     8     8     7    1
     9     9     7    1
    10     9    10    1
    11    18    17    1
    12    18    19    2
    13    17    16    1
    14    10    19    1
    15    10    11    1
    16    19    13    1
    17    16    14    2
    18    11    12    1
    19    13    14    1
    20    13    12    2
    21    14    15    1
