@<TRIPOS>MOLECULE
3g1u_NAD_A_1.pdb
 44 48 0 0 0
SMALL
GASTEIGER

@<TRIPOS>ATOM
      1  PA        -3.0030  -12.3030   -2.1480 P.3   439  NAD439      0.2189
      2  O1A       -3.6370  -12.4940   -3.4730 O.2   439  NAD439     -0.5170
      3  O2A       -1.7250  -13.0380   -1.9770 O.3   439  NAD439     -0.4371
      4  O5B       -4.0320  -12.7570   -1.0200 O.3   439  NAD439     -0.3112
      5  C5B       -5.4110  -12.7930   -1.2720 C.3   439  NAD439      0.1813
      6  C4B       -5.9370  -14.1320   -0.7840 C.3   439  NAD439      0.1821
      7  O4B       -7.3370  -14.0530   -0.7110 O.3   439  NAD439     -0.3135
      8  C3B       -5.6000  -15.2490   -1.7730 C.3   439  NAD439      0.2184
      9  O3B       -4.9000  -16.2620   -1.0860 O.3   439  NAD439     -0.2174
     10  C2B       -6.9390  -15.7620   -2.2790 C.3   439  NAD439      0.2570
     11  O2B       -6.9680  -17.1730   -2.3220 O.3   439  NAD439     -0.2130
     12  C1B       -7.8880  -15.2600   -1.2060 C.3   439  NAD439      0.3186
     13  N9A       -9.2570  -15.0080   -1.6780 N.pl3 439  NAD439     -0.1439
     14  C8A       -9.6590  -14.5080   -2.8890 C.3   439  NAD439      0.3377
     15  N7A      -11.0060  -14.4330   -2.8680 N.2   439  NAD439     -0.2095
     16  C5A      -11.4660  -14.8650   -1.6760 C.2   439  NAD439      0.2526
     17  C6A      -12.7530  -14.9900   -1.1390 C.2   439  NAD439      0.4393
     18  N6A      -13.7710  -15.1660   -1.9830 N.pl3 439  NAD439      0.2180
     19  N1A      -12.8900  -15.4680    0.1660 N.2   439  NAD439      0.0021
     20  C2A      -11.7690  -15.8270    0.9010 C.3   439  NAD439      0.5254
     21  N3A      -10.5080  -15.6920    0.3500 N.2   439  NAD439     -0.0055
     22  C4A      -10.3650  -15.2180   -0.9090 C.2   439  NAD439      0.3518
     23  O3        -2.8640  -10.7060   -1.9250 O.3   439  NAD439     -0.2703
     24  PN        -2.0720  -10.0130   -0.7050 P.3   439  NAD439      0.2189
     25  O1N       -0.6870   -9.7030   -1.1280 O.2   439  NAD439     -0.5170
     26  O2N       -2.3110  -10.7820    0.5310 O.3   439  NAD439     -0.4371
     27  O5D       -2.8620   -8.6130   -0.6700 O.3   439  NAD439     -0.3112
     28  C5D       -4.2640   -8.5370   -0.4520 C.3   439  NAD439      0.1813
     29  C4D       -4.8400   -7.1760   -0.8620 C.3   439  NAD439      0.1799
     30  O4D       -4.3440   -6.1300   -0.0490 O.3   439  NAD439     -0.3327
     31  C3D       -4.4870   -6.7620   -2.2750 C.3   439  NAD439      0.2158
     32  O3D       -5.5930   -6.0000   -2.7150 O.3   439  NAD439     -0.2175
     33  C2D       -3.2970   -5.8310   -2.0900 C.3   439  NAD439      0.2309
     34  O2D       -3.0910   -4.9490   -3.1660 O.3   439  NAD439     -0.2158
     35  C1D       -3.6830   -5.1250   -0.8090 C.3   439  NAD439      0.2263
     36  N1N       -2.5690   -4.6950    0.0520 N.pl3 439  NAD439     -0.2787
     37  C2N       -2.8490   -3.7460    1.0000 C.3   439  NAD439      0.1244
     38  C3N       -1.8580   -3.3180    1.8950 C.2   439  NAD439      0.0544
     39  C7N       -2.1260   -2.1820    2.8260 C.2   439  NAD439      0.2818
     40  O7N       -1.0530   -1.5530    3.4540 O.2   439  NAD439     -0.2670
     41  N7N       -3.3620   -1.8020    3.0730 N.am  439  NAD439     -0.0839
     42  C4N       -0.5790   -3.8850    1.8410 C.2   439  NAD439      0.0033
     43  C5N       -0.3210   -4.8600    0.8650 C.2   439  NAD439      0.0157
     44  C6N       -1.3190   -5.2720   -0.0230 C.2   439  NAD439      0.0633
@<TRIPOS>BOND
     1     2     1    2
     2    34    33    1
     3    14    15    1
     4    14    13    1
     5    15    16    2
     6    32    31    1
     7    11    10    1
     8    10     8    1
     9    10    12    1
    10    31    33    1
    11    31    29    1
    12     1     3    1
    13     1    23    1
    14     1     4    1
    15    33    35    1
    16    18    17    1
    17    23    24    1
    18     8     9    1
    19     8     6    1
    20    13    12    1
    21    13    22    1
    22    16    17    1
    23    16    22    1
    24     5     4    1
    25     5     6    1
    26    12     7    1
    27    17    19    2
    28    25    24    2
    29    22    21    2
    30    29    28    1
    31    29    30    1
    32    35    30    1
    33    35    36    1
    34     6     7    1
    35    24    27    1
    36    24    26    1
    37    27    28    1
    38    44    36    1
    39    44    43    2
    40    36    37    1
    41    19    20    1
    42    21    20    1
    43    43    42    1
    44    37    38    1
    45    42    38    2
    46    38    39    1
    47    39    41   am
    48    39    40    2
