@<TRIPOS>MOLECULE
3g1v_5FU_A_1.pdb
 22 23 0 0 0
SMALL
GASTEIGER

@<TRIPOS>ATOM
      1  F5         8.9240    6.1900   -0.0760 F     501  5FU501     -0.1891
      2  C5         8.6290    5.3510    0.9880 C.2   501  5FU501      0.2499
      3  C4         7.5110    5.5470    1.7610 C.1   501  5FU501      0.2454
      4  O4         6.7040    6.5140    1.5860 O.2   501  5FU501     -0.2062
      5  N3         7.2240    4.6810    2.7620 N.2   501  5FU501     -0.2430
      6  C2         7.9930    3.5680    2.9890 C.1   501  5FU501      0.2846
      7  O2         7.6710    2.7830    3.8900 O.2   501  5FU501     -0.1918
      8  C6         9.4820    4.2940    1.2660 C.2   501  5FU501      0.1222
      9  N1         9.1170    3.3600    2.1790 N.am  501  5FU501     -0.1744
     10  C1'        9.9360    2.1300    2.2430 C.3   501  5FU501      0.2401
     11  O4'        9.0740    0.9910    1.9990 O.3   501  5FU501     -0.3319
     12  C2'       10.6230    1.8320    3.5600 C.3   501  5FU501      0.2319
     13  O2'       11.9040    2.4390    3.6890 O.3   501  5FU501     -0.2157
     14  C3'       10.6770    0.3420    3.5800 C.3   501  5FU501      0.2158
     15  O3'       11.8230   -0.1070    2.8390 O.3   501  5FU501     -0.2175
     16  C4'        9.4050   -0.0710    2.9170 C.3   501  5FU501      0.1801
     17  C5'        8.2370   -0.2410    3.8800 C.3   501  5FU501      0.1859
     18  O5'        8.4900   -1.4310    4.6180 O.3   501  5FU501     -0.2675
     19  P          7.4870   -1.9610    5.7610 P.3   501  5FU501      0.5327
     20  O1P        8.4250   -2.7280    6.6350 O.3   501  5FU501     -0.1145
     21  O2P        6.8760   -0.7730    6.4530 O.3   501  5FU501     -0.1145
     22  O3P        6.4880   -2.8440    5.0820 O.2   501  5FU501     -0.2224
@<TRIPOS>BOND
     1     1     2    1
     2     2     8    2
     3     2     3    1
     4     8     9    1
     5     4     3    2
     6     3     5    2
     7    11    10    1
     8    11    16    1
     9     9    10    1
    10     9     6   am
    11    10    12    1
    12     5     6    2
    13    15    14    1
    14    16    14    1
    15    16    17    1
    16     6     7    2
    17    12    14    1
    18    12    13    1
    19    17    18    1
    20    18    19    1
    21    22    19    2
    22    19    21    1
    23    19    20    1
