@<TRIPOS>MOLECULE
3g1x_U_A_1.pdb
 21 22 0 0 0
SMALL
GASTEIGER

@<TRIPOS>ATOM
      1  OP3        6.2640   -2.7630    5.0560 O.2   229  U229       -0.2224
      2  P          7.3180   -1.7800    5.7170 P.3   229  U229        0.5327
      3  OP1        6.6790   -0.6360    6.4580 O.3   229  U229       -0.1145
      4  OP2        8.1870   -2.5880    6.6250 O.3   229  U229       -0.1145
      5  O5'        8.3080   -1.2730    4.5820 O.3   229  U229       -0.2675
      6  C5'        7.9830   -0.1870    3.7080 C.3   229  U229        0.1859
      7  C4'        9.1960    0.0550    2.8330 C.3   229  U229        0.1801
      8  O4'        8.9380    1.1550    1.9240 O.3   229  U229       -0.3320
      9  C3'       10.5030    0.4590    3.5030 C.3   229  U229        0.2158
     10  O3'       11.6310   -0.0230    2.7630 O.3   229  U229       -0.2175
     11  C2'       10.4440    1.9530    3.5170 C.3   229  U229        0.2319
     12  O2'       11.7100    2.5720    3.6900 O.3   229  U229       -0.2157
     13  C1'        9.7730    2.2610    2.2030 C.3   229  U229        0.2401
     14  N1         8.9540    3.4860    2.1040 N.am  229  U229       -0.1766
     15  C2         7.8080    3.6920    2.9280 C.1   229  U229        0.2845
     16  O2         7.5110    2.9180    3.8120 O.2   229  U229       -0.1918
     17  N3         7.0770    4.8330    2.6310 N.2   229  U229       -0.2452
     18  C4         7.3500    5.7880    1.6320 C.1   229  U229        0.2182
     19  O4         6.5780    6.7070    1.5020 O.2   229  U229       -0.2085
     20  C5         8.5560    5.5440    0.8650 C.2   229  U229        0.1242
     21  C6         9.3300    4.4760    1.1520 C.2   229  U229        0.0929
@<TRIPOS>BOND
     1    20    21    2
     2    20    18    1
     3    21    14    1
     4    19    18    2
     5    18    17    2
     6     8    13    1
     7     8     7    1
     8    14    13    1
     9    14    15   am
    10    13    11    1
    11    17    15    2
    12    10     9    1
    13     7     9    1
    14     7     6    1
    15    15    16    2
    16     9    11    1
    17    11    12    1
    18     6     5    1
    19     5     2    1
    20     1     2    2
    21     2     3    1
    22     2     4    1
