@<TRIPOS>MOLECULE
3g1z_AMP_A_1.pdb
 23 25 0 0 0
SMALL
GASTEIGER

@<TRIPOS>ATOM
      1  P          5.2230    7.3250  -18.8600 P.3   401  AMP401      0.5327
      2  O1P        5.3650    5.8110  -18.9350 O.3   401  AMP401     -0.1145
      3  O2P        4.9680    7.8440  -17.4780 O.3   401  AMP401     -0.1145
      4  O3P        6.3280    7.9910  -19.6480 O.2   401  AMP401     -0.2224
      5  O5'        3.8480    7.6710  -19.6310 O.3   401  AMP401     -0.2675
      6  C5'        3.6710    7.3700  -21.0190 C.3   401  AMP401      0.1860
      7  C4'        2.3770    7.9760  -21.5300 C.3   401  AMP401      0.1823
      8  O4'        1.2310    7.2680  -21.0000 O.3   401  AMP401     -0.3135
      9  C3'        2.1710    9.4210  -21.0890 C.3   401  AMP401      0.2184
     10  O3'        2.7270   10.4090  -21.9680 O.3   401  AMP401     -0.2174
     11  C2'        0.6700    9.5510  -21.0820 C.3   401  AMP401      0.2570
     12  O2'        0.2440    9.8520  -22.4110 O.3   401  AMP401     -0.2130
     13  C1'        0.1490    8.1450  -20.8000 C.3   401  AMP401      0.3186
     14  N9        -0.3380    7.9510  -19.4140 N.pl3 401  AMP401     -0.1439
     15  C8         0.4080    7.8320  -18.2960 C.3   401  AMP401      0.3377
     16  N7        -0.3690    7.6310  -17.2080 N.2   401  AMP401     -0.2095
     17  C5        -1.6500    7.6450  -17.6420 C.2   401  AMP401      0.2526
     18  C6        -2.9830    7.4810  -17.0490 C.2   401  AMP401      0.4393
     19  N6        -3.1210    7.2810  -15.7310 N.pl3 401  AMP401      0.2180
     20  N1        -4.0530    7.5100  -17.8650 N.2   401  AMP401      0.0021
     21  C2        -3.9720    7.7010  -19.2040 C.3   401  AMP401      0.5254
     22  N3        -2.7880    7.8700  -19.8080 N.2   401  AMP401     -0.0055
     23  C4        -1.6220    7.8350  -19.0990 C.2   401  AMP401      0.3518
@<TRIPOS>BOND
     1    12    11    1
     2    10     9    1
     3     7     9    1
     4     7     6    1
     5     7     8    1
     6     9    11    1
     7    11    13    1
     8     6     5    1
     9     8    13    1
    10    13    14    1
    11    22    21    1
    12    22    23    2
    13     4     1    2
    14     5     1    1
    15    14    23    1
    16    14    15    1
    17    21    20    1
    18    23    17    1
    19     2     1    1
    20     1     3    1
    21    15    16    1
    22    20    18    2
    23    17    16    2
    24    17    18    1
    25    18    19    1
