@<TRIPOS>MOLECULE
3g22_U_A_1.pdb
 21 22 0 0 0
SMALL
GASTEIGER

@<TRIPOS>ATOM
      1  OP3       26.0980   -1.4490    7.8160 O.3   229  U229       -0.1145
      2  P         25.0340   -2.4120    8.5060 P.3   229  U229        0.5327
      3  OP1       24.2600   -3.2320    7.5140 O.2   229  U229       -0.2224
      4  OP2       25.7610   -3.2890    9.4790 O.3   229  U229       -0.1145
      5  O5'       24.0840   -1.5090    9.4000 O.3   229  U229       -0.2675
      6  C5'       22.9120   -0.8710    8.8630 C.3   229  U229        0.1859
      7  C4'       22.2110   -0.1900   10.0210 C.3   229  U229        0.1801
      8  O4'       21.0820    0.5620    9.5240 O.3   229  U229       -0.3320
      9  C3'       21.5980   -1.0640   11.1100 C.3   229  U229        0.2158
     10  O3'       21.6200   -0.4090   12.3800 O.3   229  U229       -0.2175
     11  C2'       20.2020   -1.2940   10.6350 C.3   229  U229        0.2319
     12  O2'       19.3120   -1.7080   11.6700 O.3   229  U229       -0.2157
     13  C1'       19.8600    0.0320    9.9990 C.3   229  U229        0.2401
     14  N1        18.9050    0.0510    8.8760 N.am  229  U229       -0.1766
     15  C2        19.1370   -0.6870    7.6820 C.1   229  U229        0.2845
     16  O2        20.1050   -1.3940    7.5500 O.2   229  U229       -0.1918
     17  N3        18.1750   -0.5270    6.7020 N.2   229  U229       -0.2452
     18  C4        17.0170    0.2660    6.7640 C.1   229  U229        0.2182
     19  O4        16.2870    0.2720    5.8070 O.2   229  U229       -0.2085
     20  C5        16.8400    0.9920    8.0040 C.2   229  U229        0.1242
     21  C6        17.7270    0.8410    9.0070 C.2   229  U229        0.0929
@<TRIPOS>BOND
     1    19    18    2
     2    17    18    2
     3    17    15    2
     4    18    20    1
     5     3     2    2
     6    16    15    2
     7    15    14   am
     8     1     2    1
     9    20    21    2
    10     2     5    1
    11     2     4    1
    12     6     5    1
    13     6     7    1
    14    14    21    1
    15    14    13    1
    16     8    13    1
    17     8     7    1
    18    13    11    1
    19     7     9    1
    20    11     9    1
    21    11    12    1
    22     9    10    1
