@<TRIPOS>MOLECULE
3g24_UP6_A_1.pdb
 21 22 0 0 0
SMALL
GASTEIGER

@<TRIPOS>ATOM
      1  N1        18.9890    0.2880    8.7540 N.am  229  UP6229     -0.0968
      2  C2        17.9580    1.2370    8.7340 C.1   229  UP6229      0.3005
      3  N3        17.1570    1.1700    7.6070 N.2   229  UP6229     -0.2426
      4  C4        17.3140    0.2770    6.5490 C.1   229  UP6229      0.2380
      5  C5        18.4070   -0.6500    6.6470 C.2   229  UP6229      0.2253
      6  N6        19.1910   -0.6380    7.7150 N.2   229  UP6229     -0.1496
      7  O2        17.7800    2.0360    9.6060 O.2   229  UP6229     -0.1905
      8  O4        16.5320    0.3400    5.6370 O.2   229  UP6229     -0.2069
      9  C1'       19.9150    0.2150    9.8530 C.3   229  UP6229      0.2577
     10  C2'       20.1460   -1.1310   10.5270 C.3   229  UP6229      0.2334
     11  C3'       21.5510   -0.9620   11.0520 C.3   229  UP6229      0.2159
     12  C4'       22.2200   -0.1440    9.9450 C.3   229  UP6229      0.1801
     13  O2'       19.2020   -1.3480   11.5880 O.3   229  UP6229     -0.2157
     14  O3'       21.5550   -0.2060   12.2600 O.3   229  UP6229     -0.2175
     15  O4'       21.1810    0.6790    9.4080 O.3   229  UP6229     -0.3309
     16  C5'       22.8400   -0.9010    8.7840 C.3   229  UP6229      0.1859
     17  O5'       23.9180   -1.6350    9.3270 O.3   229  UP6229     -0.2675
     18  P         24.9520   -2.4590    8.3900 P.3   229  UP6229      0.5327
     19  O1P       24.2080   -3.2340    7.3320 O.2   229  UP6229     -0.2224
     20  O2P       25.6740   -3.3060    9.3900 O.3   229  UP6229     -0.1145
     21  O3P       25.9530   -1.3990    7.7800 O.3   229  UP6229     -0.1145
@<TRIPOS>BOND
     1     8     4    2
     2     4     5    1
     3     4     3    2
     4     5     6    2
     5    19    18    2
     6     3     2    2
     7     6     1    1
     8    21    18    1
     9    18    17    1
    10    18    20    1
    11     2     1   am
    12     2     7    2
    13     1     9    1
    14    16    17    1
    15    16    12    1
    16    15     9    1
    17    15    12    1
    18     9    10    1
    19    12    11    1
    20    10    11    1
    21    10    13    1
    22    11    14    1
