@<TRIPOS>MOLECULE
3g2f_ADP_A_1.pdb
 27 29 0 0 0
SMALL
GASTEIGER

@<TRIPOS>ATOM
      1  PB        83.8470   64.5790   27.4540 P.3   900  ADP900      0.5373
      2  O1B       84.9000   65.6580   27.3190 O.3   900  ADP900     -0.1143
      3  O2B       84.4890   63.2130   27.6400 O.3   900  ADP900     -0.1143
      4  O3B       82.7700   64.7000   26.3980 O.2   900  ADP900     -0.2221
      5  PA        82.1000   63.9010   29.6750 P.3   900  ADP900      0.2231
      6  O1A       80.7250   64.5100   29.6760 O.3   900  ADP900     -0.4370
      7  O2A       82.2200   62.4420   29.2890 O.2   900  ADP900     -0.5169
      8  O3A       83.1070   64.8670   28.8610 O.3   900  ADP900     -0.2261
      9  O5'       82.6750   64.0090   31.1760 O.3   900  ADP900     -0.3111
     10  C5'       84.0500   63.7130   31.4180 C.3   900  ADP900      0.1813
     11  C4'       84.1580   63.0260   32.7660 C.3   900  ADP900      0.1821
     12  O4'       83.6380   63.8600   33.8150 O.3   900  ADP900     -0.3135
     13  C3'       83.3270   61.7390   32.8220 C.3   900  ADP900      0.2184
     14  O3'       84.0980   60.6660   32.3080 O.3   900  ADP900     -0.2174
     15  C2'       83.0180   61.6120   34.3040 C.3   900  ADP900      0.2570
     16  O2'       84.1270   61.0050   34.9800 O.3   900  ADP900     -0.2130
     17  C1'       82.9110   63.0740   34.7670 C.3   900  ADP900      0.3186
     18  N9        81.5040   63.5500   34.7480 N.pl3 900  ADP900     -0.1439
     19  C8        80.8440   64.0050   33.6480 C.3   900  ADP900      0.3377
     20  N7        79.5660   64.3820   33.9850 N.2   900  ADP900     -0.2095
     21  C5        79.4320   64.1870   35.3130 C.2   900  ADP900      0.2526
     22  C6        78.3520   64.3650   36.3050 C.2   900  ADP900      0.4393
     23  N6        77.1450   64.8640   35.9080 N.pl3 900  ADP900      0.2180
     24  N1        78.6070   64.0230   37.6120 N.2   900  ADP900      0.0021
     25  C2        79.7890   63.5260   37.9950 C.3   900  ADP900      0.5254
     26  N3        80.7960   63.3560   37.1200 N.2   900  ADP900     -0.0055
     27  C4        80.6880   63.6420   35.8040 C.2   900  ADP900      0.3518
@<TRIPOS>BOND
     1     4     1    2
     2     2     1    1
     3     1     3    1
     4     1     8    1
     5     8     5    1
     6     7     5    2
     7     5     6    1
     8     5     9    1
     9     9    10    1
    10    10    11    1
    11    14    13    1
    12    11    13    1
    13    11    12    1
    14    13    15    1
    15    19    20    1
    16    19    18    1
    17    12    17    1
    18    20    21    2
    19    15    17    1
    20    15    16    1
    21    18    17    1
    22    18    27    1
    23    21    27    1
    24    21    22    1
    25    27    26    2
    26    23    22    1
    27    22    24    2
    28    26    25    1
    29    24    25    1
