@<TRIPOS>MOLECULE
3g2h_IMP_A_1.pdb
 23 25 0 0 0
SMALL
GASTEIGER

@<TRIPOS>ATOM
      1  P         30.6720    2.4940   50.9530 P.3   930  IMP930      0.5327
      2  O1P       30.2840    2.9230   49.5580 O.2   930  IMP930     -0.2224
      3  O2P       30.5390    3.6710   51.8910 O.3   930  IMP930     -0.1145
      4  O3P       32.0950    1.9860   50.9570 O.3   930  IMP930     -0.1145
      5  O5'       29.6940    1.2970   51.4090 O.3   930  IMP930     -0.2675
      6  C5'       28.3070    1.5130   51.5670 C.3   930  IMP930      0.1860
      7  C4'       27.5190    0.2110   51.4210 C.3   930  IMP930      0.1823
      8  O4'       28.3620   -0.9180   51.2280 O.3   930  IMP930     -0.3135
      9  C3'       26.6750   -0.0610   52.6570 C.3   930  IMP930      0.2184
     10  O3'       25.3440    0.3660   52.4640 O.3   930  IMP930     -0.2174
     11  C2'       26.7760   -1.5630   52.8610 C.3   930  IMP930      0.2570
     12  O2'       25.6440   -2.2340   52.3550 O.3   930  IMP930     -0.2130
     13  C1'       28.0200   -1.9890   52.0930 C.3   930  IMP930      0.3186
     14  N9        29.1200   -2.2520   53.0480 N.pl3 930  IMP930     -0.1435
     15  C8        30.2530   -1.4920   53.2120 C.3   930  IMP930      0.3382
     16  N7        31.0200   -2.0460   54.1780 N.2   930  IMP930     -0.2054
     17  C5        30.3970   -3.1500   54.6420 C.2   930  IMP930      0.2446
     18  C6        30.7420   -4.0780   55.6220 C.1   930  IMP930      0.1792
     19  O6        31.7490   -3.9020   56.3060 O.2   930  IMP930     -0.2203
     20  N1        29.8930   -5.1380   55.8940 N.2   930  IMP930     -0.1458
     21  C2        28.7060   -5.2700   55.1930 C.3   930  IMP930      0.4017
     22  N3        28.3710   -4.3430   54.2180 N.2   930  IMP930     -0.0334
     23  C4        29.2010   -3.2980   53.9430 C.2   930  IMP930      0.3528
@<TRIPOS>BOND
     1     2     1    2
     2     1     4    1
     3     1     5    1
     4     1     3    1
     5     8     7    1
     6     8    13    1
     7     5     6    1
     8     7     6    1
     9     7     9    1
    10    13    11    1
    11    13    14    1
    12    12    11    1
    13    10     9    1
    14     9    11    1
    15    14    15    1
    16    14    23    1
    17    15    16    1
    18    23    22    2
    19    23    17    1
    20    16    17    2
    21    22    21    1
    22    17    18    1
    23    21    20    1
    24    18    20    2
    25    18    19    2
