@<TRIPOS>MOLECULE
3g2h_KOT_A_1.pdb
 22 24 0 0 0
SMALL
GASTEIGER

@<TRIPOS>ATOM
      1  C14       37.3570   23.5390   30.4350 C.ar  998  KOT998      0.0013
      2  C13       38.5770   23.8620   31.0310 C.ar  998  KOT998      0.0000
      3  C12       38.6730   24.9760   31.8620 C.ar  998  KOT998      0.0000
      4  C11       37.5590   25.7710   32.1040 C.ar  998  KOT998      0.0000
      5  C10       36.3390   25.4520   31.5030 C.ar  998  KOT998      0.0013
      6  C9        36.2390   24.3330   30.6690 C.ar  998  KOT998      0.0166
      7  C8        35.0210   24.0160   30.0760 C.2   998  KOT998      0.0973
      8  C7        34.8170   23.3270   28.9590 C.3   998  KOT998      0.1451
      9  N3        33.8170   24.3370   30.5330 N.2   998  KOT998     -0.1496
     10  N2        32.9580   23.8970   29.7570 N.pl3 998  KOT998     -0.0607
     11  N1        33.4960   23.3110   28.8150 N.3   998  KOT998     -0.1355
     12  C1        32.6900   22.6760   27.7700 C.3   998  KOT998      0.2285
     13  O5        32.7500   21.2560   27.9940 O.3   998  KOT998     -0.3342
     14  C5        31.7020   20.6010   27.2510 C.3   998  KOT998      0.1825
     15  C6        31.6660   19.1380   27.6850 C.3   998  KOT998      0.2142
     16  O6        32.7720   18.4660   27.0880 O.3   998  KOT998     -0.2176
     17  C4        31.9110   20.7800   25.7330 C.3   998  KOT998      0.2143
     18  O4        30.7450   20.3190   25.0550 O.3   998  KOT998     -0.2176
     19  C3        32.1080   22.2630   25.3770 C.3   998  KOT998      0.2187
     20  O3        32.5420   22.3870   24.0260 O.3   998  KOT998     -0.2174
     21  C2        33.1230   22.9260   26.3190 C.3   998  KOT998      0.2288
     22  O2        33.1770   24.3240   26.0630 O.3   998  KOT998     -0.2161
@<TRIPOS>BOND
     1    20    19    1
     2    18    17    1
     3    19    17    1
     4    19    21    1
     5    17    14    1
     6    22    21    1
     7    21    12    1
     8    16    15    1
     9    14    15    1
    10    14    13    1
    11    12    13    1
    12    12    11    1
    13    11     8    1
    14    11    10    1
    15     8     7    1
    16    10     9    1
    17     7     9    2
    18     7     6    1
    19     1     6   ar
    20     1     2   ar
    21     6     5   ar
    22     2     3   ar
    23     5     4   ar
    24     3     4   ar
