@<TRIPOS>MOLECULE
3g2i_RUG_A_1.pdb
 18 19 0 0 0
SMALL
GASTEIGER

@<TRIPOS>ATOM
      1  O2        33.7250   24.4130   25.9160 O.3   998  RUG998     -0.2161
      2  C2        33.5290   23.0250   26.2030 C.3   998  RUG998      0.2288
      3  C3        32.4050   22.4270   25.3340 C.3   998  RUG998      0.2187
      4  O3        32.7480   22.4900   23.9510 O.3   998  RUG998     -0.2174
      5  C4        32.1730   20.9630   25.7180 C.3   998  RUG998      0.2143
      6  O4        31.0180   20.4990   25.0410 O.3   998  RUG998     -0.2176
      7  C5        31.9770   20.8110   27.2380 C.3   998  RUG998      0.1825
      8  C6        31.8230   19.3540   27.6700 C.3   998  RUG998      0.2142
      9  O6        32.8840   18.5750   27.1120 O.3   998  RUG998     -0.2176
     10  O5        33.1260   21.3710   27.9090 O.3   998  RUG998     -0.3342
     11  C1        33.2030   22.8100   27.6970 C.3   998  RUG998      0.2285
     12  N1        34.2470   23.3150   28.6080 N.3   998  RUG998     -0.1357
     13  C7        35.5700   23.2160   28.4750 C.3   998  RUG998      0.1434
     14  N2        33.9720   23.8850   29.6710 N.pl3 998  RUG998     -0.0609
     15  N3        35.0100   24.2020   30.2690 N.2   998  RUG998     -0.1513
     16  C8        36.0620   23.8000   29.5550 C.2   998  RUG998      0.1080
     17  C9        37.5380   23.9790   29.9050 C.3   998  RUG998      0.2262
     18  O9        37.6890   24.1030   31.3210 O.3   998  RUG998     -0.2137
@<TRIPOS>BOND
     1     4     3    1
     2     6     5    1
     3     3     5    1
     4     3     2    1
     5     5     7    1
     6     1     2    1
     7     2    11    1
     8     9     8    1
     9     7     8    1
    10     7    10    1
    11    11    10    1
    12    11    12    1
    13    13    12    1
    14    13    16    1
    15    12    14    1
    16    16    17    1
    17    16    15    2
    18    14    15    1
    19    17    18    1
