@<TRIPOS>MOLECULE
3g2j_9GP_A_1.pdb
 16 16 0 0 0
SMALL
GASTEIGER

@<TRIPOS>ATOM
      1  O2        33.7500   24.3170   25.9060 O.3   998  9GP998     -0.2157
      2  C2        33.5630   22.9150   26.1300 C.3   998  9GP998      0.2326
      3  C3        32.3590   22.3710   25.3360 C.3   998  9GP998      0.2190
      4  O3        32.6140   22.4670   23.9310 O.3   998  9GP998     -0.2174
      5  C4        32.1020   20.9050   25.7120 C.3   998  9GP998      0.2144
      6  O4        30.9300   20.4570   25.0500 O.3   998  9GP998     -0.2176
      7  C5        31.9480   20.7380   27.2380 C.3   998  9GP998      0.1828
      8  C6        31.7800   19.2650   27.6590 C.3   998  9GP998      0.2142
      9  O6        32.8670   18.4820   27.1540 O.3   998  9GP998     -0.2176
     10  O5        33.1320   21.2190   27.9010 O.3   998  9GP998     -0.3315
     11  C1        33.4070   22.6320   27.6370 C.3   998  9GP998      0.2447
     12  N1        34.6710   23.0320   28.3120 N.am  998  9GP998     -0.1729
     13  C7        34.6110   23.6210   29.5040 C.2   998  9GP998      0.2771
     14  O7        33.5600   23.8510   30.0940 O.2   998  9GP998     -0.2704
     15  C9        35.9540   24.0120   30.1240 C.3   998  9GP998      0.2681
     16  O9        37.0350   23.2770   29.5550 O.3   998  9GP998     -0.2098
@<TRIPOS>BOND
     1     4     3    1
     2     6     5    1
     3     3     5    1
     4     3     2    1
     5     5     7    1
     6     1     2    1
     7     2    11    1
     8     9     8    1
     9     7     8    1
    10     7    10    1
    11    11    10    1
    12    11    12    1
    13    12    13   am
    14    13    14    2
    15    13    15    1
    16    16    15    1
