@<TRIPOS>MOLECULE
3g2k_SKY_A_1.pdb
 26 29 0 0 0
SMALL
GASTEIGER

@<TRIPOS>ATOM
      1  C10       36.3060   25.3510   32.4860 C.ar  998  SKY998      0.0013
      2  C11       37.4310   25.7570   33.2120 C.ar  998  SKY998      0.0000
      3  C12       37.2850   26.3610   34.4670 C.ar  998  SKY998      0.0000
      4  C13       38.4180   26.7640   35.1850 C.ar  998  SKY998      0.0000
      5  C14       39.6960   26.5690   34.6520 C.ar  998  SKY998      0.0000
      6  C15       39.8400   25.9660   33.3990 C.ar  998  SKY998      0.0000
      7  C16       38.7100   25.5580   32.6800 C.ar  998  SKY998      0.0000
      8  C17       38.8520   24.9570   31.4270 C.ar  998  SKY998      0.0000
      9  C18       37.7260   24.5510   30.7050 C.ar  998  SKY998      0.0013
     10  C9        36.4430   24.7460   31.2280 C.ar  998  SKY998      0.0166
     11  C8        35.3000   24.3490   30.5180 C.2   998  SKY998      0.0973
     12  C7        35.2110   23.6790   29.3610 C.3   998  SKY998      0.1451
     13  N3        34.0380   24.5740   30.8910 N.2   998  SKY998     -0.1496
     14  N2        33.2660   24.1010   30.0520 N.pl3 998  SKY998     -0.0607
     15  N1        33.8990   23.5740   29.1300 N.3   998  SKY998     -0.1355
     16  C1        33.1660   22.9230   28.0190 C.3   998  SKY998      0.2285
     17  O5        33.2140   21.4890   28.2640 O.3   998  SKY998     -0.3342
     18  C5        32.1550   20.8410   27.5140 C.3   998  SKY998      0.1825
     19  C6        32.1120   19.3730   27.9560 C.3   998  SKY998      0.2142
     20  O6        33.2760   18.6840   27.4800 O.3   998  SKY998     -0.2176
     21  C4        32.3680   21.0090   25.9820 C.3   998  SKY998      0.2143
     22  O4        31.2010   20.5580   25.2980 O.3   998  SKY998     -0.2176
     23  C3        32.6630   22.4740   25.5850 C.3   998  SKY998      0.2187
     24  O3        33.1710   22.5200   24.2430 O.3   998  SKY998     -0.2174
     25  C2        33.6580   23.1290   26.5730 C.3   998  SKY998      0.2288
     26  O2        33.8240   24.5240   26.3010 O.3   998  SKY998     -0.2161
@<TRIPOS>BOND
     1    24    23    1
     2    22    21    1
     3    23    21    1
     4    23    25    1
     5    21    18    1
     6    26    25    1
     7    25    16    1
     8    20    19    1
     9    18    19    1
    10    18    17    1
    11    16    17    1
    12    16    15    1
    13    15    12    1
    14    15    14    1
    15    12    11    1
    16    14    13    1
    17    11    13    2
    18    11    10    1
    19     9    10   ar
    20     9     8   ar
    21    10     1   ar
    22     8     7   ar
    23     1     2   ar
    24     7     2   ar
    25     7     6   ar
    26     2     3   ar
    27     6     5   ar
    28     3     4   ar
    29     5     4   ar
