@<TRIPOS>MOLECULE
3g2l_LEW_A_1.pdb
 26 29 0 0 0
SMALL
GASTEIGER

@<TRIPOS>ATOM
      1  C18       36.6650   26.6870   29.7240 C.ar  998  LEW998      0.0012
      2  C17       36.2660   26.8680   28.3820 C.ar  998  LEW998      0.0000
      3  C16       36.8380   27.8690   27.6020 C.ar  998  LEW998      0.0000
      4  C15       37.8180   28.7030   28.1550 C.ar  998  LEW998      0.0000
      5  C14       38.2140   28.5330   29.4870 C.ar  998  LEW998      0.0000
      6  C13       37.6490   27.5240   30.2730 C.ar  998  LEW998      0.0000
      7  C12       38.0570   27.3520   31.6030 C.ar  998  LEW998      0.0000
      8  C11       37.4850   26.3430   32.3930 C.ar  998  LEW998      0.0000
      9  C10       36.5040   25.5040   31.8480 C.ar  998  LEW998      0.0013
     10  C9        36.1130   25.6550   30.5120 C.ar  998  LEW998      0.0166
     11  C8        35.1040   24.8600   29.9690 C.2   998  LEW998      0.0973
     12  C7        35.0550   24.2120   28.8100 C.3   998  LEW998      0.1451
     13  N3        33.9190   24.6910   30.5380 N.2   998  LEW998     -0.1496
     14  N2        33.2200   23.9890   29.8100 N.pl3 998  LEW998     -0.0607
     15  N1        33.8360   23.6800   28.7890 N.3   998  LEW998     -0.1355
     16  C1        33.1580   22.8470   27.7720 C.3   998  LEW998      0.2285
     17  O5        33.2050   21.4420   28.0700 O.3   998  LEW998     -0.3342
     18  C5        32.1860   20.7470   27.3050 C.3   998  LEW998      0.1825
     19  C6        32.2250   19.2860   27.7560 C.3   998  LEW998      0.2142
     20  O6        33.3910   18.6200   27.2360 O.3   998  LEW998     -0.2176
     21  C4        32.3840   20.9300   25.7740 C.3   998  LEW998      0.2143
     22  O4        31.2290   20.4800   25.0810 O.3   998  LEW998     -0.2176
     23  C3        32.6370   22.4020   25.3860 C.3   998  LEW998      0.2187
     24  O3        33.0990   22.4970   24.0380 O.3   998  LEW998     -0.2174
     25  C2        33.6480   23.0390   26.3300 C.3   998  LEW998      0.2288
     26  O2        33.8170   24.4340   26.0240 O.3   998  LEW998     -0.2161
@<TRIPOS>BOND
     1    24    23    1
     2    22    21    1
     3    23    21    1
     4    23    25    1
     5    21    18    1
     6    26    25    1
     7    25    16    1
     8    20    19    1
     9    18    19    1
    10    18    17    1
    11     3     4   ar
    12     3     2   ar
    13    16    17    1
    14    16    15    1
    15     4     5   ar
    16     2     1   ar
    17    15    12    1
    18    15    14    1
    19    12    11    1
    20     5     6   ar
    21     1     6   ar
    22     1    10   ar
    23    14    13    1
    24    11    10    1
    25    11    13    2
    26     6     7   ar
    27    10     9   ar
    28     7     8   ar
    29     9     8   ar
