@<TRIPOS>MOLECULE
3g2n_OAK_A_1.pdb
 20 21 0 0 0
SMALL
GASTEIGER

@<TRIPOS>ATOM
      1  C9        37.1580   23.4870   30.4910 C.ar  998  OAK998      0.0046
      2  C10       38.3350   23.8670   31.1330 C.ar  998  OAK998      0.0001
      3  C11       38.4750   25.1600   31.6300 C.ar  998  OAK998      0.0000
      4  C12       37.4290   26.0740   31.4840 C.ar  998  OAK998      0.0001
      5  C13       36.2470   25.6910   30.8390 C.ar  998  OAK998      0.0046
      6  C8        36.1140   24.3940   30.3420 C.ar  998  OAK998      0.0551
      7  C7        34.8170   23.9710   29.6420 C.2   998  OAK998      0.2669
      8  O7        33.7260   24.2890   30.1100 O.2   998  OAK998     -0.2683
      9  N1        34.9690   23.2500   28.5340 N.am  998  OAK998     -0.1713
     10  C1        33.7690   22.7880   27.7880 C.3   998  OAK998      0.2449
     11  O5        33.5440   21.3610   28.0580 O.3   998  OAK998     -0.3315
     12  C5        32.3720   20.8560   27.4120 C.3   998  OAK998      0.1828
     13  C6        32.2320   19.3880   27.8560 C.3   998  OAK998      0.2142
     14  O6        33.3160   18.6190   27.3300 O.3   998  OAK998     -0.2176
     15  C4        32.5250   21.0280   25.8800 C.3   998  OAK998      0.2144
     16  O4        31.3420   20.5750   25.2380 O.3   998  OAK998     -0.2176
     17  C3        32.7830   22.4940   25.4940 C.3   998  OAK998      0.2190
     18  O3        33.0530   22.5840   24.0950 O.3   998  OAK998     -0.2174
     19  C2        33.9700   23.0640   26.2880 C.3   998  OAK998      0.2326
     20  O2        34.1230   24.4740   26.0520 O.3   998  OAK998     -0.2157
@<TRIPOS>BOND
     1    18    17    1
     2    16    15    1
     3    17    15    1
     4    17    19    1
     5    15    12    1
     6    20    19    1
     7    19    10    1
     8    14    13    1
     9    12    13    1
    10    12    11    1
    11    10    11    1
    12    10     9    1
    13     9     7   am
    14     7     8    2
    15     7     6    1
    16     6     1   ar
    17     6     5   ar
    18     1     2   ar
    19     5     4   ar
    20     2     3   ar
    21     4     3   ar
