@<TRIPOS>MOLECULE
3g2o_SAM_A_1.pdb
 27 29 0 0 0
SMALL
GASTEIGER

@<TRIPOS>ATOM
      1  N         25.5200    2.1810   30.9670 N.3   500  SAM500     -0.1208
      2  CA        26.4340    1.2800   30.1920 C.3   500  SAM500      0.1952
      3  C         27.0590    2.0300   29.0150 C.2   500  SAM500      0.3819
      4  O         26.7030    3.1850   28.7180 O.co2 500  SAM500     -0.2441
      5  OXT       27.9360    1.4840   28.3330 O.co2 500  SAM500     -0.2441
      6  CB        25.7530   -0.0170   29.7280 C.3   500  SAM500      0.0414
      7  CG        24.4230    0.0870   28.9700 C.3   500  SAM500      0.0503
      8  SD        24.0270   -1.4260   28.0430 S.3   500  SAM500     -0.1761
      9  CE        23.1610   -0.8180   26.5750 C.3   500  SAM500      0.0590
     10  C5'       22.7600   -2.3390   28.9540 C.3   500  SAM500      0.0806
     11  C4'       23.2710   -2.9180   30.2830 C.3   500  SAM500      0.1622
     12  O4'       22.1830   -2.9460   31.1640 O.3   500  SAM500     -0.3153
     13  C3'       23.8200   -4.3440   30.2630 C.3   500  SAM500      0.2168
     14  O3'       24.9640   -4.3600   31.0850 O.3   500  SAM500     -0.2175
     15  C2'       22.7440   -5.2070   30.9110 C.3   500  SAM500      0.2569
     16  O2'       23.2420   -6.3290   31.6290 O.3   500  SAM500     -0.2130
     17  C1'       22.1640   -4.1740   31.8570 C.3   500  SAM500      0.3185
     18  N9        20.7780   -4.4040   32.2720 N.pl3 500  SAM500     -0.1439
     19  C8        19.7460   -4.8920   31.5200 C.3   500  SAM500      0.3377
     20  N7        18.6400   -4.9100   32.2950 N.2   500  SAM500     -0.2095
     21  C5        18.9690   -4.4450   33.5220 C.2   500  SAM500      0.2526
     22  C6        18.2130   -4.2560   34.6680 C.2   500  SAM500      0.4393
     23  N6        16.8970   -4.5810   34.6780 N.pl3 500  SAM500      0.2180
     24  N1        18.8610   -3.7350   35.7770 N.2   500  SAM500      0.0021
     25  C2        20.2130   -3.4080   35.7770 C.3   500  SAM500      0.5254
     26  N3        20.9640   -3.6020   34.6310 N.2   500  SAM500     -0.0055
     27  C4        20.3260   -4.1050   33.5210 C.2   500  SAM500      0.3518
@<TRIPOS>BOND
     1     9     8    1
     2     8    10    1
     3     8     7    1
     4     5     3   ar
     5     4     3   ar
     6    10    11    1
     7     7     6    1
     8     3     2    1
     9     6     2    1
    10     2     1    1
    11    13    11    1
    12    13    15    1
    13    13    14    1
    14    11    12    1
    15    15    16    1
    16    15    17    1
    17    12    17    1
    18    19    18    1
    19    19    20    1
    20    17    18    1
    21    18    27    1
    22    20    21    2
    23    27    21    1
    24    27    26    2
    25    21    22    1
    26    26    25    1
    27    22    23    1
    28    22    24    2
    29    24    25    1
