@<TRIPOS>MOLECULE
3g2p_SAH_A_1.pdb
 26 28 0 0 0
SMALL
GASTEIGER

@<TRIPOS>ATOM
      1  N         25.4550   60.6990   31.1140 N.3   500  SAH500     -0.1208
      2  CA        26.3140   59.7850   30.2980 C.3   500  SAH500      0.1952
      3  CB        25.6390   58.4720   29.8950 C.3   500  SAH500      0.0422
      4  CG        24.2590   58.5860   29.2620 C.3   500  SAH500      0.0597
      5  SD        23.8430   57.1190   28.2830 S.3   500  SAH500     -0.1375
      6  C         26.8350   60.5030   29.0560 C.2   500  SAH500      0.3819
      7  O         26.6070   61.7200   28.8930 O.co2 500  SAH500     -0.2441
      8  OXT       27.4890   59.8630   28.2060 O.co2 500  SAH500     -0.2441
      9  C5'       22.4520   56.4890   29.2570 C.3   500  SAH500      0.0899
     10  C4'       22.8430   55.8210   30.5630 C.3   500  SAH500      0.1630
     11  O4'       21.6870   55.7120   31.3530 O.3   500  SAH500     -0.3153
     12  C3'       23.3370   54.4050   30.3620 C.3   500  SAH500      0.2168
     13  O3'       24.5900   54.3530   30.9820 O.3   500  SAH500     -0.2175
     14  C2'       22.3290   53.4910   31.0600 C.3   500  SAH500      0.2569
     15  O2'       22.9160   52.4160   31.7640 O.3   500  SAH500     -0.2130
     16  C1'       21.6490   54.4510   32.0120 C.3   500  SAH500      0.3185
     17  N9        20.2500   54.1520   32.3670 N.pl3 500  SAH500     -0.1439
     18  C8        19.2540   53.7180   31.5480 C.3   500  SAH500      0.3377
     19  N7        18.1030   53.6010   32.2520 N.2   500  SAH500     -0.2095
     20  C5        18.3520   53.9770   33.5190 C.2   500  SAH500      0.2526
     21  C6        17.5460   54.0630   34.6510 C.2   500  SAH500      0.4393
     22  N6        16.2600   53.7200   34.5710 N.pl3 500  SAH500      0.2180
     23  N1        18.0990   54.4970   35.8510 N.2   500  SAH500      0.0021
     24  C2        19.4300   54.8650   35.9370 C.3   500  SAH500      0.5254
     25  N3        20.2170   54.7780   34.8030 N.2   500  SAH500     -0.0055
     26  C4        19.6980   54.3360   33.6130 C.2   500  SAH500      0.3518
@<TRIPOS>BOND
     1     8     6   ar
     2     5     9    1
     3     5     4    1
     4     7     6   ar
     5     6     2    1
     6     9    10    1
     7     4     3    1
     8     3     2    1
     9     2     1    1
    10    12    10    1
    11    12    13    1
    12    12    14    1
    13    10    11    1
    14    14    15    1
    15    14    16    1
    16    11    16    1
    17    18    19    1
    18    18    17    1
    19    16    17    1
    20    19    20    2
    21    17    26    1
    22    20    26    1
    23    20    21    1
    24    26    25    2
    25    22    21    1
    26    21    23    2
    27    25    24    1
    28    23    24    1
