@<TRIPOS>MOLECULE
3g2q_SFG_A_1.pdb
 27 29 0 0 0
SMALL
GASTEIGER

@<TRIPOS>ATOM
      1  N        -26.5660    1.7670  -30.6730 N.3   400  SFG400     -0.1208
      2  CA       -26.7900    0.5390  -29.8630 C.3   400  SFG400      0.1944
      3  C        -27.6010    0.8870  -28.6530 C.2   400  SFG400      0.3819
      4  O        -27.5670    2.0320  -28.1820 O.co2 400  SFG400     -0.2441
      5  OXT      -28.3140    0.0340  -28.1090 O.co2 400  SFG400     -0.2441
      6  CB       -25.4510   -0.0770  -29.4540 C.3   400  SFG400      0.0321
      7  CG       -25.5970   -1.4470  -28.7860 C.3   400  SFG400      0.0212
      8  CD       -24.3740   -1.9560  -27.9960 C.3   400  SFG400      0.0944
      9  NE       -24.0750   -1.0520  -26.8950 N.3   400  SFG400     -0.1328
     10  C5'      -23.1050   -2.1990  -28.8410 C.3   400  SFG400      0.0514
     11  C4'      -23.3090   -2.9440  -30.1710 C.3   400  SFG400      0.1537
     12  O4'      -22.0980   -3.0500  -30.9170 O.3   400  SFG400     -0.3161
     13  C3'      -23.8610   -4.3650  -30.0920 C.3   400  SFG400      0.2159
     14  O3'      -25.0450   -4.3100  -30.8750 O.3   400  SFG400     -0.2175
     15  C2'      -22.8300   -5.2590  -30.7690 C.3   400  SFG400      0.2569
     16  O2'      -23.3910   -6.3470  -31.5200 O.3   400  SFG400     -0.2130
     17  C1'      -22.1790   -4.2490  -31.7020 C.3   400  SFG400      0.3185
     18  N9       -20.8020   -4.5210  -32.1510 N.pl3 400  SFG400     -0.1439
     19  C8       -19.7880   -4.9860  -31.4080 C.3   400  SFG400      0.3377
     20  N7       -18.6370   -5.0440  -32.1290 N.2   400  SFG400     -0.2095
     21  C5       -18.9300   -4.5950  -33.3630 C.2   400  SFG400      0.2526
     22  C6       -18.1710   -4.3890  -34.6140 C.2   400  SFG400      0.4393
     23  N6       -16.8330   -4.6950  -34.6510 N.pl3 400  SFG400      0.2180
     24  N1       -18.8670   -3.8650  -35.6670 N.2   400  SFG400      0.0021
     25  C2       -20.1790   -3.5400  -35.6260 C.3   400  SFG400      0.5254
     26  N3       -20.9310   -3.7090  -34.5120 N.2   400  SFG400     -0.0055
     27  C4       -20.3640   -4.2200  -33.3750 C.2   400  SFG400      0.3518
@<TRIPOS>BOND
     1    24    25    1
     2    24    22    2
     3    25    26    1
     4    23    22    1
     5    22    21    1
     6    26    27    2
     7    27    21    1
     8    27    18    1
     9    21    20    2
    10    18    17    1
    11    18    19    1
    12    20    19    1
    13    17    12    1
    14    17    15    1
    15    16    15    1
    16    12    11    1
    17    14    13    1
    18    15    13    1
    19     1     2    1
    20    11    13    1
    21    11    10    1
    22     2     6    1
    23     2     3    1
    24     6     7    1
    25    10     8    1
    26     7     8    1
    27     3     4   ar
    28     3     5   ar
    29     8     9    1
