@<TRIPOS>MOLECULE
3g2x_TYD_A_1.pdb
 25 26 0 0 0
SMALL
GASTEIGER

@<TRIPOS>ATOM
      1  PA        35.3290   32.5920   68.7410 P.3   201  TYD201      0.2231
      2  O1A       33.9120   32.7100   69.2400 O.2   201  TYD201     -0.5169
      3  O2A       36.5310   32.8540   69.6290 O.3   201  TYD201     -0.4370
      4  O3A       35.3940   33.5350   67.4340 O.3   201  TYD201     -0.2261
      5  PB        36.5070   34.6630   67.1570 P.3   201  TYD201      0.5373
      6  O1B       37.4600   33.9230   66.2640 O.2   201  TYD201     -0.2221
      7  O2B       37.1000   35.1040   68.4600 O.3   201  TYD201     -0.1143
      8  O3B       35.6790   35.7190   66.5070 O.3   201  TYD201     -0.1143
      9  O5'       35.5010   31.1590   68.0620 O.3   201  TYD201     -0.3111
     10  C5'       36.8300   30.6510   67.9540 C.3   201  TYD201      0.1812
     11  C4'       37.0400   30.0370   66.5720 C.3   201  TYD201      0.1773
     12  O4'       36.3820   28.7690   66.5180 O.3   201  TYD201     -0.3339
     13  C3'       36.4240   30.8810   65.4630 C.3   201  TYD201      0.1857
     14  O3'       37.3900   31.7970   64.9500 O.3   201  TYD201     -0.2203
     15  C2'       35.9400   29.8660   64.4390 C.3   201  TYD201      0.0874
     16  C1'       35.6870   28.6100   65.2790 C.3   201  TYD201      0.2090
     17  N1        34.2410   28.4300   65.4910 N.am  201  TYD201     -0.1794
     18  C2        33.5620   27.4260   64.7630 C.1   201  TYD201      0.2844
     19  O2        34.2180   26.7130   63.9670 O.2   201  TYD201     -0.1918
     20  N3        32.2390   27.2260   64.9020 N.2   201  TYD201     -0.2455
     21  C4        31.5190   27.9740   65.7420 C.1   201  TYD201      0.2134
     22  O4        30.2880   27.7640   65.8460 O.2   201  TYD201     -0.2088
     23  C5        32.2180   29.0370   66.5340 C.2   201  TYD201      0.0891
     24  C5M       31.4850   29.9310   67.5150 C.3   201  TYD201      0.0462
     25  C6        33.5880   29.2030   66.3640 C.2   201  TYD201      0.0877
@<TRIPOS>BOND
     1    19    18    2
     2    15    16    1
     3    15    13    1
     4    18    20    2
     5    18    17   am
     6    20    21    2
     7    14    13    1
     8    16    17    1
     9    16    12    1
    10    13    11    1
    11    17    25    1
    12    21    22    2
    13    21    23    1
    14     6     5    2
    15    25    23    2
    16     8     5    1
    17    12    11    1
    18    23    24    1
    19    11    10    1
    20     5     4    1
    21     5     7    1
    22     4     1    1
    23    10     9    1
    24     9     1    1
    25     1     2    2
    26     1     3    1
