@<TRIPOS>MOLECULE
3g2y_GF4_A_1.pdb
 14 15 0 0 0
SMALL
GASTEIGER

@<TRIPOS>ATOM
      1  O11       -4.7180   51.2260   12.9010 O.2     1  GF41       -0.2717
      2  C3        -5.0650   52.3720   12.4270 C.2     1  GF41        0.2617
      3  C4        -6.4500   52.7950   12.1480 C.3     1  GF41        0.1168
      4  C12       -7.7130   51.9910   12.3450 C.3     1  GF41        0.0149
      5  C13       -8.6210   52.7230   13.3050 C.3     1  GF41        0.0009
      6  C5        -6.2620   54.1980   11.6290 C.2     1  GF41        0.0641
      7  C14       -7.3330   55.1550   11.1690 C.3     1  GF41        0.0494
      8  N1        -4.9390   54.4860   11.6350 N.2     1  GF41       -0.1706
      9  N2        -4.2550   53.3720   12.1380 N.am    1  GF41       -0.0950
     10  C6        -2.9250   53.3350   12.2320 C.1     1  GF41        0.1622
     11  N10       -2.1770   53.5420   11.1530 N.2     1  GF41       -0.0547
     12  N9        -0.8590   53.4260   11.6160 N.2     1  GF41       -0.0117
     13  N8        -0.9140   53.1440   12.9910 N.2     1  GF41       -0.0117
     14  N7        -2.2620   53.0950   13.3680 N.2     1  GF41       -0.0547
@<TRIPOS>BOND
     1    11    12    1
     2    11    10    2
     3     7     6    1
     4    12    13    2
     5     6     8    2
     6     6     3    1
     7     8     9    1
     8     9    10    1
     9     9     2   am
    10     3     4    1
    11     3     2    1
    12    10    14    2
    13     4     5    1
    14     2     1    2
    15    13    14    1
