@<TRIPOS>MOLECULE
3g2z_GZ2_A_1.pdb
 13 14 0 0 0
SMALL
GASTEIGER

@<TRIPOS>ATOM
      1  O13       -6.2580   51.5760    8.7620 O.2     1  GZ21       -0.2913
      2  C11       -6.4170   51.8200    9.9490 C.2     1  GZ21        0.1741
      3  C12       -5.2890   52.3690   10.7330 C.2     1  GZ21        0.0504
      4  C7        -5.4420   52.7010   12.0280 C.2     1  GZ21        0.0623
      5  C8        -6.7740   52.5630   12.7320 C.3     1  GZ21        0.0445
      6  C9        -7.9760   52.4870   11.7940 C.3     1  GZ21        0.0142
      7  C10       -7.7570   51.5620   10.6070 C.3     1  GZ21        0.0696
      8  N6        -4.4610   53.1560   12.8200 N.pl3   1  GZ21       -0.1477
      9  C5        -3.1360   53.2840   12.5140 C.1     1  GZ21        0.1572
     10  N4        -2.6620   53.5610   11.2920 N.2     1  GZ21       -0.0550
     11  N3        -1.2670   53.5860   11.4610 N.2     1  GZ21       -0.0117
     12  N2        -0.9850   53.3350   12.8170 N.2     1  GZ21       -0.0117
     13  N1        -2.1990   53.1450   13.4760 N.2     1  GZ21       -0.0550
@<TRIPOS>BOND
     1     1     2    2
     2     2     7    1
     3     2     3    1
     4     7     6    1
     5     3     4    2
     6    10    11    1
     7    10     9    2
     8    11    12    2
     9     6     5    1
    10     4     5    1
    11     4     8    1
    12     9     8    1
    13     9    13    2
    14    12    13    1
