@<TRIPOS>MOLECULE
3g30_G30_A_1.pdb
 17 18 0 0 0
SMALL
GASTEIGER

@<TRIPOS>ATOM
      1  F11       29.0860   41.1310   96.9280 F       1  G301       -0.2041
      2  C11       28.2640   41.1230   95.8540 C.ar    1  G301        0.1416
      3  C12       28.8170   41.0060   94.5780 C.ar    1  G301        0.0320
      4  C13       28.0130   41.0020   93.4450 C.ar    1  G301        0.0333
      5  C14       26.6260   41.1070   93.5820 C.ar    1  G301        0.1555
      6  F14       25.8390   41.0910   92.4970 F       1  G301       -0.2028
      7  C10       26.8730   41.2340   96.0350 C.ar    1  G301        0.0485
      8  C9        26.0120   41.2360   94.9280 C.ar    1  G301        0.1029
      9  N5        24.6590   41.3230   94.9960 N.am    1  G301       -0.1769
     10  C4        23.9540   42.0920   95.8330 C.2     1  G301        0.2457
     11  O15       24.3470   42.3120   96.9770 O.2     1  G301       -0.2730
     12  C3        22.6670   42.7550   95.3370 C.3     1  G301        0.0898
     13  C1        21.5450   42.0450   94.5160 C.3     1  G301        0.1125
     14  C2        21.4750   42.1010   96.0400 C.3     1  G301        0.0214
     15  C6        21.6680   40.6060   94.0400 C.2     1  G301        0.3648
     16  O8        20.6420   39.8730   93.9640 O.co2   1  G301       -0.2457
     17  O7        22.7930   40.1930   93.6830 O.co2   1  G301       -0.2457
@<TRIPOS>BOND
     1     6     5    1
     2     4     5   ar
     3     4     3   ar
     4     5     8   ar
     5    17    15   ar
     6    16    15   ar
     7    15    13    1
     8    13    12    1
     9    13    14    1
    10     3     2   ar
    11     8     9    1
    12     8     7   ar
    13     9    10   am
    14    12    10    1
    15    12    14    1
    16    10    11    2
    17     2     7   ar
    18     2     1    1
