@<TRIPOS>MOLECULE
3g31_GF1_A_1.pdb
 17 19 0 0 0
SMALL
GASTEIGER

@<TRIPOS>ATOM
      1  O10       -3.1350   40.5370   23.9780 O.2     1  GF11       -0.2745
      2  C7        -1.9700   40.6110   24.3310 C.2     1  GF11        0.2317
      3  N8        -0.9010   40.0910   23.6990 N.am    1  GF11       -0.2207
      4  C12       -0.9380   39.3220   22.4440 C.3     1  GF11        0.1852
      5  C14       -1.7610   38.0560   22.5570 C.2     1  GF11        0.3829
      6  O16       -1.7910   37.4390   23.6600 O.co2   1  GF11       -0.2438
      7  O15       -2.3770   37.6620   21.5400 O.co2   1  GF11       -0.2438
      8  C13       -1.3810   40.1670   21.2420 C.3     1  GF11        0.0342
      9  C2        -1.5430   41.2920   25.6030 C.3     1  GF11        0.0857
     10  C3        -0.0250   41.0990   25.6300 C.3     1  GF11        0.0857
     11  C9         0.2410   40.3240   24.3680 C.2     1  GF11        0.2317
     12  O11        1.3630   39.9550   24.0370 O.2     1  GF11       -0.2745
     13  C1        -1.6770   42.8190   25.6340 C.3     1  GF11        0.0091
     14  C6        -1.2130   43.4770   24.3330 C.3     1  GF11        0.0005
     15  C5         0.3130   43.2860   24.3820 C.3     1  GF11        0.0005
     16  C17       -0.5190   43.2020   26.5410 C.3     1  GF11        0.0010
     17  C4         0.5300   42.5270   25.6850 C.3     1  GF11        0.0091
@<TRIPOS>BOND
     1     8     4    1
     2     7     5   ar
     3     4     5    1
     4     4     3    1
     5     5     6   ar
     6     3     2   am
     7     3    11   am
     8     1     2    2
     9    12    11    2
    10     2     9    1
    11    14    15    1
    12    14    13    1
    13    11    10    1
    14    15    17    1
    15     9    10    1
    16     9    13    1
    17    10    17    1
    18    13    16    1
    19    17    16    1
