@<TRIPOS>MOLECULE
3g32_3G3_A_1.pdb
 18 20 0 0 0
SMALL
GASTEIGER

@<TRIPOS>ATOM
      1  O18       -7.7350   53.9950   13.2500 O.2     1  3G31       -0.2695
      2  C12       -7.3260   53.0940   12.4250 C.2     1  3G31        0.2551
      3  C11       -7.9970   52.8120   11.2360 C.ar    1  3G31        0.0584
      4  C13       -9.1490   53.3180   10.6420 C.ar    1  3G31        0.0047
      5  C14       -9.5370   52.7800    9.4090 C.ar    1  3G31        0.0001
      6  C15       -8.7920   51.7610    8.7970 C.ar    1  3G31        0.0001
      7  C16       -7.6360   51.2570    9.4020 C.ar    1  3G31        0.0047
      8  C10       -7.2690   51.8090   10.6250 C.ar    1  3G31        0.0584
      9  N8        -6.2170   52.3620   12.6480 N.am    1  3G31       -0.2218
     10  C9        -6.1580   51.5730   11.5730 C.2     1  3G31        0.2551
     11  O17       -5.2330   50.7050   11.3780 O.2     1  3G31       -0.2695
     12  C7        -5.2910   52.4130   13.7780 C.3     1  3G31        0.1175
     13  C6        -4.5370   53.7330   13.7410 C.3     1  3G31        0.1249
     14  C5        -3.2710   53.5700   12.9400 C.1     1  3G31        0.0592
     15  N4        -2.0790   53.2470   13.4660 N.2     1  3G31       -0.0755
     16  N3        -1.1370   53.1710   12.4390 N.2     1  3G31       -0.0132
     17  N2        -1.7930   53.4770   11.2490 N.2     1  3G31       -0.0132
     18  N1        -3.1300   53.7070   11.6000 N.2     1  3G31       -0.0755
@<TRIPOS>BOND
     1     6     7   ar
     2     6     5   ar
     3     7     8   ar
     4     5     4   ar
     5     8     3   ar
     6     8    10    1
     7     4     3   ar
     8     3     2    1
     9    17    18    1
    10    17    16    2
    11    11    10    2
    12    10     9   am
    13    18    14    2
    14     2     9   am
    15     2     1    2
    16    16    15    1
    17     9    12    1
    18    14    15    2
    19    14    13    1
    20    13    12    1
