@<TRIPOS>MOLECULE
3g34_1CE_A_1.pdb
 20 23 0 0 0
SMALL
GASTEIGER

@<TRIPOS>ATOM
      1  O20       -3.9850   50.8840   10.0800 O.2     1  1CE1       -0.2698
      2  C12       -4.8740   51.6630   10.4960 C.2     1  1CE1        0.2525
      3  N7        -5.0820   51.8750   11.8110 N.am    1  1CE1       -0.2414
      4  C6        -4.2430   51.1950   12.7960 C.3     1  1CE1        0.1994
      5  C3        -2.9730   52.0030   12.8860 C.1     1  1CE1        0.0782
      6  N2        -2.9080   53.3450   13.0680 N.2     1  1CE1       -0.0739
      7  N4        -1.7230   51.5030   12.7840 N.2     1  1CE1       -0.0739
      8  N5        -0.8130   52.5620   12.9110 N.2     1  1CE1       -0.0132
      9  N1        -1.5610   53.7270   13.0920 N.2     1  1CE1       -0.0132
     10  C11       -5.7390   52.3790    9.5300 C.2     1  1CE1        0.0697
     11  C13       -5.8250   52.4150    8.0300 C.2     1  1CE1       -0.0279
     12  C16       -4.9810   51.6560    7.0340 C.3     1  1CE1        0.0231
     13  C17       -5.1190   52.3500    5.6720 C.3     1  1CE1        0.0044
     14  C18       -6.5720   52.6290    5.2530 C.3     1  1CE1        0.0015
     15  C19       -7.3040   53.6360    6.1480 C.3     1  1CE1        0.0153
     16  C14       -6.9020   53.3340    7.5660 C.3     1  1CE1        0.0717
     17  S15       -7.7650   54.1290    8.9190 S.3     1  1CE1       -0.0919
     18  C10       -6.7580   53.2840   10.1190 C.2     1  1CE1        0.1074
     19  N9        -6.8640   53.4140   11.4610 N.2     1  1CE1       -0.2417
     20  C8        -6.0350   52.7190   12.2620 C.3     1  1CE1        0.2236
@<TRIPOS>BOND
     1    14    13    1
     2    14    15    1
     3    13    12    1
     4    15    16    1
     5    12    11    1
     6    16    11    1
     7    16    17    1
     8    11    10    2
     9    17    18    1
    10    10    18    1
    11    10     2    1
    12     1     2    2
    13    18    19    2
    14     2     3   am
    15    19    20    1
    16     3    20    1
    17     3     4    1
    18     7     5    2
    19     7     8    1
    20     4     5    1
    21     5     6    2
    22     8     9    2
    23     6     9    1
