@<TRIPOS>MOLECULE
3g35_F13_A_1.pdb
 21 23 0 0 0
SMALL
GASTEIGER

@<TRIPOS>ATOM
      1  F21      -11.6260   59.7310   11.6930 F       1  F131       -0.2042
      2  C16      -10.8240   58.7840   11.1570 C.ar    1  F131        0.1403
      3  C15      -10.1490   57.9090   12.0020 C.ar    1  F131        0.0342
      4  C17      -10.6740   58.6690    9.7830 C.ar    1  F131        0.0296
      5  C18       -9.8450   57.6920    9.2360 C.ar    1  F131        0.0025
      6  C19       -9.1530   56.8250   10.0810 C.ar    1  F131        0.0047
      7  C14       -9.3120   56.9310   11.4670 C.ar    1  F131        0.0576
      8  C13       -8.5630   56.0080   12.3910 C.2     1  F131        0.2690
      9  O20       -8.9420   55.9010   13.5470 O.2     1  F131       -0.2680
     10  N12       -7.4940   55.3630   11.9080 N.am    1  F131       -0.1754
     11  C10       -6.6540   54.5780   12.6430 C.ar    1  F131        0.0743
     12  C9        -7.0880   53.8180   13.7370 C.ar    1  F131        0.0166
     13  C8        -6.1890   53.0380   14.4650 C.ar    1  F131        0.0020
     14  C7        -4.8450   52.9800   14.1120 C.ar    1  F131        0.0102
     15  C6        -4.4150   53.7270   13.0210 C.ar    1  F131        0.0672
     16  C11       -5.3040   54.5250   12.2970 C.ar    1  F131        0.0267
     17  C4        -2.9890   53.6790   12.6260 C.1     1  F131        0.0806
     18  N5        -2.5270   53.9570   11.3930 N.2     1  F131       -0.0711
     19  N1        -1.1490   53.7940   11.3940 N.2     1  F131       -0.0129
     20  N2        -0.7910   53.3980   12.6820 N.2     1  F131       -0.0129
     21  N3        -1.9640   53.3260   13.4290 N.2     1  F131       -0.0711
@<TRIPOS>BOND
     1     5     4   ar
     2     5     6   ar
     3     4     2   ar
     4     6     7   ar
     5     2     1    1
     6     2     3   ar
     7    18    19    1
     8    18    17    2
     9    19    20    2
    10     7     3   ar
    11     7     8    1
    12    10     8   am
    13    10    11    1
    14    16    11   ar
    15    16    15   ar
    16     8     9    2
    17    17    15    1
    18    17    21    2
    19    11    12   ar
    20    20    21    1
    21    15    14   ar
    22    12    13   ar
    23    14    13   ar
