@<TRIPOS>MOLECULE
3g37_ADP_O_1.pdb
 27 29 0 0 0
SMALL
GASTEIGER

@<TRIPOS>ATOM
      1  PB       121.4900  129.4030  266.3320 P.3   800  ADP800      0.5373
      2  O1B      120.5430  129.0080  267.4700 O.3   800  ADP800     -0.1143
      3  O2B      120.8270  129.7260  265.0630 O.2   800  ADP800     -0.2221
      4  O3B      122.3350  130.4670  267.0460 O.3   800  ADP800     -0.1143
      5  PA       122.2670  127.0210  265.9930 P.3   800  ADP800      0.2231
      6  O1A      122.3150  126.4890  267.3650 O.3   800  ADP800     -0.4370
      7  O2A      121.0680  126.6710  265.1810 O.2   800  ADP800     -0.5169
      8  O3A      122.6530  128.4360  265.9560 O.3   800  ADP800     -0.2261
      9  O5'      123.5050  126.3910  265.2830 O.3   800  ADP800     -0.3111
     10  C5'      124.2190  126.7170  264.0820 C.3   800  ADP800      0.1813
     11  C4'      125.6430  126.0830  264.0800 C.3   800  ADP800      0.1821
     12  O4'      125.5660  124.6210  264.0370 O.3   800  ADP800     -0.3135
     13  C3'      126.6400  126.4310  262.9370 C.3   800  ADP800      0.2184
     14  O3'      128.0010  126.5710  263.3890 O.3   800  ADP800     -0.2174
     15  C2'      126.4320  125.2380  262.0030 C.3   800  ADP800      0.2570
     16  O2'      127.4460  125.0620  261.0280 O.3   800  ADP800     -0.2130
     17  C1'      126.4100  124.1310  263.0100 C.3   800  ADP800      0.3186
     18  N9       125.9240  122.8590  262.4750 N.pl3 800  ADP800     -0.1439
     19  C8       124.6550  122.5570  262.0710 C.3   800  ADP800      0.3377
     20  N7       124.4790  121.3040  261.7110 N.2   800  ADP800     -0.2095
     21  C5       125.7220  120.7310  261.9590 C.2   800  ADP800      0.2526
     22  C6       126.1680  119.3880  262.0520 C.2   800  ADP800      0.4393
     23  N6       125.4120  118.3030  261.8330 N.pl3 800  ADP800      0.2180
     24  N1       127.4640  119.1590  262.3880 N.2   800  ADP800      0.0021
     25  C2       128.2240  120.2130  262.6560 C.3   800  ADP800      0.5254
     26  N3       127.9420  121.5190  262.5730 N.2   800  ADP800     -0.0055
     27  C4       126.6300  121.6940  262.3590 C.2   800  ADP800      0.3518
@<TRIPOS>BOND
     1    16    15    1
     2    20    21    2
     3    20    19    1
     4    23    22    1
     5    21    22    1
     6    21    27    1
     7    15    13    1
     8    15    17    1
     9    22    24    2
    10    19    18    1
    11    27    18    1
    12    27    26    2
    13    24    25    1
    14    18    17    1
    15    26    25    1
    16    13    14    1
    17    13    11    1
    18    17    12    1
    19    12    11    1
    20    11    10    1
    21    10     9    1
    22     3     1    2
    23     7     5    2
    24     9     5    1
    25     8     5    1
    26     8     1    1
    27     5     6    1
    28     1     4    1
    29     1     2    1
