@<TRIPOS>MOLECULE
3g3d_5FU_A_1.pdb
 22 23 0 0 0
SMALL
GASTEIGER

@<TRIPOS>ATOM
      1  F5        19.0340   10.6960   13.8010 F     3000  5FU3000    -0.1891
      2  C5        19.7410    9.5690   13.7700 C.2   3000  5FU3000     0.2499
      3  C4        19.6290    8.6660   12.6010 C.1   3000  5FU3000     0.2454
      4  O4        18.8580    8.9710   11.6430 O.2   3000  5FU3000    -0.2062
      5  N3        20.3360    7.5120   12.6310 N.2   3000  5FU3000    -0.2430
      6  C2        21.1520    7.2590   13.6860 C.1   3000  5FU3000     0.2846
      7  O2        21.7570    6.1720   13.6990 O.2   3000  5FU3000    -0.1918
      8  C6        20.5610    9.2380   14.8540 C.2   3000  5FU3000     0.1222
      9  N1        21.2500    8.0720   14.7610 N.am  3000  5FU3000    -0.1744
     10  C1'       22.2520    7.7280   15.7880 C.3   3000  5FU3000     0.2401
     11  O4'       23.4890    7.6440   15.0200 O.3   3000  5FU3000    -0.3319
     12  C2'       22.2540    6.5220   16.6990 C.3   3000  5FU3000     0.2319
     13  O2'       21.7600    7.0460   17.9300 O.3   3000  5FU3000    -0.2157
     14  C3'       23.7400    6.1680   16.7940 C.3   3000  5FU3000     0.2158
     15  O3'       24.4110    6.9280   17.8020 O.3   3000  5FU3000    -0.2175
     16  C4'       24.3660    6.6180   15.4840 C.3   3000  5FU3000     0.1801
     17  C5'       24.5140    5.4750   14.4630 C.3   3000  5FU3000     0.1859
     18  O5'       25.2900    4.4390   15.0640 O.3   3000  5FU3000    -0.2675
     19  P         25.6540    2.9870   14.4430 P.3   3000  5FU3000     0.5327
     20  O1P       26.2410    2.3620   15.6920 O.3   3000  5FU3000    -0.1145
     21  O2P       24.3670    2.3830   13.9960 O.3   3000  5FU3000    -0.1145
     22  O3P       26.7570    3.2500   13.4730 O.2   3000  5FU3000    -0.2224
@<TRIPOS>BOND
     1     4     3    2
     2     3     5    2
     3     3     2    1
     4     5     6    2
     5    22    19    2
     6     6     7    2
     7     6     9   am
     8     2     1    1
     9     2     8    2
    10    21    19    1
    11    19    18    1
    12    19    20    1
    13    17    18    1
    14    17    16    1
    15     9     8    1
    16     9    10    1
    17    11    16    1
    18    11    10    1
    19    16    14    1
    20    10    12    1
    21    12    14    1
    22    12    13    1
    23    14    15    1
