@<TRIPOS>MOLECULE
3g3e_G3E_A_1.pdb
 12 13 0 0 0
SMALL
GASTEIGER

@<TRIPOS>ATOM
      1  C4        11.7560  -35.8660   34.9920 C.2   353  G3E353     -0.0149
      2  C7        13.0510  -37.5290   31.9580 C.2   353  G3E353      0.2852
      3  C6         9.7470  -35.2320   33.1380 C.2   353  G3E353      0.0292
      4  C9        11.9730  -37.1220   31.0710 C.1   353  G3E353      0.2443
      5  C8        10.6740  -35.1180   35.3580 C.2   353  G3E353     -0.0038
      6  N5        10.9320  -36.4070   31.4700 N.2   353  G3E353     -0.3342
      7  C1        11.8470  -36.2950   33.6620 C.3   353  G3E353      0.1011
      8  C2        10.8200  -35.9940   32.7600 C.2   353  G3E353      0.1299
      9  C3        12.9760  -37.0920   33.2350 C.2   353  G3E353      0.0403
     10  C10        9.6660  -34.8250   34.4230 C.2   353  G3E353      0.0020
     11  O11       14.1120  -38.3000   31.5790 O.2   353  G3E353     -0.2731
     12  O12       11.9470  -37.4020   29.9180 O.2   353  G3E353     -0.2060
@<TRIPOS>BOND
     1    12     4    2
     2     4     6    2
     3     4     2    1
     4     6     8    2
     5    11     2    1
     6     2     9    2
     7     8     3    1
     8     8     7    1
     9     3    10    2
    10     9     7    1
    11     7     1    1
    12    10     5    1
    13     1     5    2
