@<TRIPOS>MOLECULE
3g3f_GLU_A_1.pdb
 18 17 0 0 0
SMALL
GASTEIGER

@<TRIPOS>ATOM
      1  N         17.8570   28.7690    7.6300 N.4   260  GLU260      0.3871
      2  CA        17.0620   29.7680    8.4270 C.3   260  GLU260      0.0210
      3  C         15.6130   29.6820    8.0350 C.2   260  GLU260      0.3420
      4  O         15.1610   28.7140    7.3750 O.co2 260  GLU260     -0.2483
      5  CB        17.6680   31.1870    8.3220 C.3   260  GLU260     -0.0458
      6  CG        18.9490   31.3340    9.1390 C.3   260  GLU260      0.0482
      7  CD        18.7070   31.3250   10.6580 C.2   260  GLU260      0.3560
      8  OE1       17.5560   31.5620   11.0580 O.co2 260  GLU260     -0.2464
      9  OE2       19.7080   31.0900   11.3650 O.co2 260  GLU260     -0.2464
     10  OXT       14.8880   30.6020    8.4670 O.co2 260  GLU260     -0.2483
     11  H1        17.9920   27.9760    8.1540 H     260  GLU260     -0.0889
     12  H2        17.3780   28.5450    6.8280 H     260  GLU260     -0.0889
     13  H         18.7080   29.1480    7.3980 H     260  GLU260     -0.0889
     14  HA        17.1140   29.5090    9.3700 H     260  GLU260      0.0198
     15  HB2       17.8800   31.3740    7.3940 H     260  GLU260      0.0259
     16  HB3       17.0240   31.8330    8.6530 H     260  GLU260      0.0259
     17  HG2       19.5430   30.5970    8.9270 H     260  GLU260      0.0378
     18  HG3       19.3730   32.1760    8.9100 H     260  GLU260      0.0378
@<TRIPOS>BOND
     1    12     1    1
     2     4     3   ar
     3    15     5    1
     4    13     1    1
     5     1    11    1
     6     1     2    1
     7     3     2    1
     8     3    10   ar
     9     5     2    1
    10     5    16    1
    11     5     6    1
    12     2    14    1
    13    18     6    1
    14    17     6    1
    15     6     7    1
    16     7     8   ar
    17     7     9   ar
