@<TRIPOS>MOLECULE
3g3g_GLU_A_1.pdb
 18 17 0 0 0
SMALL
GASTEIGER

@<TRIPOS>ATOM
      1  N         17.7210   28.5720    7.2740 N.4   260  GLU260      0.3871
      2  CA        16.9350   29.5620    8.0930 C.3   260  GLU260      0.0210
      3  C         15.4920   29.5080    7.7430 C.2   260  GLU260      0.3420
      4  O         15.0750   28.5280    7.0450 O.co2 260  GLU260     -0.2483
      5  CB        17.5830   30.9650    8.0040 C.3   260  GLU260     -0.0458
      6  CG        18.8320   31.0940    8.7880 C.3   260  GLU260      0.0482
      7  CD        18.6160   31.1450   10.3010 C.2   260  GLU260      0.3560
      8  OE1       17.4480   31.3750   10.7040 O.co2 260  GLU260     -0.2464
      9  OE2       19.5640   30.8960   11.0510 O.co2 260  GLU260     -0.2464
     10  OXT       14.7480   30.4360    8.1270 O.co2 260  GLU260     -0.2483
     11  H1        18.1460   27.9390    7.8570 H     260  GLU260     -0.0889
     12  H2        17.1280   28.1080    6.6770 H     260  GLU260     -0.0889
     13  H         18.3890   29.0360    6.7640 H     260  GLU260     -0.0889
     14  HA        17.0020   29.2860    9.0310 H     260  GLU260      0.0198
     15  HB2       17.7940   31.1540    7.0760 H     260  GLU260      0.0259
     16  HB3       16.9530   31.6220    8.3380 H     260  GLU260      0.0259
     17  HG2       19.4010   30.3320    8.5950 H     260  GLU260      0.0378
     18  HG3       19.2810   31.9130    8.5260 H     260  GLU260      0.0378
@<TRIPOS>BOND
     1    12     1    1
     2    13     1    1
     3     4     3   ar
     4    15     5    1
     5     1    11    1
     6     1     2    1
     7     3     2    1
     8     3    10   ar
     9     5     2    1
    10     5    16    1
    11     5     6    1
    12     2    14    1
    13    18     6    1
    14    17     6    1
    15     6     7    1
    16     7     8   ar
    17     7     9   ar
