@<TRIPOS>MOLECULE
3g3h_GLU_A_1.pdb
 18 17 0 0 0
SMALL
GASTEIGER

@<TRIPOS>ATOM
      1  N         17.8360   28.5830    7.2530 N.4   260  GLU260      0.3871
      2  CA        17.0700   29.5540    8.1260 C.3   260  GLU260      0.0210
      3  C         15.6250   29.5090    7.7110 C.2   260  GLU260      0.3420
      4  O         15.1870   28.5460    7.0370 O.co2 260  GLU260     -0.2483
      5  CB        17.6650   30.9530    7.9860 C.3   260  GLU260     -0.0458
      6  CG        18.9650   31.1010    8.7670 C.3   260  GLU260      0.0482
      7  CD        18.7430   31.1180   10.2730 C.2   260  GLU260      0.3560
      8  OE1       17.5730   31.3730   10.6720 O.co2 260  GLU260     -0.2464
      9  OE2       19.7120   30.8900   11.0370 O.co2 260  GLU260     -0.2464
     10  OXT       14.8920   30.4130    8.1250 O.co2 260  GLU260     -0.2483
     11  H1        18.3650   28.0050    7.8060 H     260  GLU260     -0.0889
     12  H2        17.2180   28.0580    6.7400 H     260  GLU260     -0.0889
     13  H         18.4100   29.0720    6.6590 H     260  GLU260     -0.0889
     14  HA        17.1350   29.2770    9.0630 H     260  GLU260      0.0198
     15  HB2       17.8520   31.1270    7.0510 H     260  GLU260      0.0259
     16  HB3       17.0320   31.6040    8.3280 H     260  GLU260      0.0259
     17  HG2       19.5470   30.3540    8.5570 H     260  GLU260      0.0378
     18  HG3       19.3920   31.9350    8.5160 H     260  GLU260      0.0378
@<TRIPOS>BOND
     1    13     1    1
     2    12     1    1
     3     4     3   ar
     4    15     5    1
     5     1    11    1
     6     1     2    1
     7     3    10   ar
     8     3     2    1
     9     5     2    1
    10     5    16    1
    11     5     6    1
    12     2    14    1
    13    18     6    1
    14    17     6    1
    15     6     7    1
    16     7     8   ar
    17     7     9   ar
