@<TRIPOS>MOLECULE
3g3i_GLU_A_1.pdb
 18 17 0 0 0
SMALL
GASTEIGER

@<TRIPOS>ATOM
      1  N         17.8320   28.8330    7.5470 N.4   260  GLU260      0.3871
      2  CA        17.0460   29.7920    8.3730 C.3   260  GLU260      0.0210
      3  C         15.6130   29.7290    8.0110 C.2   260  GLU260      0.3420
      4  O         15.1720   28.7930    7.3240 O.co2 260  GLU260     -0.2483
      5  CB        17.6460   31.2140    8.2580 C.3   260  GLU260     -0.0458
      6  CG        18.9280   31.3540    9.0740 C.3   260  GLU260      0.0482
      7  CD        18.6980   31.3280   10.5820 C.2   260  GLU260      0.3560
      8  OE1       17.5600   31.5650   11.0020 O.co2 260  GLU260     -0.2464
      9  OE2       19.6870   31.0820   11.3050 O.co2 260  GLU260     -0.2464
     10  OXT       14.8460   30.6320    8.4420 O.co2 260  GLU260     -0.2483
     11  H1        18.3600   28.2730    8.1220 H     260  GLU260     -0.0889
     12  H2        17.2330   28.2880    7.0320 H     260  GLU260     -0.0889
     13  H         18.4110   29.3200    6.9560 H     260  GLU260     -0.0889
     14  HA        17.1190   29.5210    9.3120 H     260  GLU260      0.0198
     15  HB2       17.8570   31.3980    7.3290 H     260  GLU260      0.0259
     16  HB3       17.0040   31.8600    8.5900 H     260  GLU260      0.0259
     17  HG2       19.5230   30.6200    8.8510 H     260  GLU260      0.0378
     18  HG3       19.3510   32.1980    8.8520 H     260  GLU260      0.0378
@<TRIPOS>BOND
     1    13     1    1
     2    12     1    1
     3     4     3   ar
     4    15     5    1
     5     1    11    1
     6     1     2    1
     7     3     2    1
     8     3    10   ar
     9     5     2    1
    10     5    16    1
    11     5     6    1
    12     2    14    1
    13    17     6    1
    14    18     6    1
    15     6     7    1
    16     7     8   ar
    17     7     9   ar
