@<TRIPOS>MOLECULE
3g3j_GLU_A_1.pdb
 18 17 0 0 0
SMALL
GASTEIGER

@<TRIPOS>ATOM
      1  N         17.7310   28.6190    7.3350 N.4   260  GLU260      0.3871
      2  CA        16.9560   29.6260    8.1430 C.3   260  GLU260      0.0210
      3  C         15.5070   29.5900    7.7630 C.2   260  GLU260      0.3420
      4  O         15.0640   28.6110    7.0740 O.co2 260  GLU260     -0.2483
      5  CB        17.5810   31.0240    8.0400 C.3   260  GLU260     -0.0458
      6  CG        18.8670   31.1370    8.8280 C.3   260  GLU260      0.0482
      7  CD        18.6500   31.1720   10.3350 C.2   260  GLU260      0.3560
      8  OE1       17.4890   31.4270   10.7560 O.co2 260  GLU260     -0.2464
      9  OE2       19.5980   30.9200   11.0850 O.co2 260  GLU260     -0.2464
     10  OXT       14.7620   30.4940    8.1690 O.co2 260  GLU260     -0.2483
     11  H1        18.1720   28.0050    7.9270 H     260  GLU260     -0.0889
     12  H2        17.1300   28.1360    6.7640 H     260  GLU260     -0.0889
     13  H         18.3860   29.0730    6.8000 H     260  GLU260     -0.0889
     14  HA        17.0090   29.3610    9.0850 H     260  GLU260      0.0198
     15  HB2       17.7790   31.2160    7.1100 H     260  GLU260      0.0259
     16  HB3       16.9550   31.6780    8.3890 H     260  GLU260      0.0259
     17  HG2       19.4280   30.3730    8.6250 H     260  GLU260      0.0378
     18  HG3       19.3200   31.9560    8.5730 H     260  GLU260      0.0378
@<TRIPOS>BOND
     1    12     1    1
     2    13     1    1
     3     4     3   ar
     4    15     5    1
     5     1    11    1
     6     1     2    1
     7     3     2    1
     8     3    10   ar
     9     5     2    1
    10     5    16    1
    11     5     6    1
    12     2    14    1
    13    18     6    1
    14    17     6    1
    15     6     7    1
    16     7     8   ar
    17     7     9   ar
