@<TRIPOS>MOLECULE
3g3k_GLU_A_1.pdb
 18 17 0 0 0
SMALL
GASTEIGER

@<TRIPOS>ATOM
      1  N         17.9100   28.6660    7.3650 N.4   260  GLU260      0.3871
      2  CA        17.1100   29.6660    8.1730 C.3   260  GLU260      0.0210
      3  C         15.6760   29.6070    7.8160 C.2   260  GLU260      0.3420
      4  O         15.2390   28.6240    7.1230 O.co2 260  GLU260     -0.2483
      5  CB        17.7400   31.0530    8.0700 C.3   260  GLU260     -0.0458
      6  CG        18.9780   31.2010    8.8980 C.3   260  GLU260      0.0482
      7  CD        18.8000   31.1660   10.4130 C.2   260  GLU260      0.3560
      8  OE1       17.6010   31.4080   10.8130 O.co2 260  GLU260     -0.2464
      9  OE2       19.7560   30.9080   11.1570 O.co2 260  GLU260     -0.2464
     10  OXT       14.9200   30.5190    8.2580 O.co2 260  GLU260     -0.2483
     11  H1        18.2950   28.0140    7.9540 H     260  GLU260     -0.0889
     12  H2        17.3320   28.2280    6.7360 H     260  GLU260     -0.0889
     13  H         18.6090   29.1240    6.8920 H     260  GLU260     -0.0889
     14  HA        17.1720   29.4010    9.1140 H     260  GLU260      0.0198
     15  HB2       17.9780   31.2230    7.1450 H     260  GLU260      0.0259
     16  HB3       17.0980   31.7140    8.3730 H     260  GLU260      0.0259
     17  HG2       19.5850   30.4820    8.6650 H     260  GLU260      0.0378
     18  HG3       19.3890   32.0510    8.6780 H     260  GLU260      0.0378
@<TRIPOS>BOND
     1    12     1    1
     2    13     1    1
     3     4     3   ar
     4    15     5    1
     5     1    11    1
     6     1     2    1
     7     3     2    1
     8     3    10   ar
     9     5     2    1
    10     5    16    1
    11     5     6    1
    12     2    14    1
    13    17     6    1
    14    18     6    1
    15     6     7    1
    16     7     8   ar
    17     7     9   ar
