@<TRIPOS>MOLECULE
3g3m_5FU_A_1.pdb
 22 23 0 0 0
SMALL
GASTEIGER

@<TRIPOS>ATOM
      1  F5       -16.6490   -8.2610    3.1900 F     1000  5FU1000    -0.1891
      2  C5       -16.2140   -8.9210    4.2820 C.2   1000  5FU1000     0.2499
      3  C4       -17.1700   -9.4640    5.1540 C.1   1000  5FU1000     0.2454
      4  O4       -18.4020   -9.4880    4.9120 O.2   1000  5FU1000    -0.2062
      5  N3       -16.7170  -10.0120    6.3220 N.2   1000  5FU1000    -0.2430
      6  C2       -15.4060  -10.0880    6.6240 C.1   1000  5FU1000     0.2846
      7  O2       -15.0330  -10.5560    7.7290 O.2   1000  5FU1000    -0.1918
      8  C6       -14.8550   -8.9090    4.5820 C.2   1000  5FU1000     0.1222
      9  N1       -14.4190   -9.5110    5.8050 N.am  1000  5FU1000    -0.1744
     10  C1'      -13.0370  -10.0300    5.9220 C.3   1000  5FU1000     0.2401
     11  O4'      -13.0460  -11.4580    6.1730 O.3   1000  5FU1000    -0.3319
     12  C2'      -12.2970   -9.4460    7.1200 C.3   1000  5FU1000     0.2319
     13  O2'      -11.5550   -8.2830    6.7240 O.3   1000  5FU1000    -0.2157
     14  C3'      -11.3400  -10.5480    7.5500 C.3   1000  5FU1000     0.2158
     15  O3'      -10.1220  -10.5230    6.7930 O.3   1000  5FU1000    -0.2175
     16  C4'      -12.1310  -11.8060    7.2150 C.3   1000  5FU1000     0.1801
     17  C5'      -12.8420  -12.3570    8.4660 C.3   1000  5FU1000     0.1859
     18  O5'      -11.8000  -12.8180    9.3210 O.3   1000  5FU1000    -0.2675
     19  P        -12.1760  -13.4260   10.7870 P.3   1000  5FU1000     0.5327
     20  O1P      -12.5500  -14.8800   10.5390 O.2   1000  5FU1000    -0.2224
     21  O2P      -10.8700  -13.2950   11.5050 O.3   1000  5FU1000    -0.1145
     22  O3P      -13.3330  -12.6620   11.3770 O.3   1000  5FU1000    -0.1145
@<TRIPOS>BOND
     1     1     2    1
     2     2     8    2
     3     2     3    1
     4     8     9    1
     5     4     3    2
     6     3     5    2
     7     9    10    1
     8     9     6   am
     9    10    11    1
    10    10    12    1
    11    11    16    1
    12     5     6    2
    13     6     7    2
    14    13    12    1
    15    15    14    1
    16    12    14    1
    17    16    14    1
    18    16    17    1
    19    17    18    1
    20    18    19    1
    21    20    19    2
    22    19    22    1
    23    19    21    1
