@<TRIPOS>MOLECULE
3g3n_TC8_A_1.pdb
 21 23 0 0 0
SMALL
GASTEIGER

@<TRIPOS>ATOM
      1  C1       -43.5720  -26.3710   10.6320 C.3     3  TC83        0.0781
      2  S2       -44.7600  -25.2300    9.9550 S.3     3  TC83       -0.0654
      3  C3       -45.9510  -26.2090    9.1310 C.2     3  TC83        0.2204
      4  N4       -45.8890  -27.5450    9.2300 N.2     3  TC83       -0.3801
      5  C5       -46.7790  -28.3350    8.6130 C.2     3  TC83        0.1374
      6  C6       -46.6700  -29.7160    8.7320 C.2     3  TC83        0.0280
      7  C7       -47.5800  -30.5440    8.0850 C.2     3  TC83       -0.0188
      8  C8       -48.6020  -29.9930    7.3190 C.3     3  TC83        0.0523
      9  C9       -48.7130  -28.6120    7.2010 C.2     3  TC83       -0.0143
     10  C10      -47.8010  -27.7850    7.8480 C.2     3  TC83        0.0799
     11  C11      -47.8970  -26.4030    7.7260 C.2     3  TC83        0.2610
     12  O12      -48.8080  -25.8980    7.0710 O.2     3  TC83       -0.2691
     13  N13      -46.9570  -25.5960    8.3750 N.am    3  TC83       -0.1993
     14  C14      -47.0160  -24.1990    8.2800 C.ar    3  TC83        0.1158
     15  C15      -47.7030  -23.4660    9.2430 C.ar    3  TC83        0.1563
     16  F16      -48.3140  -24.0950   10.2670 F       3  TC83       -0.2028
     17  C17      -47.7620  -22.0800    9.1580 C.ar    3  TC83        0.0311
     18  C18      -47.1360  -21.4170    8.1090 C.ar    3  TC83        0.0047
     19  C19      -46.4480  -22.1460    7.1450 C.ar    3  TC83        0.0311
     20  C20      -46.3870  -23.5320    7.2330 C.ar    3  TC83        0.1563
     21  F21      -45.6910  -24.2180    6.3050 F       3  TC83       -0.2028
@<TRIPOS>BOND
     1    21    20    1
     2    12    11    2
     3    19    20   ar
     4    19    18   ar
     5     9     8    1
     6     9    10    2
     7    20    14   ar
     8     8     7    1
     9    11    10    1
    10    11    13   am
    11    10     5    1
    12     7     6    2
    13    18    17   ar
    14    14    13    1
    15    14    15   ar
    16    13     3    1
    17     5     6    1
    18     5     4    2
    19     3     4    2
    20     3     2    1
    21    17    15   ar
    22    15    16    1
    23     2     1    1
