@<TRIPOS>MOLECULE
3g3p_III_D_1.pdb
 40 39 0 0 0
SMALL
GASTEIGER

@<TRIPOS>ATOM
      1  N         17.5690   -6.1940   12.7800 N.4     1  LEU1        0.3857
      2  CA        17.9430   -6.7310   11.4540 C.3     1  LEU1       -0.0051
      3  C         19.1580   -5.9680   10.9320 C.2     1  LEU1        0.1991
      4  O         19.5090   -4.9060   11.4520 O.2     1  LEU1       -0.2776
      5  CB        16.7570   -6.6270   10.4800 C.3     1  LEU1       -0.0580
      6  CG        15.4600   -7.2990   10.9690 C.3     1  LEU1       -0.0544
      7  CD        15.6740   -8.7460   11.3910 C.3     1  LEU1       -0.0560
      8  CE        14.3710   -9.4040   11.8100 C.3     1  LEU1       -0.0653
      9  H1        18.2730   -6.3730   13.4080 H       1  LEU1       -0.0890
     10  H2        17.4310   -5.2470   12.7150 H       1  LEU1       -0.0890
     11  H3        16.7600   -6.6150   13.0790 H       1  LEU1       -0.0890
     12  HA        18.1870   -7.6760   11.5430 H       1  LEU1        0.0178
     13  HB2       16.5620   -5.6890   10.3280 H       1  LEU1        0.0254
     14  HB3       17.0070   -7.0470    9.6420 H       1  LEU1        0.0254
     15  HG2       15.1200   -6.8100   11.7350 H       1  LEU1        0.0265
     16  HG3       14.8080   -7.2890   10.2510 H       1  LEU1        0.0265
     17  HD2       16.0410   -9.2460   10.6450 H       1  LEU1        0.0263
     18  HD3       16.2840   -8.7730   12.1450 H       1  LEU1        0.0263
     19  HE1       13.7480   -9.3900   11.0660 H       1  LEU1        0.0230
     20  HE2       14.5420  -10.3220   12.0720 H       1  LEU1        0.0230
     21  HE3       13.9900   -8.9190   12.5590 H       1  LEU1        0.0230
     22  N         19.8010   -6.5230    9.9100 N.am    2  LEU2       -0.3066
     23  CA        21.0520   -5.9810    9.3930 C.3     2  LEU2        0.0892
     24  C         20.8390   -5.2030    8.0960 C.2     2  LEU2        0.2199
     25  O         19.7830   -5.2880    7.4700 O.2     2  LEU2       -0.2869
     26  CB        22.0480   -7.1260    9.1780 C.3     2  LEU2       -0.0248
     27  CG        23.3190   -6.8540    8.3760 C.3     2  LEU2       -0.0446
     28  CD1       24.4590   -7.6910    8.9300 C.3     2  LEU2       -0.0626
     29  CD2       23.1040   -7.1490    6.8970 C.3     2  LEU2       -0.0626
     30  H         19.5290   -7.2240    9.4930 H       2  LEU2        0.1493
     31  HA        21.4330   -5.3680   10.0560 H       2  LEU2        0.0582
     32  HB2       22.3300   -7.4390   10.0520 H       2  LEU2        0.0290
     33  HB3       21.5790   -7.8430    8.7240 H       2  LEU2        0.0290
     34  HG        23.5590   -5.9190    8.4660 H       2  LEU2        0.0296
     35 HD11       25.2530   -7.5140    8.4200 H       2  LEU2        0.0232
     36 HD12       24.6010   -7.4560    9.8500 H       2  LEU2        0.0232
     37 HD13       24.2260   -8.6200    8.8620 H       2  LEU2        0.0232
     38 HD21       22.8610   -8.0720    6.7950 H       2  LEU2        0.0232
     39 HD22       22.3990   -6.5870    6.5660 H       2  LEU2        0.0232
     40 HD23       23.9180   -6.9700    6.4210 H       2  LEU2        0.0232
@<TRIPOS>BOND
     1    40    29    1
     2    39    29    1
     3    38    29    1
     4    29    27    1
     5    25    24    2
     6    24    23    1
     7    27    34    1
     8    27    28    1
     9    27    26    1
    10    35    28    1
    11    33    26    1
    12    37    28    1
    13    28    36    1
    14    26    23    1
    15    26    32    1
    16    23    22    1
    17    23    31    1
    18    30    22    1
    19    14     5    1
    20    22     3   am
    21    16     6    1
    22    13     5    1
    23     5     6    1
    24     5     2    1
    25    17     7    1
    26     3     4    2
    27     3     2    1
    28     6     7    1
    29     6    15    1
    30    19     8    1
    31     7     8    1
    32     7    18    1
    33     2    12    1
    34     2     1    1
    35     8    20    1
    36     8    21    1
    37    10     1    1
    38     1    11    1
    39     1     9    1
