@<TRIPOS>MOLECULE
3g3r_ANP_A_1.pdb
 13 12 0 0 0
SMALL
GASTEIGER

@<TRIPOS>ATOM
      1  PG        13.4240   16.9860   15.7500 P.3   1000  ANP1000     0.4884
      2  O1G       13.4640   18.3830   15.2750 O.3   1000  ANP1000    -0.1240
      3  O2G       13.9110   17.0400   17.2770 O.3   1000  ANP1000    -0.1240
      4  O3G       14.4880   15.9260   15.2520 O.2   1000  ANP1000    -0.2331
      5  PB        11.5650   14.9580   14.8860 P.3   1000  ANP1000     0.4700
      6  O1B       10.0120   14.8930   15.1850 O.3   1000  ANP1000    -0.1252
      7  O2B       12.0990   15.1990   13.5280 O.2   1000  ANP1000    -0.2350
      8  N3B       11.8990   16.3360   15.7360 N.3   1000  ANP1000    -0.0162
      9  PA        12.5900   12.2090   14.9600 P.3   1000  ANP1000     0.5397
     10  O1A       13.4870   12.6320   13.7440 O.2   1000  ANP1000    -0.2220
     11  O2A       11.5480   11.2950   14.2310 O.3   1000  ANP1000    -0.1143
     12  O3A       12.0370   13.5780   15.5050 O.3   1000  ANP1000    -0.1901
     13  O5'       13.2570   11.5830   16.1130 O.3   1000  ANP1000    -0.1143
@<TRIPOS>BOND
     1     7     5    2
     2    10     9    2
     3    11     9    1
     4     5     6    1
     5     5    12    1
     6     5     8    1
     7     9    12    1
     8     9    13    1
     9     4     1    2
    10     2     1    1
    11     8     1    1
    12     1     3    1
