@<TRIPOS>MOLECULE
3g3w_MTN_A_1.pdb
 12 12 0 0 0
SMALL
GASTEIGER

@<TRIPOS>ATOM
      1  O1        17.9220   -1.4620  -11.2210 O.3   801  MTN801     -0.1175
      2  N1        18.4150   -1.9540  -10.1600 N.4   801  MTN801     -0.1311
      3  C1        19.7780   -1.6910   -9.7170 C.3   801  MTN801      0.0909
      4  C2        19.8590   -2.4830   -8.4340 C.2   801  MTN801     -0.0160
      5  C3        18.7100   -3.1380   -8.2270 C.2   801  MTN801     -0.0205
      6  C4        18.4820   -4.0770   -7.0690 C.3   801  MTN801      0.0917
      7  S1        20.0330   -4.7850   -6.6280 S.3   801  MTN801     -0.0773
      8  C5        17.6780   -2.8330   -9.2720 C.3   801  MTN801      0.0886
      9  C6        16.4700   -2.1570   -8.6450 C.3   801  MTN801      0.0227
     10  C7        17.2750   -4.1260   -9.9710 C.3   801  MTN801      0.0227
     11  C8        20.8040   -2.2220  -10.7110 C.3   801  MTN801      0.0230
     12  C9        20.0060   -0.2120   -9.4290 C.3   801  MTN801      0.0230
@<TRIPOS>BOND
     1     1     2    1
     2    11     3    1
     3     2     3    1
     4     2     8    1
     5    10     8    1
     6     3    12    1
     7     3     4    1
     8     8     9    1
     9     8     5    1
    10     4     5    2
    11     5     6    1
    12     6     7    1
