@<TRIPOS>MOLECULE
3g3x_MTN_A_1.pdb
 12 12 0 0 0
SMALL
GASTEIGER

@<TRIPOS>ATOM
      1  O1        34.6630  -37.3580   25.0240 O.3   801  MTN801     -0.1175
      2  N1        35.4190  -36.5940   24.3490 N.4   801  MTN801     -0.1311
      3  C1        36.8350  -36.8580   24.1350 C.3   801  MTN801      0.0909
      4  C2        37.2430  -35.7140   23.2390 C.2   801  MTN801     -0.0160
      5  C3        36.1770  -34.9610   22.9410 C.2   801  MTN801     -0.0205
      6  C4        36.2160  -33.8730   21.8920 C.3   801  MTN801      0.0917
      7  S1        35.3220  -32.4240   22.3470 S.3   801  MTN801     -0.0773
      8  C5        34.9550  -35.3750   23.7130 C.3   801  MTN801      0.0886
      9  C6        33.7830  -35.6100   22.7740 C.3   801  MTN801      0.0227
     10  C7        34.6110  -34.3310   24.7690 C.3   801  MTN801      0.0227
     11  C8        37.6230  -36.8030   25.4390 C.3   801  MTN801      0.0230
     12  C9        37.0610  -38.1800   23.4100 C.3   801  MTN801      0.0230
@<TRIPOS>BOND
     1     6     7    1
     2     6     5    1
     3     9     8    1
     4     5     4    2
     5     5     8    1
     6     4     3    1
     7    12     3    1
     8     8     2    1
     9     8    10    1
    10     3     2    1
    11     3    11    1
    12     2     1    1
