@<TRIPOS>MOLECULE
3g42_792_A_1.pdb
 29 31 0 0 0
SMALL
GASTEIGER

@<TRIPOS>ATOM
      1  C1        56.1730   33.8870   99.6560 C.2     1  7921        0.0150
      2  C2        56.2650   33.2780  100.9540 C.2     1  7921        0.0665
      3  C3        55.2550   32.3460  101.4160 C.3     1  7921        0.0816
      4  C4        54.1450   32.0320  100.5520 C.2     1  7921       -0.0206
      5  C5        54.0660   32.6450   99.2580 C.2     1  7921       -0.0254
      6  C6        55.0700   33.5690   98.8080 C.2     1  7921       -0.0033
      7  S7        54.0920   32.5660  107.2620 S.O2    1  7921        0.0773
      8  C8        52.4070   33.1170  107.4550 C.ar    1  7921        0.1238
      9  C9        51.3710   32.1540  107.6780 C.ar    1  7921        0.0231
     10  C10       50.0210   32.5950  107.8320 C.ar    1  7921        0.0383
     11  C11       49.7080   33.9880  107.7660 C.ar    1  7921        0.1401
     12  C12       50.7540   34.9670  107.5410 C.ar    1  7921        0.0383
     13  C13       52.1110   34.5270  107.3850 C.ar    1  7921        0.0231
     14  O14       48.3410   34.3300  107.9240 O.3     1  7921       -0.4612
     15  C15       47.9380   35.1790  109.0130 C.3     1  7921        0.2820
     16  C16       48.0140   34.4930  110.3260 C.1     1  7921       -0.0307
     17  C17       48.0940   33.9860  111.4000 C.1     1  7921       -0.0105
     18  O19       54.9420   33.5390  107.8800 O.2     1  7921       -0.1516
     19  O20       54.1780   31.2360  107.8120 O.2     1  7921       -0.1516
     20  N21       57.1980   33.3900  101.9730 N.2     1  7921       -0.2482
     21  C22       56.8380   32.6060  103.0180 C.2     1  7921        0.0907
     22  C23       55.6390   31.9210  102.7590 C.2     1  7921       -0.0138
     23  C24       54.9230   30.9430  103.7130 C.3     1  7921        0.0552
     24  C25       53.8490   31.5800  104.6630 C.3     1  7921        0.2042
     25  C26       52.7730   32.2770  103.8560 C.2     1  7921        0.3825
     26  N27       54.4980   32.4920  105.6450 N.3     1  7921       -0.0674
     27  O28       52.8860   33.4840  103.6660 O.co2   1  7921       -0.2440
     28  O29       51.8520   31.6040  103.3960 O.co2   1  7921       -0.2440
     29  C48       52.9310   32.3210   98.3790 C.3     1  7921        0.0307
@<TRIPOS>BOND
     1    29     5    1
     2     6     5    1
     3     6     1    2
     4     5     4    2
     5     1     2    1
     6     4     3    1
     7     2     3    1
     8     2    20    2
     9     3    22    1
    10    20    21    1
    11    22    21    2
    12    22    23    1
    13    28    25   ar
    14    27    25   ar
    15    23    24    1
    16    25    24    1
    17    24    26    1
    18    26     7    1
    19     7     8    1
    20     7    19    2
    21     7    18    2
    22    13     8   ar
    23    13    12   ar
    24     8     9   ar
    25    12    11   ar
    26     9    10   ar
    27    11    10   ar
    28    11    14    1
    29    14    15    1
    30    15    16    1
    31    16    17    3
