@<TRIPOS>MOLECULE
3g45_988_A_1.pdb
 26 29 0 0 0
SMALL
GASTEIGER

@<TRIPOS>ATOM
      1  C1        28.7660   22.9510   10.5380 C.ar  901  988901      0.0031
      2  C2        29.1370   21.7100   11.0080 C.ar  901  988901      0.0174
      3  C3        29.4740   21.5690   12.4370 C.ar  901  988901      0.0812
      4  N4        29.4270   22.6460   13.2540 N.ar  901  988901     -0.2438
      5  C5        29.0660   23.8460   12.7610 C.ar  901  988901      0.0988
      6  C6        28.7290   24.0260   11.4200 C.ar  901  988901      0.0207
      7  C13       29.1910   20.6030   10.1820 C.ar  901  988901     -0.0024
      8  C15       29.5510   19.3400   10.6710 C.ar  901  988901     -0.0177
      9  C17       29.8780   19.1560   12.0220 C.ar  901  988901     -0.0024
     10  C19       29.8390   20.2240   12.9190 C.ar  901  988901      0.0174
     11  C22       30.2040   20.0630   14.3350 C.ar  901  988901      0.0031
     12  C24       31.4100   19.4650   14.6290 C.ar  901  988901      0.0241
     13  C25       31.8170   19.2890   15.9410 C.ar  901  988901      0.1429
     14  C26       31.0130   19.7360   16.9680 C.ar  901  988901      0.0241
     15  C27       29.8040   20.3490   16.6750 C.ar  901  988901      0.0017
     16  C28       29.3980   20.5140   15.3580 C.ar  901  988901      0.0001
     17  C35       29.6140   18.1750    9.6960 C.3   901  988901      0.0527
     18  C37       28.6080   17.1180   10.0280 C.ar  901  988901     -0.0147
     19  C39       27.2750   17.2630    9.6550 C.ar  901  988901      0.0167
     20  C40       26.3650   16.2640    9.9960 C.ar  901  988901      0.0986
     21  N41       26.7520   15.1740   10.6610 N.ar  901  988901     -0.2423
     22  C42       28.0320   15.0030   11.0070 C.ar  901  988901      0.0986
     23  C43       28.9970   15.9700   10.6970 C.ar  901  988901      0.0167
     24  N50       33.0400   18.6630   16.2260 N.pl3 901  988901      0.0577
     25  O52       33.7630   18.2430   15.3230 O.2   901  988901     -0.1261
     26  O54       33.4310   18.5200   17.5660 O.2   901  988901     -0.1261
@<TRIPOS>BOND
     1    19    20   ar
     2    19    18   ar
     3    17    18    1
     4    17     8    1
     5    20    21   ar
     6    18    23   ar
     7     7     8   ar
     8     7     2   ar
     9     1     2   ar
    10     1     6   ar
    11    21    22   ar
    12     8     9   ar
    13    23    22   ar
    14     2     3   ar
    15     6     5   ar
    16     9    10   ar
    17     3    10   ar
    18     3     4   ar
    19     5     4   ar
    20    10    11    1
    21    11    12   ar
    22    11    16   ar
    23    12    13   ar
    24    25    24    2
    25    16    15   ar
    26    13    24    1
    27    13    14   ar
    28    24    26    2
    29    15    14   ar
