@<TRIPOS>MOLECULE
3g46_HEM_A_1.pdb
 43 50 0 0 0
SMALL
GASTEIGER

@<TRIPOS>ATOM
      1  CHA       41.5650   -0.4540   17.3060 C.2   147  HEM147      0.0000
      2  CHB       39.2820   -1.9580   21.2760 C.2   147  HEM147      0.0000
      3  CHC       43.5350   -3.2870   23.1240 C.2   147  HEM147      0.0000
      4  CHD       45.6590   -2.4330   18.8940 C.2   147  HEM147      0.0000
      5  C1A       40.5850   -0.7280   18.2380 C.2   147  HEM147      0.0000
      6  C2A       39.1830   -0.3680   18.0580 C.2   147  HEM147      0.0000
      7  C3A       38.5430   -0.7800   19.1800 C.2   147  HEM147      0.0000
      8  C4A       39.5550   -1.3780   20.0400 C.2   147  HEM147      0.0000
      9  CMA       37.0930   -0.6420   19.5110 C.3   147  HEM147      0.0000
     10  CAA       38.6250    0.1550   16.7650 C.3   147  HEM147      0.0000
     11  CBA       38.5100   -0.9790   15.7210 C.3   147  HEM147      0.0000
     12  CGA       38.2400   -0.5070   14.3150 C.2   147  HEM147      0.0000
     13  O1A       37.4090    0.4110   14.1430 O.co2 147  HEM147      0.0000
     14  O2A       38.8180   -1.1630   13.4060 O.co2 147  HEM147      0.0000
     15  C1B       40.2420   -2.5130   22.1230 C.ar  147  HEM147      0.0000
     16  C2B       39.9620   -2.9830   23.4540 C.ar  147  HEM147      0.0000
     17  C3B       41.1750   -3.2860   24.0080 C.ar  147  HEM147      0.0000
     18  C4B       42.1680   -3.0650   22.9800 C.ar  147  HEM147      0.0000
     19  CMB       38.5910   -3.1140   24.0430 C.3   147  HEM147      0.0000
     20  CAB       41.4800   -3.7980   25.3350 C.2   147  HEM147      0.0000
     21  CBB       40.8050   -3.5130   26.4720 C.2   147  HEM147      0.0000
     22  C1C       44.4900   -3.2160   22.1300 C.2   147  HEM147      0.0000
     23  C2C       45.9040   -3.5260   22.3120 C.2   147  HEM147      0.0000
     24  C3C       46.4890   -3.3550   21.0890 C.2   147  HEM147      0.0000
     25  C4C       45.4430   -2.8820   20.1860 C.2   147  HEM147      0.0000
     26  CMC       46.4910   -3.9990   23.6000 C.3   147  HEM147      0.0000
     27  CAC       47.8690   -3.5030   20.6830 C.2   147  HEM147      0.0000
     28  CBC       48.8830   -4.0890   21.2450 C.2   147  HEM147      0.0000
     29  C1D       44.7420   -1.7900   18.1000 C.ar  147  HEM147      0.0000
     30  C2D       45.0470   -1.1990   16.8190 C.ar  147  HEM147      0.0000
     31  C3D       43.9120   -0.5960   16.3860 C.ar  147  HEM147      0.0000
     32  C4D       42.8950   -0.8390   17.4060 C.ar  147  HEM147      0.0000
     33  CMD       46.4070   -1.1600   16.1930 C.3   147  HEM147      0.0000
     34  CAD       43.7220    0.2490   15.1610 C.3   147  HEM147      0.0000
     35  CBD       43.8980    1.7560   15.4470 C.3   147  HEM147      0.0000
     36  CGD       43.5260    2.5390   14.1860 C.2   147  HEM147      0.0000
     37  O1D       44.3760    2.5260   13.2270 O.co2 147  HEM147      0.0000
     38  O2D       42.4030    3.0820   14.1390 O.co2 147  HEM147      0.0000
     39  NA        40.7850   -1.3270   19.4520 N.2   147  HEM147      0.0000
     40  NB        41.5820   -2.5860   21.8270 N.ar  147  HEM147      0.0000
     41  NC        44.2310   -2.8550   20.8350 N.2   147  HEM147      0.0000
     42  ND        43.4320   -1.5650   18.4390 N.ar  147  HEM147      0.0000
     43 FE         42.5110   -2.0790   20.1480 Fe    147  HEM147      0.0000
@<TRIPOS>BOND
     1    37    36   ar
     2    14    12   ar
     3    38    36   ar
     4    13    12   ar
     5    36    35    1
     6    12    11    1
     7    34    35    1
     8    34    31    1
     9    11    10    1
    10    33    30    1
    11    31    30   ar
    12    31    32   ar
    13    10     6    1
    14    30    29   ar
    15     1    32    2
    16     1     5    1
    17    32    42   ar
    18     6     5    1
    19     6     7    2
    20    29    42   ar
    21    29     4    2
    22     5    39    2
    23    42    43    1
    24     4    25    1
    25     7     9    1
    26     7     8    1
    27    39     8    1
    28    39    43    1
    29     8     2    2
    30    43    41    1
    31    43    40    1
    32    25    41    2
    33    25    24    1
    34    27    24    1
    35    27    28    2
    36    41    22    1
    37    24    23    2
    38     2    15    1
    39    40    15   ar
    40    40    18   ar
    41    15    16   ar
    42    22    23    1
    43    22     3    2
    44    23    26    1
    45    18     3    1
    46    18    17   ar
    47    16    17   ar
    48    16    19    1
    49    17    20    1
    50    20    21    2
