@<TRIPOS>MOLECULE
3g49_NAP_A_1.pdb
 48 52 0 0 0
SMALL
GASTEIGER

@<TRIPOS>ATOM
      1  PA        14.8600   19.9730   54.1510 P.3   2002  NAP2002     0.2189
      2  O1A       14.6200   21.3480   54.6590 O.2   2002  NAP2002    -0.5170
      3  O2A       14.2640   18.7240   54.7450 O.3   2002  NAP2002    -0.4371
      4  O5B       16.4030   19.6920   54.5970 O.3   2002  NAP2002    -0.3112
      5  C5B       17.3730   20.3690   53.9400 C.3   2002  NAP2002     0.1813
      6  C4B       18.7200   20.0530   54.5840 C.3   2002  NAP2002     0.1820
      7  O4B       19.6710   20.8860   53.8890 O.3   2002  NAP2002    -0.3136
      8  C3B       18.8050   20.4900   56.0290 C.3   2002  NAP2002     0.2157
      9  O3B       19.8620   19.6320   56.4260 O.3   2002  NAP2002    -0.2175
     10  C2B       19.5270   21.7710   56.1390 C.3   2002  NAP2002     0.2314
     11  O2B       20.2250   21.7870   57.3930 O.3   2002  NAP2002    -0.2630
     12  C1B       20.2650   21.8320   54.7640 C.3   2002  NAP2002     0.3158
     13  N9A       20.5960   23.1920   54.5100 N.pl3 2002  NAP2002    -0.1439
     14  C8A       19.7570   24.2440   54.5580 C.3   2002  NAP2002     0.3377
     15  N7A       20.4910   25.4040   54.4590 N.2   2002  NAP2002    -0.2095
     16  C5A       21.7640   25.0700   54.4640 C.2   2002  NAP2002     0.2526
     17  C6A       22.9650   25.7360   54.4450 C.2   2002  NAP2002     0.4393
     18  N6A       22.9660   27.0920   54.3830 N.pl3 2002  NAP2002     0.2180
     19  N1A       24.1420   25.0170   54.4340 N.2   2002  NAP2002     0.0021
     20  C2A       24.2060   23.7220   54.5280 C.3   2002  NAP2002     0.5254
     21  N3A       23.0550   23.0370   54.5040 N.2   2002  NAP2002    -0.0055
     22  C4A       21.7950   23.7130   54.4980 C.2   2002  NAP2002     0.3518
     23  O3        14.9970   19.8270   52.5170 O.3   2002  NAP2002    -0.2703
     24  PN        14.5950   18.4550   51.7320 P.3   2002  NAP2002     0.2189
     25  O1N       13.0120   18.4370   51.6390 O.2   2002  NAP2002    -0.5170
     26  O2N       15.2210   17.3150   52.5080 O.3   2002  NAP2002    -0.4371
     27  O5D       15.2910   18.6050   50.2490 O.3   2002  NAP2002    -0.3112
     28  C5D       16.6470   18.3440   50.0130 C.3   2002  NAP2002     0.1813
     29  C4D       16.9730   18.5400   48.5580 C.3   2002  NAP2002     0.1799
     30  O4D       15.9190   17.9770   47.7910 O.3   2002  NAP2002    -0.3327
     31  C3D       16.9670   19.9590   48.1910 C.3   2002  NAP2002     0.2158
     32  O3D       18.0160   19.9450   47.2190 O.3   2002  NAP2002    -0.2175
     33  C2D       15.6800   20.2460   47.4350 C.3   2002  NAP2002     0.2309
     34  O2D       15.7350   21.2320   46.4260 O.3   2002  NAP2002    -0.2158
     35  C1D       15.2470   18.8850   46.9920 C.3   2002  NAP2002     0.2263
     36  N1N       13.8450   18.6850   46.7380 N.pl3 2002  NAP2002    -0.2787
     37  C2N       12.9730   18.5640   47.7260 C.3   2002  NAP2002     0.1244
     38  C3N       11.6480   18.4370   47.4390 C.2   2002  NAP2002     0.0544
     39  C7N       10.6430   18.2390   48.5210 C.2   2002  NAP2002     0.2818
     40  O7N        9.4340   18.1520   48.1490 O.2   2002  NAP2002    -0.2670
     41  N7N       11.1170   18.2270   49.7830 N.am  2002  NAP2002    -0.0839
     42  C4N       11.2210   18.4090   46.1020 C.2   2002  NAP2002     0.0033
     43  C5N       12.1260   18.5570   45.0910 C.2   2002  NAP2002     0.0157
     44  C6N       13.4750   18.7220   45.4410 C.2   2002  NAP2002     0.0633
     45  P2B       20.5940   23.1030   58.2760 P.3   2002  NAP2002     0.5328
     46  O1X       21.8290   23.7540   57.7720 O.2   2002  NAP2002    -0.2224
     47  O2X       19.3160   23.8680   58.2210 O.3   2002  NAP2002    -0.1145
     48  O3X       20.9430   22.5820   59.6730 O.3   2002  NAP2002    -0.1145
@<TRIPOS>BOND
     1    43    44    2
     2    43    42    1
     3    44    36    1
     4    42    38    2
     5    34    33    1
     6    36    35    1
     7    36    37    1
     8    35    33    1
     9    35    30    1
    10    32    31    1
    11    33    31    1
    12    38    37    1
    13    38    39    1
    14    30    29    1
    15    40    39    2
    16    31    29    1
    17    39    41   am
    18    29    28    1
    19    28    27    1
    20    27    24    1
    21    25    24    2
    22    24    26    1
    23    24    23    1
    24    23     1    1
    25     7     6    1
    26     7    12    1
    27     5     6    1
    28     5     4    1
    29     1     4    1
    30     1     2    2
    31     1     3    1
    32    18    17    1
    33    19    17    2
    34    19    20    1
    35    17    16    1
    36    15    16    2
    37    15    14    1
    38    16    22    1
    39    22    21    2
    40    22    13    1
    41    21    20    1
    42    13    14    1
    43    13    12    1
    44     6     8    1
    45    12    10    1
    46     8    10    1
    47     8     9    1
    48    10    11    1
    49    11    45    1
    50    46    45    2
    51    47    45    1
    52    45    48    1
