@<TRIPOS>MOLECULE
3g49_3G4_A_1.pdb
 26 27 0 0 0
SMALL
GASTEIGER

@<TRIPOS>ATOM
      1 CL7         4.0300   21.2400   43.7350 Cl    2004  3G42004    -0.0825
      2  C1         5.6490   21.9150   43.6870 C.ar  2004  3G42004     0.0550
      3  C2         5.8560   23.2920   43.8280 C.ar  2004  3G42004     0.0112
      4  C3         7.1690   23.7950   43.8050 C.ar  2004  3G42004     0.0022
      5  C4         8.2630   22.8990   43.6700 C.ar  2004  3G42004     0.0200
      6  C6         6.6880   21.0600   43.5470 C.ar  2004  3G42004     0.0077
      7  C8         6.3840   19.6000   43.4300 C.3   2004  3G42004     0.0333
      8  C5         8.0180   21.5270   43.5380 C.ar  2004  3G42004     0.1240
      9  S9         9.2790   20.4730   43.3420 S.O2  2004  3G42004     0.0946
     10  O11        8.8790   19.1440   43.7620 O.2   2004  3G42004    -0.1482
     11  O12        9.6690   20.4380   41.9320 O.2   2004  3G42004    -0.1482
     12  N10       10.4710   20.9390   44.1720 N.pl3 2004  3G42004    -0.0683
     13  C13       10.3380   21.2470   45.4820 C.2   2004  3G42004     0.2023
     14  N14       11.4290   21.6580   46.1130 N.2   2004  3G42004    -0.3919
     15  C18        9.1110   21.1150   46.1860 C.3   2004  3G42004     0.1041
     16  C17        9.0650   21.4440   47.5450 C.2   2004  3G42004    -0.0149
     17  C16       10.2170   21.8960   48.1600 C.2   2004  3G42004     0.0240
     18  C15       11.4160   21.9840   47.4130 C.2   2004  3G42004     0.1192
     19  C19       12.7110   22.4210   48.0440 C.3   2004  3G42004     0.1440
     20  C20       12.6660   22.9480   49.3580 C.2   2004  3G42004     0.2328
     21  O22       12.5030   22.2900   50.4060 O.2   2004  3G42004    -0.2744
     22  N21       12.2360   24.2100   49.4590 N.am  2004  3G42004    -0.2792
     23  C23       12.2950   25.1770   48.3110 C.3   2004  3G42004     0.0935
     24  C26       11.0140   25.1140   47.4510 C.3   2004  3G42004     0.0233
     25  C24       11.7450   24.7620   50.7070 C.3   2004  3G42004     0.0935
     26  C25       10.6510   25.7910   50.4440 C.3   2004  3G42004     0.0233
@<TRIPOS>BOND
     1    11     9    2
     2     9     8    1
     3     9    10    2
     4     9    12    1
     5     7     6    1
     6     8     6   ar
     7     8     5   ar
     8     6     2   ar
     9     5     4   ar
    10     2     1    1
    11     2     3   ar
    12     4     3   ar
    13    12    13    1
    14    13    14    2
    15    13    15    1
    16    14    18    2
    17    15    16    1
    18    18    19    1
    19    18    17    1
    20    24    23    1
    21    16    17    2
    22    19    20    1
    23    23    22    1
    24    20    22   am
    25    20    21    2
    26    22    25    1
    27    26    25    1
