@<TRIPOS>MOLECULE
3g4a_UMP_A_1.pdb
 20 21 0 0 0
SMALL
GASTEIGER

@<TRIPOS>ATOM
      1  N1        43.0370   52.3590  128.7830 N.am  303  UMP303     -0.1790
      2  C2        43.2000   50.9460  128.7900 C.1   303  UMP303      0.2844
      3  N3        44.3730   50.4200  129.3880 N.2   303  UMP303     -0.2452
      4  C4        45.3130   51.2750  129.9730 C.1   303  UMP303      0.2182
      5  C5        45.0640   52.7450  129.8940 C.2   303  UMP303      0.1242
      6  C6        44.0580   53.2080  129.3630 C.2   303  UMP303      0.0928
      7  O2        42.3730   50.2050  128.3040 O.2   303  UMP303     -0.1918
      8  O4        46.3270   50.7760  130.5220 O.2   303  UMP303     -0.2085
      9  C1'       41.8210   52.9000  128.1420 C.3   303  UMP303      0.2090
     10  C2'       40.6690   52.5110  129.0240 C.3   303  UMP303      0.0874
     11  C3'       39.8300   53.7540  129.0750 C.3   303  UMP303      0.1857
     12  C4'       40.8000   54.8750  128.7710 C.3   303  UMP303      0.1774
     13  O3'       38.8510   53.6670  128.0610 O.3   303  UMP303     -0.2203
     14  O4'       41.8800   54.3030  128.0360 O.3   303  UMP303     -0.3339
     15  C5'       41.3520   55.5250  130.0350 C.3   303  UMP303      0.1858
     16  O5'       41.8010   54.5180  130.9310 O.3   303  UMP303     -0.2675
     17  P         42.5020   54.8730  132.3250 P.3   303  UMP303      0.5327
     18  OP1       42.3840   53.5470  133.0590 O.3   303  UMP303     -0.1145
     19  OP2       43.9130   55.3410  132.0490 O.2   303  UMP303     -0.2224
     20  OP3       41.8080   56.0690  132.8890 O.3   303  UMP303     -0.1145
@<TRIPOS>BOND
     1    14     9    1
     2    14    12    1
     3    13    11    1
     4     9     1    1
     5     9    10    1
     6     7     2    2
     7    12    11    1
     8    12    15    1
     9     1     2   am
    10     1     6    1
    11     2     3    2
    12    10    11    1
    13     6     5    2
    14     3     4    2
    15     5     4    1
    16     4     8    2
    17    15    16    1
    18    16    17    1
    19    19    17    2
    20    17    20    1
    21    17    18    1
