@<TRIPOS>MOLECULE
3g4c_UMP_A_1.pdb
 20 21 0 0 0
SMALL
GASTEIGER

@<TRIPOS>ATOM
      1  N1        43.0050   52.6720  128.9140 N.am  303  UMP303     -0.1790
      2  C2        43.2380   51.2640  128.8990 C.1   303  UMP303      0.2844
      3  N3        44.4230   50.8010  129.5020 N.2   303  UMP303     -0.2452
      4  C4        45.3410   51.6950  130.0790 C.1   303  UMP303      0.2182
      5  C5        45.0410   53.1730  130.0080 C.2   303  UMP303      0.1242
      6  C6        43.9940   53.5760  129.4920 C.2   303  UMP303      0.0928
      7  O2        42.4120   50.5140  128.3960 O.2   303  UMP303     -0.1918
      8  O4        46.3780   51.2380  130.6050 O.2   303  UMP303     -0.2085
      9  C1'       41.7680   53.1090  128.2520 C.3   303  UMP303      0.2090
     10  C2'       40.5580   52.6810  129.0490 C.3   303  UMP303      0.0874
     11  C3'       39.7140   53.9210  129.1700 C.3   303  UMP303      0.1857
     12  C4'       40.6990   55.0500  128.9010 C.3   303  UMP303      0.1774
     13  O3'       38.6770   53.9120  128.1850 O.3   303  UMP303     -0.2203
     14  O4'       41.7830   54.5120  128.1600 O.3   303  UMP303     -0.3339
     15  C5'       41.2580   55.7120  130.1600 C.3   303  UMP303      0.1858
     16  O5'       41.7000   54.7250  131.0800 O.3   303  UMP303     -0.2675
     17  P         42.6200   55.1640  132.3210 P.3   303  UMP303      0.5327
     18  OP1       42.7080   53.8940  133.1600 O.3   303  UMP303     -0.1145
     19  OP2       44.0040   55.6390  131.8730 O.2   303  UMP303     -0.2224
     20  OP3       41.8630   56.2930  132.9690 O.3   303  UMP303     -0.1145
@<TRIPOS>BOND
     1    14     9    1
     2    14    12    1
     3    13    11    1
     4     9     1    1
     5     9    10    1
     6     7     2    2
     7     2     1   am
     8     2     3    2
     9    12    11    1
    10    12    15    1
    11     1     6    1
    12    10    11    1
    13     6     5    2
    14     3     4    2
    15     5     4    1
    16     4     8    2
    17    15    16    1
    18    16    17    1
    19    19    17    2
    20    17    20    1
    21    17    18    1
