@<TRIPOS>MOLECULE
3g4f_FPF_A_1.pdb
 25 24 0 0 0
SMALL
GASTEIGER

@<TRIPOS>ATOM
      1  C1        14.9950  -48.3920   12.4930 C.3   801  FPF801      0.2044
      2  O1        15.4410  -49.5580   13.1240 O.3   801  FPF801     -0.3065
      3  C2        15.8310  -47.2510   13.0920 C.2   801  FPF801      0.1400
      4  F         17.1750  -47.3450   13.0750 F     801  FPF801     -0.2069
      5  C3        15.2320  -46.2070   13.6550 C.2   801  FPF801     -0.0178
      6  C4        13.7030  -46.1420   13.6560 C.3   801  FPF801      0.0284
      7  C5        16.0820  -45.0780   14.3070 C.3   801  FPF801      0.0287
      8  C6        16.2620  -43.7310   13.5270 C.3   801  FPF801      0.0298
      9  C7        15.0900  -42.8020   13.9300 C.2   801  FPF801     -0.0342
     10  C8        15.0570  -41.4840   13.6560 C.2   801  FPF801     -0.0478
     11  C10       16.2270  -40.7530   12.9590 C.3   801  FPF801      0.0260
     12  C9        13.8070  -40.7070   14.1080 C.3   801  FPF801      0.0263
     13  C11       12.6010  -40.7000   13.1420 C.3   801  FPF801      0.0297
     14  C12       11.2600  -41.1710   13.7580 C.2   801  FPF801     -0.0342
     15  C13       10.8170  -42.4300   13.6280 C.2   801  FPF801     -0.0478
     16  C14        9.4890  -42.8680   14.2580 C.3   801  FPF801      0.0260
     17  C15       11.6320  -43.4630   12.8480 C.3   801  FPF801      0.0260
     18  P1        14.4080  -50.6780   13.3590 P.3   801  FPF801      0.2234
     19  O1A       14.6850  -51.2580   14.6940 O.3   801  FPF801     -0.4370
     20  O2A       13.1210  -49.9630   13.2970 O.2   801  FPF801     -0.5169
     21  O3A       14.6060  -51.6650   12.2560 O.3   801  FPF801     -0.2261
     22  P2        16.0540  -52.5150   12.2150 P.3   801  FPF801      0.5373
     23  O1B       15.7960  -54.1590   12.2780 O.3   801  FPF801     -0.1143
     24  O2B       16.8360  -52.2090   10.7900 O.2   801  FPF801     -0.2221
     25  O3B       17.0340  -52.0650   13.4740 O.3   801  FPF801     -0.1143
@<TRIPOS>BOND
     1    24    22    2
     2    22    21    1
     3    22    23    1
     4    22    25    1
     5    21    18    1
     6     1     3    1
     7     1     2    1
     8    17    15    1
     9    11    10    1
    10     4     3    1
    11     3     5    2
    12     2    18    1
    13    13    14    1
    14    13    12    1
    15    20    18    2
    16    18    19    1
    17     8     9    1
    18     8     7    1
    19    15    14    2
    20    15    16    1
    21     5     6    1
    22     5     7    1
    23    10     9    2
    24    10    12    1
