@<TRIPOS>MOLECULE
3g4g_D71_A_1.pdb
 28 31 0 0 0
SMALL
GASTEIGER

@<TRIPOS>ATOM
      1  C1        22.8030    6.1990   19.3350 C.ar  901  D71901      0.0094
      2  C2        23.3830    6.8010   18.2730 C.ar  901  D71901      0.0908
      3  C3        24.5750    7.6690   18.4920 C.ar  901  D71901      0.1556
      4  C5        24.3860    7.2020   20.8450 C.ar  901  D71901      0.1005
      5  C6        23.3160    6.4070   20.6950 C.ar  901  D71901      0.0209
      6  C14       24.6490    8.1110   16.0360 C.ar  901  D71901      0.3390
      7  O56       26.5800   13.2340   16.5470 O.2   901  D71901     -0.1261
      8  N54       27.5480   12.7130   17.0080 N.pl3 901  D71901      0.0577
      9  O58       28.6660   13.4350   17.1370 O.2   901  D71901     -0.1261
     10  C40       27.5450   11.3520   17.3710 C.ar  901  D71901      0.1443
     11  C39       26.4190   10.6000   17.1790 C.ar  901  D71901      0.0418
     12  C41       28.7720   10.7260   17.9250 C.ar  901  D71901      0.0242
     13  C42       28.7720    9.4190   18.2340 C.ar  901  D71901      0.0032
     14  C43       27.5470    8.6010   18.0380 C.ar  901  D71901      0.0178
     15  C22       26.4070    9.1600   17.5230 C.ar  901  D71901      0.0713
     16  N13       25.2100    8.3110   17.3510 N.ar  901  D71901     -0.2445
     17  N4        25.0070    7.8570   19.7310 N.ar  901  D71901     -0.2261
     18  O52       25.1890    8.6440   15.0670 O.2   901  D71901     -0.2458
     19  N15       23.4740    7.2720   15.8330 N.ar  901  D71901     -0.2442
     20  C16       22.8490    6.6060   16.9220 C.ar  901  D71901      0.2674
     21  O50       21.8240    5.8860   16.7150 O.2   901  D71901     -0.2667
     22  C24       22.9400    7.0450   14.4600 C.3   901  D71901      0.1404
     23  C26       23.9070    6.2280   13.6530 C.ar  901  D71901      0.0037
     24  C32       24.7040    6.7310   12.6790 C.ar  901  D71901      0.0183
     25  C31       25.6440    5.8030   11.9630 C.ar  901  D71901      0.0986
     26  N30       25.6770    4.5340   12.2870 N.ar  901  D71901     -0.2423
     27  C29       24.8480    4.0100   13.3310 C.ar  901  D71901      0.0986
     28  C28       24.0060    4.8020   14.0200 C.ar  901  D71901      0.0183
@<TRIPOS>BOND
     1    25    26   ar
     2    25    24   ar
     3    26    27   ar
     4    24    23   ar
     5    27    28   ar
     6    23    28   ar
     7    23    22    1
     8    22    19    1
     9    18     6    2
    10    19     6   ar
    11    19    20   ar
    12     6    16   ar
    13     7     8    2
    14    21    20    2
    15    20     2   ar
    16     8     9    2
    17     8    10    1
    18    11    10   ar
    19    11    15   ar
    20    16    15    1
    21    16     3   ar
    22    10    12   ar
    23    15    14   ar
    24    12    13   ar
    25    14    13   ar
    26     2     3   ar
    27     2     1   ar
    28     3    17   ar
    29     1     5   ar
    30    17     4   ar
    31     5     4   ar
