@<TRIPOS>MOLECULE
3g4i_D71_A_1.pdb
 28 31 0 0 0
SMALL
GASTEIGER

@<TRIPOS>ATOM
      1  C1        22.5110   -1.3240   34.6220 C.ar  901  D71901      0.0094
      2  C2        22.4680   -2.3810   33.7660 C.ar  901  D71901      0.0908
      3  C3        22.5330   -3.7720   34.3510 C.ar  901  D71901      0.1556
      4  C5        22.6670   -2.8330   36.5500 C.ar  901  D71901      0.1005
      5  C6        22.6100   -1.5580   36.0770 C.ar  901  D71901      0.0209
      6  C14       22.3910   -4.6890   31.9970 C.ar  901  D71901      0.3390
      7  O56       25.7760   -8.7430   32.6360 O.2   901  D71901     -0.1261
      8  N54       24.9730   -9.1890   33.4010 N.pl3 901  D71901      0.0577
      9  O58       25.1210  -10.4680   33.7810 O.2   901  D71901     -0.1261
     10  C40       23.8740   -8.4150   33.8750 C.ar  901  D71901      0.1443
     11  C39       23.7120   -7.1110   33.4770 C.ar  901  D71901      0.0418
     12  C41       22.8410   -8.9990   34.7970 C.ar  901  D71901      0.0242
     13  C42       21.7830   -8.2720   35.2220 C.ar  901  D71901      0.0032
     14  C43       21.6200   -6.8500   34.7830 C.ar  901  D71901      0.0178
     15  C22       22.5530   -6.3010   33.9440 C.ar  901  D71901      0.0713
     16  N13       22.4900   -4.9170   33.4590 N.ar  901  D71901     -0.2445
     17  N4        22.6260   -3.9390   35.6500 N.ar  901  D71901     -0.2261
     18  O52       22.3550   -5.6570   31.2290 O.2   901  D71901     -0.2458
     19  N15       22.3490   -3.3360   31.4350 N.ar  901  D71901     -0.2442
     20  C16       22.3750   -2.1890   32.2930 C.ar  901  D71901      0.2674
     21  O50       22.3380   -1.0260   31.7870 O.2   901  D71901     -0.2667
     22  C24       22.2500   -3.1620   29.9550 C.3   901  D71901      0.1404
     23  C26       20.8820   -3.5660   29.4500 C.ar  901  D71901      0.0037
     24  C32       20.6260   -4.6480   28.6710 C.ar  901  D71901      0.0183
     25  C31       19.2210   -4.9050   28.2730 C.ar  901  D71901      0.0986
     26  N30       18.2720   -4.1070   28.6930 N.ar  901  D71901     -0.2423
     27  C29       18.5380   -2.9720   29.5220 C.ar  901  D71901      0.0986
     28  C28       19.7840   -2.6880   29.9130 C.ar  901  D71901      0.0183
@<TRIPOS>BOND
     1    25    24   ar
     2    25    26   ar
     3    24    23   ar
     4    26    27   ar
     5    23    28   ar
     6    23    22    1
     7    27    28   ar
     8    22    19    1
     9    18     6    2
    10    19     6   ar
    11    19    20   ar
    12    21    20    2
    13     6    16   ar
    14    20     2   ar
    15     7     8    2
    16     8     9    2
    17     8    10    1
    18    16    15    1
    19    16     3   ar
    20    11    10   ar
    21    11    15   ar
    22     2     3   ar
    23     2     1   ar
    24    10    12   ar
    25    15    14   ar
    26     3    17   ar
    27     1     5   ar
    28    14    13   ar
    29    12    13   ar
    30    17     4   ar
    31     5     4   ar
