@<TRIPOS>MOLECULE
3g4k_ROL_A_1.pdb
 20 22 0 0 0
SMALL
GASTEIGER

@<TRIPOS>ATOM
      1  C5        21.1670   -2.8930   31.0380 C.ar  901  ROL901     -0.0162
      2  C6        21.5800   -4.0560   31.6800 C.ar  901  ROL901      0.0359
      3  C7        22.0070   -4.0330   33.0190 C.ar  901  ROL901      0.1717
      4  C8        22.0030   -2.7630   33.7650 C.ar  901  ROL901      0.1724
      5  C9        21.5810   -1.6220   33.0910 C.ar  901  ROL901      0.0397
      6  C10       21.1710   -1.6880   31.7490 C.ar  901  ROL901     -0.0009
      7  C3        20.7290   -3.0200   29.6160 C.3   901  ROL901      0.0642
      8  C2        19.2980   -2.5240   29.3680 C.3   901  ROL901      0.1280
      9  C1        19.3640   -1.8970   27.9890 C.1   901  ROL901      0.1264
     10  O1        18.3800   -1.5490   27.3350 O.2   901  ROL901     -0.2270
     11  N1        20.6410   -1.7940   27.6220 N.2   901  ROL901     -0.2059
     12  C4        21.6000   -2.2700   28.6110 C.3   901  ROL901      0.1429
     13  O3        22.4110   -5.1560   33.6860 O.3   901  ROL901     -0.4761
     14  C11       22.5040   -6.4230   33.0320 C.3   901  ROL901      0.1660
     15  C15       21.1120   -7.0060   32.9320 C.3   901  ROL901      0.0435
     16  C14       20.9030   -7.8180   34.1940 C.3   901  ROL901      0.0038
     17  C13       22.2750   -8.0640   34.7910 C.3   901  ROL901      0.0038
     18  C12       23.2920   -7.4120   33.8780 C.3   901  ROL901      0.0435
     19  O2        22.4190   -2.7790   35.0820 O.3   901  ROL901     -0.4684
     20  C16       22.3180   -1.6500   35.9490 C.3   901  ROL901      0.2526
@<TRIPOS>BOND
     1    10     9    2
     2    11     9    2
     3    11    12    1
     4     9     8    1
     5    12     7    1
     6     8     7    1
     7     7     1    1
     8     1     2   ar
     9     1     6   ar
    10     2     3   ar
    11     6     5   ar
    12    15    14    1
    13    15    16    1
    14     3    13    1
    15     3     4   ar
    16    14    13    1
    17    14    18    1
    18     5     4   ar
    19     4    19    1
    20    18    17    1
    21    16    17    1
    22    19    20    1
