@<TRIPOS>MOLECULE
3g4l_ROF_A_1.pdb
 26 28 0 0 0
SMALL
GASTEIGER

@<TRIPOS>ATOM
      1  O24       20.7990   -4.7950   28.8480 O.2   901  ROF901     -0.2680
      2  C23       23.5250   -8.9900   34.2760 C.3   901  ROF901      0.0038
      3  C22       22.6750   -9.6160   33.1710 C.3   901  ROF901      0.0038
      4  C21       22.4660   -8.1640   33.5680 C.3   901  ROF901      0.0438
      5  C8        21.1530   -3.6730   29.1700 C.2   901  ROF901      0.2691
      6  C9        21.5620   -3.5750   30.6070 C.ar  901  ROF901      0.0586
      7  C10       21.4300   -2.4010   31.3460 C.ar  901  ROF901      0.0079
      8  C11       21.7650   -2.3880   32.7040 C.ar  901  ROF901      0.0404
      9  C12       22.2140   -3.5590   33.3370 C.ar  901  ROF901      0.1779
     10  O15       22.5580   -3.6370   34.6670 O.3   901  ROF901     -0.4205
     11  C16       22.7660   -2.5200   35.5070 C.3   901  ROF901      0.5087
     12  F18       23.5790   -1.6130   34.8790 F     901  ROF901     -0.1550
     13  F17       21.5450   -1.9960   35.7840 F     901  ROF901     -0.1550
     14  C13       22.3140   -4.7370   32.6110 C.ar  901  ROF901      0.1725
     15  O19       22.7580   -5.8640   33.2730 O.3   901  ROF901     -0.4724
     16  C20       23.0240   -7.1110   32.6350 C.3   901  ROF901      0.2054
     17  C14       21.9670   -4.7420   31.2530 C.ar  901  ROF901      0.0446
     18  N7        21.0250   -2.6100   28.3610 N.am  901  ROF901     -0.1736
     19  C6        20.4070   -2.7050   27.1270 C.ar  901  ROF901      0.0977
     20  C5        20.9470   -1.9530   26.1130 C.ar  901  ROF901      0.0929
     21 CL26       22.2250   -0.7930   26.5400 Cl    901  ROF901     -0.0792
     22  C4        20.5110   -2.0710   24.7980 C.ar  901  ROF901      0.1116
     23  N3        19.5640   -2.9490   24.4520 N.ar  901  ROF901     -0.2405
     24  C2        19.0120   -3.7260   25.3920 C.ar  901  ROF901      0.1116
     25  C1        19.4110   -3.6240   26.7320 C.ar  901  ROF901      0.0929
     26 CL25       18.5560   -4.7120   27.8740 Cl    901  ROF901     -0.0792
@<TRIPOS>BOND
     1    23    22   ar
     2    23    24   ar
     3    22    20   ar
     4    24    25   ar
     5    20    21    1
     6    20    19   ar
     7    25    19   ar
     8    25    26    1
     9    19    18    1
    10    18     5   am
    11     1     5    2
    12     5     6    1
    13     6    17   ar
    14     6     7   ar
    15    17    14   ar
    16     7     8   ar
    17    14    15    1
    18    14     9   ar
    19    16    15    1
    20    16     4    1
    21     8     9   ar
    22     3     4    1
    23     3     2    1
    24     9    10    1
    25     4     2    1
    26    10    11    1
    27    12    11    1
    28    11    13    1
