@<TRIPOS>MOLECULE
3g4q_HEM_A_1.pdb
 43 50 0 0 0
SMALL
GASTEIGER

@<TRIPOS>ATOM
      1  CHA       41.8890   -0.5180   17.4790 C.2   147  HEM147      0.0000
      2  CHB       39.5400   -1.9810   21.5020 C.2   147  HEM147      0.0000
      3  CHC       43.8310   -3.3800   23.4030 C.2   147  HEM147      0.0000
      4  CHD       45.9720   -2.5640   19.1020 C.2   147  HEM147      0.0000
      5  C1A       40.8950   -0.7790   18.4260 C.2   147  HEM147      0.0000
      6  C2A       39.5120   -0.4050   18.2660 C.2   147  HEM147      0.0000
      7  C3A       38.8590   -0.7780   19.3960 C.2   147  HEM147      0.0000
      8  C4A       39.8200   -1.4200   20.2550 C.2   147  HEM147      0.0000
      9  CMA       37.3750   -0.5670   19.6890 C.3   147  HEM147      0.0000
     10  CAA       38.9080    0.1920   16.9980 C.3   147  HEM147      0.0000
     11  CBA       38.6940   -0.8970   15.9550 C.3   147  HEM147      0.0000
     12  CGA       38.5520   -0.3390   14.5560 C.2   147  HEM147      0.0000
     13  O1A       37.8310    0.6650   14.3890 O.co2 147  HEM147      0.0000
     14  O2A       39.1570   -0.9110   13.6230 O.co2 147  HEM147      0.0000
     15  C1B       40.5120   -2.5480   22.3560 C.ar  147  HEM147      0.0000
     16  C2B       40.2450   -3.0410   23.6910 C.ar  147  HEM147      0.0000
     17  C3B       41.4530   -3.3720   24.2600 C.ar  147  HEM147      0.0000
     18  C4B       42.4610   -3.1030   23.2430 C.ar  147  HEM147      0.0000
     19  CMB       38.8540   -3.2250   24.2930 C.3   147  HEM147      0.0000
     20  CAB       41.7160   -3.9540   25.5080 C.3   147  HEM147      0.0000
     21  CBB       41.0560   -3.6460   26.7460 C.3   147  HEM147      0.0000
     22  C1C       44.7820   -3.2840   22.3870 C.2   147  HEM147      0.0000
     23  C2C       46.1870   -3.6010   22.5260 C.2   147  HEM147      0.0000
     24  C3C       46.7930   -3.3870   21.3170 C.2   147  HEM147      0.0000
     25  C4C       45.7420   -2.9560   20.4180 C.2   147  HEM147      0.0000
     26  CMC       46.8350   -4.0620   23.8310 C.3   147  HEM147      0.0000
     27  CAC       48.1560   -3.4810   20.9600 C.3   147  HEM147      0.0000
     28  CBC       49.1930   -4.2100   21.6610 C.3   147  HEM147      0.0000
     29  C1D       45.0440   -1.9060   18.2860 C.ar  147  HEM147      0.0000
     30  C2D       45.3710   -1.2810   17.0330 C.ar  147  HEM147      0.0000
     31  C3D       44.2450   -0.6600   16.5950 C.ar  147  HEM147      0.0000
     32  C4D       43.2210   -0.9100   17.5930 C.ar  147  HEM147      0.0000
     33  CMD       46.7240   -1.3230   16.3270 C.3   147  HEM147      0.0000
     34  CAD       44.0850    0.1650   15.3310 C.3   147  HEM147      0.0000
     35  CBD       44.1470    1.6550   15.6070 C.3   147  HEM147      0.0000
     36  CGD       43.8670    2.4780   14.3700 C.2   147  HEM147      0.0000
     37  O1D       44.6830    2.4260   13.4230 O.co2 147  HEM147      0.0000
     38  O2D       42.8260    3.1670   14.3440 O.co2 147  HEM147      0.0000
     39  NA        41.0720   -1.4240   19.6400 N.2   147  HEM147      0.0000
     40  NB        41.8750   -2.6190   22.0730 N.ar  147  HEM147      0.0000
     41  NC        44.5250   -2.8450   21.0960 N.2   147  HEM147      0.0000
     42  ND        43.7340   -1.6410   18.6460 N.ar  147  HEM147      0.0000
     43 FE         42.8000   -2.1380   20.3580 Fe    147  HEM147      0.0000
@<TRIPOS>BOND
     1    37    36   ar
     2    14    12   ar
     3    38    36   ar
     4    36    35    1
     5    13    12   ar
     6    12    11    1
     7    34    35    1
     8    34    31    1
     9    11    10    1
    10    33    30    1
    11    31    30   ar
    12    31    32   ar
    13    10     6    1
    14    30    29   ar
    15     1    32    2
    16     1     5    1
    17    32    42   ar
    18     6     5    1
    19     6     7    2
    20    29    42   ar
    21    29     4    2
    22     5    39    2
    23    42    43    1
    24     4    25    1
    25     7     9    1
    26     7     8    1
    27    39     8    1
    28    39    43    1
    29     8     2    2
    30    43    41    1
    31    43    40    1
    32    25    41    2
    33    25    24    1
    34    27    24    1
    35    27    28    1
    36    41    22    1
    37    24    23    2
    38     2    15    1
    39    40    15   ar
    40    40    18   ar
    41    15    16   ar
    42    22    23    1
    43    22     3    2
    44    23    26    1
    45    18     3    1
    46    18    17   ar
    47    16    17   ar
    48    16    19    1
    49    17    20    1
    50    20    21    1
