@<TRIPOS>MOLECULE
3g4r_HEM_A_1.pdb
 43 50 0 0 0
SMALL
GASTEIGER

@<TRIPOS>ATOM
      1  CHA       41.8890   -0.5220   17.5100 C.2   147  HEM147      0.0000
      2  CHB       39.5040   -2.0240   21.5040 C.2   147  HEM147      0.0000
      3  CHC       43.8040   -3.4140   23.4200 C.2   147  HEM147      0.0000
      4  CHD       45.9770   -2.6290   19.1090 C.2   147  HEM147      0.0000
      5  C1A       40.8830   -0.8070   18.4410 C.2   147  HEM147      0.0000
      6  C2A       39.4960   -0.4510   18.2750 C.2   147  HEM147      0.0000
      7  C3A       38.8420   -0.8240   19.3980 C.2   147  HEM147      0.0000
      8  C4A       39.7990   -1.4610   20.2610 C.2   147  HEM147      0.0000
      9  CMA       37.3690   -0.5840   19.7180 C.3   147  HEM147      0.0000
     10  CAA       38.9060    0.1400   17.0030 C.3   147  HEM147      0.0000
     11  CBA       38.6970   -0.9390   15.9520 C.3   147  HEM147      0.0000
     12  CGA       38.5720   -0.3710   14.5550 C.2   147  HEM147      0.0000
     13  O1A       37.8800    0.6550   14.3870 O.co2 147  HEM147      0.0000
     14  O2A       39.1620   -0.9580   13.6220 O.co2 147  HEM147      0.0000
     15  C1B       40.4740   -2.5880   22.3690 C.ar  147  HEM147      0.0000
     16  C2B       40.2160   -3.0490   23.7200 C.ar  147  HEM147      0.0000
     17  C3B       41.4230   -3.3830   24.2790 C.ar  147  HEM147      0.0000
     18  C4B       42.4300   -3.1460   23.2500 C.ar  147  HEM147      0.0000
     19  CMB       38.8330   -3.1950   24.3590 C.3   147  HEM147      0.0000
     20  CAB       41.7040   -3.9130   25.5450 C.3   147  HEM147      0.0000
     21  CBB       41.0380   -3.5850   26.7750 C.3   147  HEM147      0.0000
     22  C1C       44.7590   -3.3300   22.4040 C.2   147  HEM147      0.0000
     23  C2C       46.1680   -3.6530   22.5570 C.2   147  HEM147      0.0000
     24  C3C       46.7720   -3.4720   21.3410 C.2   147  HEM147      0.0000
     25  C4C       45.7340   -3.0390   20.4260 C.2   147  HEM147      0.0000
     26  CMC       46.8010   -4.0710   23.8850 C.3   147  HEM147      0.0000
     27  CAC       48.1330   -3.5950   20.9800 C.3   147  HEM147      0.0000
     28  CBC       49.1730   -4.2800   21.7130 C.3   147  HEM147      0.0000
     29  C1D       45.0500   -1.9480   18.3010 C.ar  147  HEM147      0.0000
     30  C2D       45.3750   -1.2970   17.0560 C.ar  147  HEM147      0.0000
     31  C3D       44.2530   -0.6660   16.6320 C.ar  147  HEM147      0.0000
     32  C4D       43.2250   -0.9180   17.6260 C.ar  147  HEM147      0.0000
     33  CMD       46.7270   -1.3270   16.3550 C.3   147  HEM147      0.0000
     34  CAD       44.0920    0.1590   15.3690 C.3   147  HEM147      0.0000
     35  CBD       44.1590    1.6450   15.6340 C.3   147  HEM147      0.0000
     36  CGD       43.8550    2.4580   14.3940 C.2   147  HEM147      0.0000
     37  O1D       44.6520    2.4050   13.4310 O.co2 147  HEM147      0.0000
     38  O2D       42.8080    3.1370   14.3830 O.co2 147  HEM147      0.0000
     39  NA        41.0580   -1.4510   19.6490 N.2   147  HEM147      0.0000
     40  NB        41.8370   -2.6720   22.0750 N.ar  147  HEM147      0.0000
     41  NC        44.5060   -2.9170   21.1020 N.2   147  HEM147      0.0000
     42  ND        43.7430   -1.6750   18.6700 N.ar  147  HEM147      0.0000
     43 FE         42.7840   -2.1800   20.3700 Fe    147  HEM147      0.0000
@<TRIPOS>BOND
     1    37    36   ar
     2    14    12   ar
     3    38    36   ar
     4    13    12   ar
     5    36    35    1
     6    12    11    1
     7    34    35    1
     8    34    31    1
     9    11    10    1
    10    33    30    1
    11    31    30   ar
    12    31    32   ar
    13    10     6    1
    14    30    29   ar
    15     1    32    2
    16     1     5    1
    17    32    42   ar
    18     6     5    1
    19     6     7    2
    20    29    42   ar
    21    29     4    2
    22     5    39    2
    23    42    43    1
    24     4    25    1
    25     7     9    1
    26     7     8    1
    27    39     8    1
    28    39    43    1
    29     8     2    2
    30    43    41    1
    31    43    40    1
    32    25    41    2
    33    25    24    1
    34    27    24    1
    35    27    28    1
    36    41    22    1
    37    24    23    2
    38     2    15    1
    39    40    15   ar
    40    40    18   ar
    41    15    16   ar
    42    22    23    1
    43    22     3    2
    44    23    26    1
    45    18     3    1
    46    18    17   ar
    47    16    17   ar
    48    16    19    1
    49    17    20    1
    50    20    21    1
