@<TRIPOS>MOLECULE
3g4u_HEM_A_1.pdb
 43 50 0 0 0
SMALL
GASTEIGER

@<TRIPOS>ATOM
      1  CHA       41.8890   -0.5680   17.4570 C.2   147  HEM147      0.0000
      2  CHB       39.5490   -1.9280   21.5040 C.2   147  HEM147      0.0000
      3  CHC       43.7880   -3.4710   23.3600 C.2   147  HEM147      0.0000
      4  CHD       46.0060   -2.5580   19.1370 C.2   147  HEM147      0.0000
      5  C1A       40.8830   -0.7700   18.4120 C.2   147  HEM147      0.0000
      6  C2A       39.4880   -0.4030   18.2390 C.2   147  HEM147      0.0000
      7  C3A       38.8330   -0.7500   19.3770 C.2   147  HEM147      0.0000
      8  C4A       39.8220   -1.3730   20.2470 C.2   147  HEM147      0.0000
      9  CMA       37.3510   -0.5410   19.6800 C.3   147  HEM147      0.0000
     10  CAA       38.9000    0.1410   16.9430 C.3   147  HEM147      0.0000
     11  CBA       38.6730   -0.9830   15.9390 C.3   147  HEM147      0.0000
     12  CGA       38.5430   -0.4780   14.5170 C.2   147  HEM147      0.0000
     13  O1A       37.7400    0.4520   14.2840 O.co2 147  HEM147      0.0000
     14  O2A       39.2450   -1.0130   13.6290 O.co2 147  HEM147      0.0000
     15  C1B       40.4930   -2.5430   22.3440 C.ar  147  HEM147      0.0000
     16  C2B       40.2150   -3.0330   23.6830 C.ar  147  HEM147      0.0000
     17  C3B       41.4040   -3.4310   24.2210 C.ar  147  HEM147      0.0000
     18  C4B       42.4150   -3.1880   23.2000 C.ar  147  HEM147      0.0000
     19  CMB       38.8560   -3.0790   24.3740 C.3   147  HEM147      0.0000
     20  CAB       41.6260   -4.0070   25.4700 C.3   147  HEM147      0.0000
     21  CBB       41.2560   -3.3960   26.7210 C.3   147  HEM147      0.0000
     22  C1C       44.7660   -3.3270   22.3790 C.2   147  HEM147      0.0000
     23  C2C       46.1850   -3.6170   22.5760 C.2   147  HEM147      0.0000
     24  C3C       46.8240   -3.3750   21.3890 C.2   147  HEM147      0.0000
     25  C4C       45.7770   -2.9530   20.4570 C.2   147  HEM147      0.0000
     26  CMC       46.8060   -4.0870   23.8950 C.3   147  HEM147      0.0000
     27  CAC       48.1950   -3.3880   21.0990 C.3   147  HEM147      0.0000
     28  CBC       49.2280   -4.1700   21.7420 C.3   147  HEM147      0.0000
     29  C1D       45.0680   -1.9400   18.3020 C.ar  147  HEM147      0.0000
     30  C2D       45.3930   -1.3380   17.0130 C.ar  147  HEM147      0.0000
     31  C3D       44.2570   -0.7480   16.5820 C.ar  147  HEM147      0.0000
     32  C4D       43.2220   -0.9780   17.5760 C.ar  147  HEM147      0.0000
     33  CMD       46.7190   -1.3570   16.2660 C.3   147  HEM147      0.0000
     34  CAD       44.1020    0.0630   15.3130 C.3   147  HEM147      0.0000
     35  CBD       44.1800    1.5480   15.5930 C.3   147  HEM147      0.0000
     36  CGD       43.8840    2.3810   14.3620 C.2   147  HEM147      0.0000
     37  O1D       44.6130    2.2430   13.3580 O.co2 147  HEM147      0.0000
     38  O2D       42.9210    3.1690   14.4030 O.co2 147  HEM147      0.0000
     39  NA        41.0680   -1.3820   19.6350 N.2   147  HEM147      0.0000
     40  NB        41.8360   -2.6710   22.0500 N.ar  147  HEM147      0.0000
     41  NC        44.5310   -2.8850   21.0910 N.2   147  HEM147      0.0000
     42  ND        43.7440   -1.6870   18.6450 N.ar  147  HEM147      0.0000
     43 FE         42.7750   -2.1960   20.3300 Fe    147  HEM147      0.0000
@<TRIPOS>BOND
     1    37    36   ar
     2    14    12   ar
     3    13    12   ar
     4    36    38   ar
     5    36    35    1
     6    12    11    1
     7    34    35    1
     8    34    31    1
     9    11    10    1
    10    33    30    1
    11    31    30   ar
    12    31    32   ar
    13    10     6    1
    14    30    29   ar
    15     1    32    2
    16     1     5    1
    17    32    42   ar
    18     6     5    1
    19     6     7    2
    20    29    42   ar
    21    29     4    2
    22     5    39    2
    23    42    43    1
    24     4    25    1
    25     7     9    1
    26     7     8    1
    27    39     8    1
    28    39    43    1
    29     8     2    2
    30    43    41    1
    31    43    40    1
    32    25    41    2
    33    25    24    1
    34    41    22    1
    35    27    24    1
    36    27    28    1
    37    24    23    2
    38     2    15    1
    39    40    15   ar
    40    40    18   ar
    41    15    16   ar
    42    22    23    1
    43    22     3    2
    44    23    26    1
    45    18     3    1
    46    18    17   ar
    47    16    17   ar
    48    16    19    1
    49    17    20    1
    50    20    21    1
