@<TRIPOS>MOLECULE
3g4v_HEM_A_1.pdb
 43 50 0 0 0
SMALL
GASTEIGER

@<TRIPOS>ATOM
      1  CHA       41.9530   -0.5870   17.4880 C.2   147  HEM147      0.0000
      2  CHB       39.6440   -1.8860   21.5820 C.2   147  HEM147      0.0000
      3  CHC       43.8800   -3.4870   23.4010 C.2   147  HEM147      0.0000
      4  CHD       46.0580   -2.5830   19.1400 C.2   147  HEM147      0.0000
      5  C1A       40.9580   -0.7780   18.4580 C.2   147  HEM147      0.0000
      6  C2A       39.5760   -0.3510   18.3110 C.2   147  HEM147      0.0000
      7  C3A       38.9370   -0.6690   19.4710 C.2   147  HEM147      0.0000
      8  C4A       39.9200   -1.3150   20.3270 C.2   147  HEM147      0.0000
      9  CMA       37.4760   -0.4020   19.8150 C.3   147  HEM147      0.0000
     10  CAA       39.0100    0.2570   17.0300 C.3   147  HEM147      0.0000
     11  CBA       38.7190   -0.8280   15.9970 C.3   147  HEM147      0.0000
     12  CGA       38.6990   -0.2960   14.5760 C.2   147  HEM147      0.0000
     13  O1A       38.0200    0.7250   14.3330 O.co2 147  HEM147      0.0000
     14  O2A       39.3610   -0.9020   13.7020 O.co2 147  HEM147      0.0000
     15  C1B       40.5840   -2.5430   22.4010 C.ar  147  HEM147      0.0000
     16  C2B       40.2960   -3.0660   23.7230 C.ar  147  HEM147      0.0000
     17  C3B       41.4840   -3.4830   24.2530 C.ar  147  HEM147      0.0000
     18  C4B       42.5050   -3.2230   23.2420 C.ar  147  HEM147      0.0000
     19  CMB       38.9170   -3.1660   24.3700 C.3   147  HEM147      0.0000
     20  CAB       41.7020   -4.0720   25.4980 C.3   147  HEM147      0.0000
     21  CBB       41.1880   -3.5610   26.7410 C.3   147  HEM147      0.0000
     22  C1C       44.8630   -3.3230   22.4190 C.2   147  HEM147      0.0000
     23  C2C       46.2690   -3.6460   22.5920 C.2   147  HEM147      0.0000
     24  C3C       46.8900   -3.4080   21.3900 C.2   147  HEM147      0.0000
     25  C4C       45.8440   -2.9660   20.4700 C.2   147  HEM147      0.0000
     26  CMC       46.9020   -4.1970   23.8670 C.3   147  HEM147      0.0000
     27  CAC       48.2480   -3.4870   21.0800 C.3   147  HEM147      0.0000
     28  CBC       49.1860   -4.4680   21.5870 C.3   147  HEM147      0.0000
     29  C1D       45.1260   -1.9420   18.3140 C.ar  147  HEM147      0.0000
     30  C2D       45.4440   -1.3440   17.0270 C.ar  147  HEM147      0.0000
     31  C3D       44.3210   -0.7280   16.6100 C.ar  147  HEM147      0.0000
     32  C4D       43.2930   -0.9730   17.6070 C.ar  147  HEM147      0.0000
     33  CMD       46.7830   -1.3650   16.2920 C.3   147  HEM147      0.0000
     34  CAD       44.1880    0.1290   15.3680 C.3   147  HEM147      0.0000
     35  CBD       44.1950    1.6200   15.6710 C.3   147  HEM147      0.0000
     36  CGD       43.9280    2.4580   14.4360 C.2   147  HEM147      0.0000
     37  O1D       44.7230    2.3770   13.4770 O.co2 147  HEM147      0.0000
     38  O2D       42.9200    3.1930   14.4220 O.co2 147  HEM147      0.0000
     39  NA        41.1540   -1.3740   19.6920 N.2   147  HEM147      0.0000
     40  NB        41.9310   -2.6850   22.1030 N.ar  147  HEM147      0.0000
     41  NC        44.6180   -2.8800   21.1230 N.2   147  HEM147      0.0000
     42  ND        43.8140   -1.6780   18.6700 N.ar  147  HEM147      0.0000
     43 FE         42.8680   -2.1930   20.3780 Fe    147  HEM147      0.0000
@<TRIPOS>BOND
     1    37    36   ar
     2    14    12   ar
     3    13    12   ar
     4    38    36   ar
     5    36    35    1
     6    12    11    1
     7    34    35    1
     8    34    31    1
     9    11    10    1
    10    33    30    1
    11    31    30   ar
    12    31    32   ar
    13    30    29   ar
    14    10     6    1
    15     1    32    2
    16     1     5    1
    17    32    42   ar
    18     6     5    1
    19     6     7    2
    20    29    42   ar
    21    29     4    2
    22     5    39    2
    23    42    43    1
    24     4    25    1
    25     7     9    1
    26     7     8    1
    27    39     8    1
    28    39    43    1
    29     8     2    2
    30    43    41    1
    31    43    40    1
    32    25    41    2
    33    25    24    1
    34    27    24    1
    35    27    28    1
    36    41    22    1
    37    24    23    2
    38     2    15    1
    39    40    15   ar
    40    40    18   ar
    41    15    16   ar
    42    22    23    1
    43    22     3    2
    44    23    26    1
    45    18     3    1
    46    18    17   ar
    47    16    17   ar
    48    16    19    1
    49    17    20    1
    50    20    21    1
