@<TRIPOS>MOLECULE
3g4w_HEM_A_1.pdb
 43 50 0 0 0
SMALL
GASTEIGER

@<TRIPOS>ATOM
      1  CHA       42.0250   -0.4640   17.5500 C.2   147  HEM147      0.0000
      2  CHB       39.7140   -1.7330   21.6200 C.2   147  HEM147      0.0000
      3  CHC       43.8820   -3.5450   23.4020 C.2   147  HEM147      0.0000
      4  CHD       46.0880   -2.6050   19.1770 C.2   147  HEM147      0.0000
      5  C1A       41.0190   -0.7040   18.4900 C.2   147  HEM147      0.0000
      6  C2A       39.6380   -0.3040   18.3320 C.2   147  HEM147      0.0000
      7  C3A       38.9750   -0.6170   19.4730 C.2   147  HEM147      0.0000
      8  C4A       39.9610   -1.2560   20.3380 C.2   147  HEM147      0.0000
      9  CMA       37.4830   -0.4070   19.7370 C.3   147  HEM147      0.0000
     10  CAA       39.0730    0.2700   17.0350 C.3   147  HEM147      0.0000
     11  CBA       38.7750   -0.8420   16.0360 C.3   147  HEM147      0.0000
     12  CGA       38.7270   -0.3420   14.6060 C.2   147  HEM147      0.0000
     13  O1A       38.0970    0.7080   14.3640 O.co2 147  HEM147      0.0000
     14  O2A       39.3170   -1.0020   13.7260 O.co2 147  HEM147      0.0000
     15  C1B       40.6460   -2.3820   22.4550 C.ar  147  HEM147      0.0000
     16  C2B       40.3670   -2.8430   23.8200 C.ar  147  HEM147      0.0000
     17  C3B       41.5320   -3.3560   24.3140 C.ar  147  HEM147      0.0000
     18  C4B       42.5180   -3.2250   23.2510 C.ar  147  HEM147      0.0000
     19  CMB       38.9930   -2.9150   24.4940 C.3   147  HEM147      0.0000
     20  CAB       41.7740   -3.9450   25.5610 C.3   147  HEM147      0.0000
     21  CBB       41.1920   -3.5440   26.8200 C.3   147  HEM147      0.0000
     22  C1C       44.8470   -3.4330   22.4070 C.2   147  HEM147      0.0000
     23  C2C       46.2470   -3.7790   22.5840 C.2   147  HEM147      0.0000
     24  C3C       46.8880   -3.5580   21.3850 C.2   147  HEM147      0.0000
     25  C4C       45.8480   -3.0470   20.4760 C.2   147  HEM147      0.0000
     26  CMC       46.8620   -4.2110   23.9190 C.3   147  HEM147      0.0000
     27  CAC       48.2510   -3.7030   21.0420 C.3   147  HEM147      0.0000
     28  CBC       49.3620   -3.9930   21.9200 C.3   147  HEM147      0.0000
     29  C1D       45.1770   -1.9040   18.3750 C.ar  147  HEM147      0.0000
     30  C2D       45.5000   -1.2730   17.1020 C.ar  147  HEM147      0.0000
     31  C3D       44.3700   -0.6700   16.6670 C.ar  147  HEM147      0.0000
     32  C4D       43.3450   -0.8910   17.6690 C.ar  147  HEM147      0.0000
     33  CMD       46.8240   -1.3010   16.3560 C.3   147  HEM147      0.0000
     34  CAD       44.2090    0.1260   15.3840 C.3   147  HEM147      0.0000
     35  CBD       44.2970    1.6080   15.6910 C.3   147  HEM147      0.0000
     36  CGD       44.0390    2.4660   14.4700 C.2   147  HEM147      0.0000
     37  O1D       44.8610    2.4380   13.5310 O.co2 147  HEM147      0.0000
     38  O2D       43.0060    3.1620   14.4510 O.co2 147  HEM147      0.0000
     39  NA        41.2020   -1.3310   19.7020 N.2   147  HEM147      0.0000
     40  NB        41.9590   -2.6640   22.1110 N.ar  147  HEM147      0.0000
     41  NC        44.6160   -2.9480   21.1280 N.2   147  HEM147      0.0000
     42  ND        43.8560   -1.6340   18.7260 N.ar  147  HEM147      0.0000
     43 FE         42.9020   -2.1840   20.4020 Fe    147  HEM147      0.0000
@<TRIPOS>BOND
     1    37    36   ar
     2    14    12   ar
     3    13    12   ar
     4    38    36   ar
     5    36    35    1
     6    12    11    1
     7    34    35    1
     8    34    31    1
     9    11    10    1
    10    33    30    1
    11    31    30   ar
    12    31    32   ar
    13    10     6    1
    14    30    29   ar
    15     1    32    2
    16     1     5    1
    17    32    42   ar
    18     6     5    1
    19     6     7    2
    20    29    42   ar
    21    29     4    2
    22     5    39    2
    23    42    43    1
    24     4    25    1
    25     7     9    1
    26     7     8    1
    27    39     8    1
    28    39    43    1
    29     8     2    2
    30    43    41    1
    31    43    40    1
    32    25    41    2
    33    25    24    1
    34    27    24    1
    35    27    28    1
    36    41    22    1
    37    24    23    2
    38     2    15    1
    39    40    15   ar
    40    40    18   ar
    41    22    23    1
    42    22     3    2
    43    15    16   ar
    44    23    26    1
    45    18     3    1
    46    18    17   ar
    47    16    17   ar
    48    16    19    1
    49    17    20    1
    50    20    21    1
