@<TRIPOS>MOLECULE
3g4y_HEM_A_1.pdb
 43 50 0 0 0
SMALL
GASTEIGER

@<TRIPOS>ATOM
      1  CHA       41.9550   -0.4350   17.4810 C.2   147  HEM147      0.0000
      2  CHB       39.6230   -1.8860   21.5170 C.2   147  HEM147      0.0000
      3  CHC       43.9100   -3.3800   23.3570 C.2   147  HEM147      0.0000
      4  CHD       46.0510   -2.4960   19.0550 C.2   147  HEM147      0.0000
      5  C1A       40.9640   -0.6610   18.4420 C.2   147  HEM147      0.0000
      6  C2A       39.5730   -0.2930   18.2730 C.2   147  HEM147      0.0000
      7  C3A       38.9180   -0.6830   19.4010 C.2   147  HEM147      0.0000
      8  C4A       39.8970   -1.3230   20.2570 C.2   147  HEM147      0.0000
      9  CMA       37.4350   -0.4970   19.6980 C.3   147  HEM147      0.0000
     10  CAA       38.9970    0.2740   16.9760 C.3   147  HEM147      0.0000
     11  CBA       38.7420   -0.8360   15.9630 C.3   147  HEM147      0.0000
     12  CGA       38.6190   -0.3160   14.5460 C.2   147  HEM147      0.0000
     13  O1A       37.9300    0.7040   14.3450 O.co2 147  HEM147      0.0000
     14  O2A       39.2050   -0.9350   13.6340 O.co2 147  HEM147      0.0000
     15  C1B       40.5950   -2.4630   22.3580 C.ar  147  HEM147      0.0000
     16  C2B       40.3360   -2.9360   23.7000 C.ar  147  HEM147      0.0000
     17  C3B       41.5320   -3.2950   24.2540 C.ar  147  HEM147      0.0000
     18  C4B       42.5410   -3.0710   23.2180 C.ar  147  HEM147      0.0000
     19  CMB       38.9490   -3.0700   24.3360 C.3   147  HEM147      0.0000
     20  CAB       41.8130   -3.7780   25.5400 C.3   147  HEM147      0.0000
     21  CBB       41.0480   -3.5410   26.7360 C.3   147  HEM147      0.0000
     22  C1C       44.8680   -3.2830   22.3380 C.2   147  HEM147      0.0000
     23  C2C       46.2800   -3.6320   22.4800 C.2   147  HEM147      0.0000
     24  C3C       46.8740   -3.4020   21.2620 C.2   147  HEM147      0.0000
     25  C4C       45.8240   -2.9310   20.3720 C.2   147  HEM147      0.0000
     26  CMC       46.9330   -4.1280   23.7760 C.3   147  HEM147      0.0000
     27  CAC       48.2350   -3.4690   20.8970 C.3   147  HEM147      0.0000
     28  CBC       49.2930   -4.1320   21.6200 C.3   147  HEM147      0.0000
     29  C1D       45.1220   -1.8150   18.2660 C.ar  147  HEM147      0.0000
     30  C2D       45.4320   -1.1860   17.0070 C.ar  147  HEM147      0.0000
     31  C3D       44.3000   -0.5890   16.5780 C.ar  147  HEM147      0.0000
     32  C4D       43.2770   -0.8490   17.5750 C.ar  147  HEM147      0.0000
     33  CMD       46.7830   -1.1660   16.3000 C.3   147  HEM147      0.0000
     34  CAD       44.1470    0.2240   15.3060 C.3   147  HEM147      0.0000
     35  CBD       44.2080    1.7180   15.5770 C.3   147  HEM147      0.0000
     36  CGD       43.9330    2.5390   14.3350 C.2   147  HEM147      0.0000
     37  O1D       44.7610    2.5040   13.4000 O.co2 147  HEM147      0.0000
     38  O2D       42.8810    3.2090   14.2920 O.co2 147  HEM147      0.0000
     39  NA        41.1480   -1.3100   19.6500 N.2   147  HEM147      0.0000
     40  NB        41.9510   -2.5650   22.0600 N.ar  147  HEM147      0.0000
     41  NC        44.6120   -2.8250   21.0510 N.2   147  HEM147      0.0000
     42  ND        43.8080   -1.5720   18.6300 N.ar  147  HEM147      0.0000
     43 FE         42.8790   -2.0900   20.3400 Fe    147  HEM147      0.0000
@<TRIPOS>BOND
     1    37    36   ar
     2    14    12   ar
     3    38    36   ar
     4    36    35    1
     5    13    12   ar
     6    12    11    1
     7    34    35    1
     8    34    31    1
     9    11    10    1
    10    33    30    1
    11    31    30   ar
    12    31    32   ar
    13    10     6    1
    14    30    29   ar
    15     1    32    2
    16     1     5    1
    17    32    42   ar
    18    29    42   ar
    19    29     4    2
    20     6     5    1
    21     6     7    2
    22     5    39    2
    23    42    43    1
    24     4    25    1
    25     7     9    1
    26     7     8    1
    27    39     8    1
    28    39    43    1
    29     8     2    2
    30    43    41    1
    31    43    40    1
    32    25    41    2
    33    25    24    1
    34    27    24    1
    35    27    28    1
    36    41    22    1
    37    24    23    2
    38     2    15    1
    39    40    15   ar
    40    40    18   ar
    41    22    23    1
    42    22     3    2
    43    15    16   ar
    44    23    26    1
    45    18     3    1
    46    18    17   ar
    47    16    17   ar
    48    16    19    1
    49    17    20    1
    50    20    21    1
