@<TRIPOS>MOLECULE
3g51_ANP_A_1.pdb
 31 33 0 0 0
SMALL
GASTEIGER

@<TRIPOS>ATOM
      1  PG        18.9380   34.7480   83.1860 P.3   480  ANP480      0.4884
      2  O1G       17.8770   35.7720   82.8690 O.3   480  ANP480     -0.1240
      3  O2G       18.5070   33.7660   84.2480 O.3   480  ANP480     -0.1240
      4  O3G       19.5620   34.1150   81.9580 O.2   480  ANP480     -0.2331
      5  PB        20.5150   35.6430   85.4310 P.3   480  ANP480      0.4669
      6  O1B       21.2560   36.9320   85.7010 O.2   480  ANP480     -0.2351
      7  O2B       19.3170   35.3160   86.2930 O.3   480  ANP480     -0.1253
      8  N3B       20.1640   35.5870   83.8560 N.3   480  ANP480     -0.0163
      9  PA        21.3190   32.9100   85.3670 P.3   480  ANP480      0.2220
     10  O1A       20.5960   32.4110   86.5920 O.3   480  ANP480     -0.4370
     11  O2A       20.7170   32.6340   84.0140 O.2   480  ANP480     -0.5170
     12  O3A       21.6270   34.4810   85.5490 O.3   480  ANP480     -0.2360
     13  O5'       22.8060   32.2970   85.3580 O.3   480  ANP480     -0.3111
     14  C5'       23.7660   32.6690   84.3730 C.3   480  ANP480      0.1813
     15  C4'       25.0120   31.8180   84.5710 C.3   480  ANP480      0.1821
     16  O4'       25.6930   32.1960   85.7800 O.3   480  ANP480     -0.3135
     17  C3'       24.6950   30.3400   84.7510 C.3   480  ANP480      0.2184
     18  O3'       24.5810   29.6240   83.5190 O.3   480  ANP480     -0.2174
     19  C2'       25.8780   29.8420   85.5430 C.3   480  ANP480      0.2570
     20  O2'       26.9770   29.6460   84.6370 O.3   480  ANP480     -0.2130
     21  C1'       26.2010   31.0260   86.4260 C.3   480  ANP480      0.3186
     22  N9        25.4950   30.8930   87.7210 N.pl3 480  ANP480     -0.1439
     23  C8        24.2540   31.3530   87.9870 C.3   480  ANP480      0.3377
     24  N7        23.8900   31.0930   89.2700 N.2   480  ANP480     -0.2095
     25  C5        24.9360   30.4470   89.8380 C.2   480  ANP480      0.2526
     26  C6        25.2220   29.8740   91.1640 C.2   480  ANP480      0.4393
     27  N6        24.2910   29.9690   92.1400 N.pl3 480  ANP480      0.2180
     28  N1        26.4280   29.2800   91.3510 N.2   480  ANP480      0.0021
     29  C2        27.3430   29.1950   90.3670 C.3   480  ANP480      0.5254
     30  N3        27.1460   29.6950   89.1270 N.2   480  ANP480     -0.0055
     31  C4        25.9850   30.3120   88.8140 C.2   480  ANP480      0.3518
@<TRIPOS>BOND
     1     4     1    2
     2     2     1    1
     3     1     8    1
     4     1     3    1
     5    18    17    1
     6     8     5    1
     7    11     9    2
     8    14    15    1
     9    14    13    1
    10    15    17    1
    11    15    16    1
    12    20    19    1
    13    17    19    1
    14    13     9    1
    15     9    12    1
    16     9    10    1
    17     5    12    1
    18     5     6    2
    19     5     7    1
    20    19    21    1
    21    16    21    1
    22    21    22    1
    23    22    23    1
    24    22    31    1
    25    23    24    1
    26    31    30    2
    27    31    25    1
    28    30    29    1
    29    24    25    2
    30    25    26    1
    31    29    28    1
    32    26    28    2
    33    26    27    1
