@<TRIPOS>MOLECULE
3g52_HEM_A_1.pdb
 43 50 0 0 0
SMALL
GASTEIGER

@<TRIPOS>ATOM
      1  CHA       41.8140   -0.4530   17.4300 C.2   147  HEM147      0.0000
      2  CHB       39.6150   -1.5720   21.6080 C.2   147  HEM147      0.0000
      3  CHC       43.8150   -3.3310   23.3610 C.2   147  HEM147      0.0000
      4  CHD       45.9420   -2.4370   19.0600 C.2   147  HEM147      0.0000
      5  C1A       40.8340   -0.6760   18.3910 C.2   147  HEM147      0.0000
      6  C2A       39.4480   -0.3050   18.2370 C.2   147  HEM147      0.0000
      7  C3A       38.8290   -0.6220   19.4040 C.2   147  HEM147      0.0000
      8  C4A       39.8320   -1.1860   20.2820 C.2   147  HEM147      0.0000
      9  CMA       37.3470   -0.4660   19.7120 C.3   147  HEM147      0.0000
     10  CAA       38.8500    0.2430   16.9440 C.3   147  HEM147      0.0000
     11  CBA       38.6660   -0.8720   15.9190 C.3   147  HEM147      0.0000
     12  CGA       38.5190   -0.3450   14.5080 C.2   147  HEM147      0.0000
     13  O1A       37.7860    0.6490   14.3190 O.co2 147  HEM147      0.0000
     14  O2A       39.1300   -0.9300   13.5880 O.co2 147  HEM147      0.0000
     15  C1B       40.5720   -2.1640   22.4560 C.ar  147  HEM147      0.0000
     16  C2B       40.3230   -2.5900   23.8220 C.ar  147  HEM147      0.0000
     17  C3B       41.4800   -3.1350   24.2970 C.ar  147  HEM147      0.0000
     18  C4B       42.4610   -2.9930   23.2340 C.ar  147  HEM147      0.0000
     19  CMB       38.9690   -2.5550   24.5400 C.3   147  HEM147      0.0000
     20  CAB       41.7040   -3.7690   25.5210 C.3   147  HEM147      0.0000
     21  CBB       41.1600   -3.3730   26.7890 C.3   147  HEM147      0.0000
     22  C1C       44.7600   -3.2300   22.3390 C.2   147  HEM147      0.0000
     23  C2C       46.1670   -3.5630   22.4930 C.2   147  HEM147      0.0000
     24  C3C       46.7790   -3.3380   21.2810 C.2   147  HEM147      0.0000
     25  C4C       45.7250   -2.8710   20.3780 C.2   147  HEM147      0.0000
     26  CMC       46.8060   -4.0380   23.8010 C.3   147  HEM147      0.0000
     27  CAC       48.1470   -3.4090   20.9400 C.3   147  HEM147      0.0000
     28  CBC       49.2020   -4.0600   21.6840 C.3   147  HEM147      0.0000
     29  C1D       45.0030   -1.7840   18.2530 C.ar  147  HEM147      0.0000
     30  C2D       45.3020   -1.1850   16.9700 C.ar  147  HEM147      0.0000
     31  C3D       44.1600   -0.5920   16.5390 C.ar  147  HEM147      0.0000
     32  C4D       43.1460   -0.8400   17.5420 C.ar  147  HEM147      0.0000
     33  CMD       46.6480   -1.1770   16.2510 C.3   147  HEM147      0.0000
     34  CAD       44.0010    0.2320   15.2740 C.3   147  HEM147      0.0000
     35  CBD       44.0720    1.7250   15.5500 C.3   147  HEM147      0.0000
     36  CGD       43.8070    2.5520   14.3090 C.2   147  HEM147      0.0000
     37  O1D       44.6350    2.5090   13.3740 O.co2 147  HEM147      0.0000
     38  O2D       42.7620    3.2340   14.2680 O.co2 147  HEM147      0.0000
     39  NA        41.0510   -1.2570   19.6340 N.2   147  HEM147      0.0000
     40  NB        41.8850   -2.4400   22.0980 N.ar  147  HEM147      0.0000
     41  NC        44.5060   -2.7780   21.0510 N.2   147  HEM147      0.0000
     42  ND        43.6820   -1.5360   18.6080 N.ar  147  HEM147      0.0000
     43 FE         42.7670   -2.0650   20.3290 Fe    147  HEM147      0.0000
@<TRIPOS>BOND
     1    37    36   ar
     2    14    12   ar
     3    38    36   ar
     4    36    35    1
     5    13    12   ar
     6    12    11    1
     7    34    35    1
     8    34    31    1
     9    11    10    1
    10    33    30    1
    11    31    30   ar
    12    31    32   ar
    13    10     6    1
    14    30    29   ar
    15     1    32    2
    16     1     5    1
    17    32    42   ar
    18     6     5    1
    19     6     7    2
    20    29    42   ar
    21    29     4    2
    22     5    39    2
    23    42    43    1
    24     4    25    1
    25     7     9    1
    26     7     8    1
    27    39     8    1
    28    39    43    1
    29     8     2    2
    30    43    41    1
    31    43    40    1
    32    25    41    2
    33    25    24    1
    34    27    24    1
    35    27    28    1
    36    41    22    1
    37    24    23    2
    38     2    15    1
    39    40    15   ar
    40    40    18   ar
    41    22    23    1
    42    22     3    2
    43    15    16   ar
    44    23    26    1
    45    18     3    1
    46    18    17   ar
    47    16    17   ar
    48    16    19    1
    49    17    20    1
    50    20    21    1
