@<TRIPOS>MOLECULE
3g53_LT1_A_1.pdb
 10 10 0 0 0
SMALL
GASTEIGER

@<TRIPOS>ATOM
      1  C1        37.3760   -1.0870   34.7760 C.3   150  LT1150      0.0952
      2  C2        38.3330   -0.0320   34.2960 C.3   150  LT1150      0.0222
      3  C3        38.9130   -0.4800   32.9680 C.3   150  LT1150      0.0277
      4  C4        39.7800    0.6520   32.5410 C.ar  150  LT1150     -0.0221
      5  C5        39.3150    1.4520   31.5140 C.ar  150  LT1150     -0.0043
      6  C6        40.0640    2.5360   31.1080 C.ar  150  LT1150     -0.0003
      7  C7        41.2700    2.8280   31.7220 C.ar  150  LT1150     -0.0000
      8  C8        41.7380    2.0120   32.7500 C.ar  150  LT1150     -0.0003
      9  C9        40.9910    0.9150   33.1710 C.ar  150  LT1150     -0.0043
     10 CL1        36.7430   -0.4940   36.3390 Cl    150  LT1150     -0.1137
@<TRIPOS>BOND
     1     6     5   ar
     2     6     7   ar
     3     5     4   ar
     4     7     8   ar
     5     4     3    1
     6     4     9   ar
     7     8     9   ar
     8     3     2    1
     9     2     1    1
    10     1    10    1
