@<TRIPOS>MOLECULE
3g53_HEM_A_1.pdb
 43 50 0 0 0
SMALL
GASTEIGER

@<TRIPOS>ATOM
      1  CHA       41.9340   -0.5160   17.4260 C.2   147  HEM147      0.0000
      2  CHB       39.5760   -1.9850   21.4280 C.2   147  HEM147      0.0000
      3  CHC       43.8390   -3.4290   23.3400 C.2   147  HEM147      0.0000
      4  CHD       46.0300   -2.5300   19.0710 C.2   147  HEM147      0.0000
      5  C1A       40.9380   -0.7620   18.3750 C.2   147  HEM147      0.0000
      6  C2A       39.5540   -0.4000   18.2010 C.2   147  HEM147      0.0000
      7  C3A       38.8960   -0.7730   19.3230 C.2   147  HEM147      0.0000
      8  C4A       39.8730   -1.3930   20.1960 C.2   147  HEM147      0.0000
      9  CMA       37.4150   -0.5750   19.6100 C.3   147  HEM147      0.0000
     10  CAA       38.9850    0.2040   16.9230 C.3   147  HEM147      0.0000
     11  CBA       38.7430   -0.8910   15.8960 C.3   147  HEM147      0.0000
     12  CGA       38.6220   -0.3530   14.4880 C.2   147  HEM147      0.0000
     13  O1A       37.9040    0.6500   14.2910 O.co2 147  HEM147      0.0000
     14  O2A       39.2390   -0.9410   13.5750 O.co2 147  HEM147      0.0000
     15  C1B       40.5330   -2.5640   22.2750 C.ar  147  HEM147      0.0000
     16  C2B       40.2560   -3.0370   23.6200 C.ar  147  HEM147      0.0000
     17  C3B       41.4620   -3.3540   24.1840 C.ar  147  HEM147      0.0000
     18  C4B       42.4770   -3.1180   23.1770 C.ar  147  HEM147      0.0000
     19  CMB       38.8640   -3.2230   24.2320 C.3   147  HEM147      0.0000
     20  CAB       41.7220   -3.8620   25.4600 C.3   147  HEM147      0.0000
     21  CBB       41.0100   -3.5240   26.6620 C.3   147  HEM147      0.0000
     22  C1C       44.8090   -3.3150   22.3460 C.2   147  HEM147      0.0000
     23  C2C       46.2210   -3.6300   22.5080 C.2   147  HEM147      0.0000
     24  C3C       46.8490   -3.3760   21.3120 C.2   147  HEM147      0.0000
     25  C4C       45.8020   -2.9190   20.4010 C.2   147  HEM147      0.0000
     26  CMC       46.8620   -4.0850   23.8250 C.3   147  HEM147      0.0000
     27  CAC       48.2180   -3.4050   20.9880 C.3   147  HEM147      0.0000
     28  CBC       49.2640   -4.1390   21.6710 C.3   147  HEM147      0.0000
     29  C1D       45.1050   -1.8800   18.2460 C.ar  147  HEM147      0.0000
     30  C2D       45.4160   -1.2800   16.9590 C.ar  147  HEM147      0.0000
     31  C3D       44.2810   -0.6760   16.5370 C.ar  147  HEM147      0.0000
     32  C4D       43.2600   -0.9130   17.5360 C.ar  147  HEM147      0.0000
     33  CMD       46.7550   -1.3030   16.2240 C.3   147  HEM147      0.0000
     34  CAD       44.1190    0.1580   15.2800 C.3   147  HEM147      0.0000
     35  CBD       44.1810    1.6530   15.5460 C.3   147  HEM147      0.0000
     36  CGD       43.9100    2.4650   14.2960 C.2   147  HEM147      0.0000
     37  O1D       44.7350    2.4090   13.3590 O.co2 147  HEM147      0.0000
     38  O2D       42.8670    3.1480   14.2520 O.co2 147  HEM147      0.0000
     39  NA        41.1290   -1.3760   19.5980 N.2   147  HEM147      0.0000
     40  NB        41.8960   -2.6330   22.0010 N.ar  147  HEM147      0.0000
     41  NC        44.5670   -2.8510   21.0560 N.2   147  HEM147      0.0000
     42  ND        43.7870   -1.6200   18.6020 N.ar  147  HEM147      0.0000
     43 FE         42.8550   -2.1180   20.3140 Fe    147  HEM147      0.0000
@<TRIPOS>BOND
     1    37    36   ar
     2    14    12   ar
     3    38    36   ar
     4    13    12   ar
     5    36    35    1
     6    12    11    1
     7    34    35    1
     8    34    31    1
     9    11    10    1
    10    33    30    1
    11    31    30   ar
    12    31    32   ar
    13    10     6    1
    14    30    29   ar
    15     1    32    2
    16     1     5    1
    17    32    42   ar
    18     6     5    1
    19     6     7    2
    20    29    42   ar
    21    29     4    2
    22     5    39    2
    23    42    43    1
    24     4    25    1
    25     7     9    1
    26     7     8    1
    27    39     8    1
    28    39    43    1
    29     8     2    2
    30    43    41    1
    31    43    40    1
    32    25    41    2
    33    25    24    1
    34    27    24    1
    35    27    28    1
    36    41    22    1
    37    24    23    2
    38     2    15    1
    39    40    15   ar
    40    40    18   ar
    41    15    16   ar
    42    22    23    1
    43    22     3    2
    44    23    26    1
    45    18     3    1
    46    18    17   ar
    47    16    17   ar
    48    16    19    1
    49    17    20    1
    50    20    21    1
