@<TRIPOS>MOLECULE
3g58_988_A_1.pdb
 26 29 0 0 0
SMALL
GASTEIGER

@<TRIPOS>ATOM
      1  C1        21.9110   -1.2690   34.0930 C.ar  901  988901      0.0031
      2  C2        21.9300   -2.3400   33.2120 C.ar  901  988901      0.0174
      3  C3        22.2390   -3.6770   33.7620 C.ar  901  988901      0.0812
      4  N4        22.4800   -3.8310   35.0880 N.ar  901  988901     -0.2438
      5  C5        22.4470   -2.7720   35.9250 C.ar  901  988901      0.0988
      6  C6        22.1580   -1.4870   35.4510 C.ar  901  988901      0.0207
      7  C13       21.7050   -2.2000   31.8380 C.ar  901  988901     -0.0024
      8  C15       21.7340   -3.3020   30.9650 C.ar  901  988901     -0.0177
      9  C17       22.0150   -4.5840   31.4400 C.ar  901  988901     -0.0024
     10  C19       22.2690   -4.8040   32.7930 C.ar  901  988901      0.0174
     11  C22       22.5460   -6.1650   33.2760 C.ar  901  988901      0.0031
     12  C24       23.5710   -6.9250   32.7260 C.ar  901  988901      0.0241
     13  C25       23.7950   -8.2130   33.2220 C.ar  901  988901      0.1429
     14  C26       22.9800   -8.7000   34.2450 C.ar  901  988901      0.0241
     15  C27       21.9560   -7.9310   34.7750 C.ar  901  988901      0.0017
     16  C28       21.7390   -6.6540   34.2900 C.ar  901  988901      0.0001
     17  C35       21.4870   -3.0780   29.4820 C.3   901  988901      0.0527
     18  C37       20.5770   -4.1160   28.8650 C.ar  901  988901     -0.0147
     19  C39       19.1950   -3.9860   28.9680 C.ar  901  988901      0.0167
     20  C40       18.3790   -4.9520   28.3900 C.ar  901  988901      0.0986
     21  N41       18.9280   -6.0030   27.7490 N.ar  901  988901     -0.2423
     22  C42       20.2610   -6.1560   27.6330 C.ar  901  988901      0.0986
     23  C43       21.1200   -5.2120   28.1900 C.ar  901  988901      0.0167
     24  N50       24.8100   -9.0480   32.7160 N.pl3 901  988901      0.0577
     25  O52       25.4840   -8.7320   31.7420 O.2   901  988901     -0.1261
     26  O54       25.0380  -10.2720   33.3310 O.2   901  988901     -0.1261
@<TRIPOS>BOND
     1    22    21   ar
     2    22    23   ar
     3    21    20   ar
     4    23    18   ar
     5    20    19   ar
     6    18    19   ar
     7    18    17    1
     8    17     8    1
     9     8     9   ar
    10     8     7   ar
    11     9    10   ar
    12    25    24    2
    13     7     2   ar
    14    24    13    1
    15    24    26    2
    16    12    13   ar
    17    12    11   ar
    18    10    11    1
    19    10     3   ar
    20     2     3   ar
    21     2     1   ar
    22    13    14   ar
    23    11    16   ar
    24     3     4   ar
    25     1     6   ar
    26    14    15   ar
    27    16    15   ar
    28     4     5   ar
    29     6     5   ar
