@<TRIPOS>MOLECULE
3g59_ATP_A_1.pdb
 31 33 0 0 0
SMALL
GASTEIGER

@<TRIPOS>ATOM
      1  PG        -5.3560   39.1270   12.4310 P.3   305  ATP305      0.5373
      2  O1G       -5.0410   40.4790   13.0390 O.3   305  ATP305     -0.1143
      3  O2G       -5.5410   38.0370   13.4800 O.3   305  ATP305     -0.1143
      4  O3G       -6.4830   39.2090   11.4430 O.2   305  ATP305     -0.2221
      5  PB        -3.3900   37.4530   11.0870 P.3   305  ATP305      0.2277
      6  O1B       -2.9940   37.7320    9.6450 O.2   305  ATP305     -0.5168
      7  O2B       -4.3210   36.2910   11.4710 O.3   305  ATP305     -0.4368
      8  O3B       -3.9760   38.8440   11.6520 O.3   305  ATP305     -0.2258
      9  PA        -1.6620   37.2870   13.4540 P.3   305  ATP305      0.2189
     10  O1A       -2.8490   37.4820   14.3490 O.3   305  ATP305     -0.4371
     11  O2A       -0.3030   37.9560   13.6950 O.2   305  ATP305     -0.5170
     12  O3A       -1.9750   37.2980   11.8700 O.3   305  ATP305     -0.2700
     13  O5'       -1.2740   35.7170   13.5010 O.3   305  ATP305     -0.3112
     14  C5'       -0.0680   35.2040   12.8920 C.3   305  ATP305      0.1813
     15  C4'        0.2470   33.8550   13.5460 C.3   305  ATP305      0.1821
     16  O4'        1.1130   34.0930   14.6540 O.3   305  ATP305     -0.3135
     17  C3'       -1.0110   33.2600   14.1430 C.3   305  ATP305      0.2184
     18  O3'       -1.6590   32.2980   13.2950 O.3   305  ATP305     -0.2174
     19  C2'       -0.5400   32.6140   15.4240 C.3   305  ATP305      0.2570
     20  O2'       -0.1220   31.2740   15.1130 O.3   305  ATP305     -0.2130
     21  C1'        0.6430   33.4450   15.8380 C.3   305  ATP305      0.3186
     22  N9         0.2470   34.4120   16.9130 N.pl3 305  ATP305     -0.1439
     23  C8         0.2030   35.7660   16.8000 C.3   305  ATP305      0.3377
     24  N7        -0.1810   36.3240   17.9760 N.2   305  ATP305     -0.2095
     25  C5        -0.3780   35.3300   18.8500 C.2   305  ATP305      0.2526
     26  C6        -0.7960   35.2440   20.2600 C.2   305  ATP305      0.4393
     27  N6        -1.0890   36.3760   20.9380 N.pl3 305  ATP305      0.2180
     28  N1        -0.8800   34.0120   20.8270 N.2   305  ATP305      0.0021
     29  C2        -0.5990   32.8880   20.1300 C.3   305  ATP305      0.5254
     30  N3        -0.2210   32.8810   18.8370 N.2   305  ATP305     -0.0055
     31  C4        -0.0940   34.0660   18.1570 C.2   305  ATP305      0.3518
@<TRIPOS>BOND
     1     6     5    2
     2     5     7    1
     3     5     8    1
     4     5    12    1
     5     4     1    2
     6     8     1    1
     7    12     9    1
     8     1     2    1
     9     1     3    1
    10    14    13    1
    11    14    15    1
    12    18    17    1
    13     9    13    1
    14     9    11    2
    15     9    10    1
    16    15    17    1
    17    15    16    1
    18    17    19    1
    19    16    21    1
    20    20    19    1
    21    19    21    1
    22    21    22    1
    23    23    22    1
    24    23    24    1
    25    22    31    1
    26    24    25    2
    27    31    30    2
    28    31    25    1
    29    30    29    1
    30    25    26    1
    31    29    28    1
    32    26    28    2
    33    26    27    1
