@<TRIPOS>MOLECULE
3g5a_FMN_A_1.pdb
 31 33 0 0 0
SMALL
GASTEIGER

@<TRIPOS>ATOM
      1  N1         4.1550  -15.6020   51.9240 N.2   306  FMN306     -0.2890
      2  C2         4.1730  -16.9670   52.1290 C.1   306  FMN306      0.3669
      3  O2         3.7070  -17.4770   53.1770 O.2   306  FMN306     -0.1744
      4  N3         4.6870  -17.7680   51.1190 N.2   306  FMN306     -0.2300
      5  C4         5.1740  -17.2520   49.9470 C.1   306  FMN306      0.2513
      6  O4         5.5140  -18.0360   49.0600 O.2   306  FMN306     -0.2057
      7  C4A        5.1830  -15.8670   49.7600 C.2   306  FMN306      0.2700
      8  N5         5.6940  -15.3150   48.6050 N.2   306  FMN306     -0.3878
      9  C5A        5.6880  -13.9230   48.4270 C.2   306  FMN306      0.1320
     10  C6         6.2060  -13.3440   47.2550 C.2   306  FMN306      0.0250
     11  C7         6.1860  -11.9470   47.0630 C.2   306  FMN306     -0.0238
     12  C7M        6.5130  -11.4080   45.7030 C.3   306  FMN306      0.0308
     13  C8         5.6700  -11.1150   48.0760 C.2   306  FMN306     -0.0280
     14  C8M        5.6730   -9.6110   47.9800 C.3   306  FMN306      0.0304
     15  C9         5.1710  -11.6870   49.2460 C.2   306  FMN306     -0.0041
     16  C9A        5.1820  -13.0910   49.4350 C.3   306  FMN306      0.1497
     17  N10        4.6840  -13.6400   50.6180 N.pl3 306  FMN306     -0.2691
     18  C10        4.6700  -15.0280   50.7710 C.2   306  FMN306      0.2416
     19  C1'        4.2290  -12.7120   51.7350 C.3   306  FMN306      0.1294
     20  C2'        2.6950  -12.6360   51.8260 C.3   306  FMN306      0.2044
     21  O2'        2.1690  -11.9940   50.6780 O.3   306  FMN306     -0.2185
     22  C3'        2.0790  -12.0090   53.0950 C.3   306  FMN306      0.2164
     23  O3'        2.6900  -12.5400   54.2600 O.3   306  FMN306     -0.2175
     24  C4'        0.5790  -12.3400   53.2350 C.3   306  FMN306      0.2147
     25  O4'        0.4530  -13.7340   53.4050 O.3   306  FMN306     -0.2176
     26  C5'       -0.3300  -11.9090   52.0750 C.3   306  FMN306      0.1892
     27  O5'       -1.6610  -11.6460   52.4860 O.3   306  FMN306     -0.2674
     28  P         -2.9470  -12.2280   51.6850 P.3   306  FMN306      0.5327
     29  O1P       -4.1620  -12.1740   52.5820 O.3   306  FMN306     -0.1145
     30  O2P       -2.7050  -13.6790   51.3580 O.3   306  FMN306     -0.1145
     31  O3P       -3.2170  -11.4870   50.4160 O.2   306  FMN306     -0.2224
@<TRIPOS>BOND
     1    12    11    1
     2    11    10    2
     3    11    13    1
     4    10     9    1
     5    14    13    1
     6    13    15    2
     7     9     8    2
     8     9    16    1
     9     8     7    2
    10     6     5    2
    11    15    16    1
    12    16    17    1
    13     7     5    1
    14     7    18    1
    15     5     4    2
    16    31    28    2
    17    17    18    1
    18    17    19    1
    19    21    20    1
    20    18     1    2
    21     4     2    2
    22    30    28    1
    23    28    27    1
    24    28    29    1
    25    19    20    1
    26    20    22    1
    27     1     2    2
    28    26    27    1
    29    26    24    1
    30     2     3    2
    31    22    24    1
    32    22    23    1
    33    24    25    1
