@<TRIPOS>MOLECULE
3g5a_APC_A_1.pdb
 31 33 0 0 0
SMALL
GASTEIGER

@<TRIPOS>ATOM
      1  PG         7.0870   -0.6450   55.9360 P.3   305  APC305      0.5389
      2  O1G        5.6230   -0.8640   55.6140 O.2   305  APC305     -0.2220
      3  O2G        7.3810    0.7130   56.5260 O.3   305  APC305     -0.1143
      4  O3G        7.6560   -1.7390   56.7870 O.3   305  APC305     -0.1143
      5  PB         8.0260   -1.8130   53.3920 P.3   305  APC305      0.3895
      6  O1B        8.8640   -1.3850   52.2190 O.2   305  APC305     -0.2544
      7  O2B        8.4230   -3.0860   54.0940 O.3   305  APC305     -0.1388
      8  O3B        7.9130   -0.6370   54.5020 O.3   305  APC305     -0.2026
      9  PA         5.5160   -3.6910   53.2280 P.3   305  APC305      0.3820
     10  O1A        4.0810   -3.5930   52.7790 O.2   305  APC305     -0.2548
     11  O2A        5.7130   -3.8480   54.7200 O.3   305  APC305     -0.1392
     12  C3A        6.3570   -2.1490   52.7230 C.3   305  APC305      0.2357
     13  O5'        6.1260   -5.0500   52.5080 O.3   305  APC305     -0.2896
     14  C5'        7.4020   -5.7460   52.7010 C.3   305  APC305      0.1836
     15  C4'        8.0620   -6.2290   51.3800 C.3   305  APC305      0.1822
     16  O4'        7.0760   -6.9790   50.6430 O.3   305  APC305     -0.3135
     17  C3'        8.1960   -4.9180   50.6030 C.3   305  APC305      0.2184
     18  O3'        9.4900   -4.3430   50.6960 O.3   305  APC305     -0.2174
     19  C2'        7.8640   -5.2900   49.1660 C.3   305  APC305      0.2570
     20  O2'        9.0170   -5.8410   48.4960 O.3   305  APC305     -0.2130
     21  C1'        6.8860   -6.4440   49.3370 C.3   305  APC305      0.3186
     22  N9         5.4680   -5.9980   49.2570 N.pl3 305  APC305     -0.1439
     23  C8         4.6110   -5.9270   50.2990 C.3   305  APC305      0.3377
     24  N7         3.4110   -5.5130   49.8550 N.2   305  APC305     -0.2095
     25  C5         3.4980   -5.3370   48.5210 C.2   305  APC305      0.2526
     26  C6         2.6040   -4.8900   47.5370 C.2   305  APC305      0.4393
     27  N6         1.3140   -4.5600   47.8200 N.pl3 305  APC305      0.2180
     28  N1         3.0380   -4.8090   46.2630 N.2   305  APC305      0.0021
     29  C2         4.3100   -5.1190   45.9140 C.3   305  APC305      0.5254
     30  N3         5.1920   -5.5180   46.8380 N.2   305  APC305     -0.0055
     31  C4         4.8150   -5.6320   48.1450 C.2   305  APC305      0.3518
@<TRIPOS>BOND
     1    29    28    1
     2    29    30    1
     3    28    26    2
     4    30    31    2
     5    26    27    1
     6    26    25    1
     7    31    25    1
     8    31    22    1
     9    20    19    1
    10    25    24    2
    11    19    21    1
    12    19    17    1
    13    22    21    1
    14    22    23    1
    15    21    16    1
    16    24    23    1
    17    17    18    1
    18    17    15    1
    19    16    15    1
    20    15    14    1
    21     6     5    2
    22    13    14    1
    23    13     9    1
    24    12     9    1
    25    12     5    1
    26    10     9    2
    27     9    11    1
    28     5     7    1
    29     5     8    1
    30     8     1    1
    31     2     1    2
    32     1     3    1
    33     1     4    1
