@<TRIPOS>MOLECULE
3g5d_1N1_A_1.pdb
 33 36 0 0 0
SMALL
GASTEIGER

@<TRIPOS>ATOM
      1  C1         7.8170  -34.4980   -6.8290 C.ar    1  1N11        0.1120
      2  C2         6.8840  -35.4430   -6.6510 C.ar    1  1N11        0.1065
      3  C3         5.4680  -35.4380   -7.2070 C.2     1  1N11        0.2766
      4  N6        14.1320  -40.8660   -0.5180 N.3     1  1N11       -0.2675
      5  C7         1.3900  -34.2460   -9.7540 C.ar    1  1N11        0.0006
      6  C8         2.4170  -34.8960  -10.4300 C.ar    1  1N11       -0.0029
      7  C9         3.6950  -34.9810   -9.8630 C.ar    1  1N11       -0.0057
      8  C10        4.8160  -35.6940  -10.6160 C.3     1  1N11        0.0324
      9  C11       10.0720  -37.5090   -4.1670 C.2     1  1N11        0.2025
     10  C12       11.2620  -38.0280   -3.6710 C.3     1  1N11        0.1532
     11  C13       11.2050  -39.2350   -2.9670 C.2     1  1N11        0.1809
     12  C14        8.8810  -39.3390   -3.3080 C.1     1  1N11        0.1168
     13  C15        7.5460  -40.0600   -3.0910 C.3     1  1N11        0.1429
     14  C16       12.1320  -41.2480   -1.8640 C.3     1  1N11        0.1102
     15  C19       13.6830  -39.2940   -2.3820 C.3     1  1N11        0.1102
     16  C20       14.6020  -41.0110    0.8820 C.3     1  1N11        0.1082
     17  C21       15.6760  -39.9760    1.2470 C.3     1  1N11        0.1993
     18  N         10.0700  -36.3630   -4.8530 N.pl3   1  1N11       -0.1613
     19  C          9.0170  -35.9160   -5.5410 C.ar    1  1N11        0.1855
     20  N1         8.9930  -34.7500   -6.2150 N.ar    1  1N11       -0.2208
     21  S          7.4970  -36.6730   -5.6880 S.2     1  1N11       -0.0450
     22  N2         5.1820  -34.4560   -8.0630 N.am    1  1N11       -0.1744
     23  C4         3.9520  -34.3870   -8.6140 C.ar    1  1N11        0.0802
     24  C5         2.9240  -33.7320   -7.9480 C.ar    1  1N11        0.0726
     25  C6         1.6440  -33.6630   -8.5050 C.ar    1  1N11        0.0127
     26 CL          3.2530  -33.0200   -6.4030 Cl      1  1N11       -0.0809
     27  O          4.6560  -36.2870   -6.8390 O.2     1  1N11       -0.2674
     28  N3        10.0190  -39.8600   -2.8240 N.2     1  1N11       -0.3326
     29  N4         8.9190  -38.1740   -3.9710 N.2     1  1N11       -0.3308
     30  N5        12.3330  -39.8800   -2.4140 N.pl3   1  1N11       -0.2831
     31  C17       12.7390  -41.3330   -0.4810 C.3     1  1N11        0.0939
     32  C18       14.2660  -39.4650   -0.9800 C.3     1  1N11        0.0939
     33  O1        16.6660  -40.6120    2.0890 O.3     1  1N11       -0.2189
@<TRIPOS>BOND
     1     8     7    1
     2     6     7   ar
     3     6     5   ar
     4     7    23   ar
     5     5    25   ar
     6    23    22    1
     7    23    24   ar
     8    25    24   ar
     9    22     3   am
    10    24    26    1
    11     3    27    2
    12     3     2    1
    13     1     2   ar
    14     1    20   ar
    15     2    21   ar
    16    20    19   ar
    17    21    19   ar
    18    19    18    1
    19    18     9    1
    20     9    29    2
    21     9    10    1
    22    29    12    2
    23    10    11    1
    24    12    13    1
    25    12    28    2
    26    11    28    2
    27    11    30    1
    28    30    15    1
    29    30    14    1
    30    15    32    1
    31    14    31    1
    32    32     4    1
    33     4    31    1
    34     4    16    1
    35    16    17    1
    36    17    33    1
