@<TRIPOS>MOLECULE
3g5e_NDP_A_1.pdb
 48 52 0 0 0
SMALL
GASTEIGER

@<TRIPOS>ATOM
      1  PA        22.6420   -4.9260   27.1520 P.3   318  NDP318      0.2189
      2  O1A       23.5470   -3.8520   26.6190 O.2   318  NDP318     -0.5170
      3  O2A       21.6320   -4.5370   28.1740 O.3   318  NDP318     -0.4371
      4  O5B       23.5900   -6.1010   27.7100 O.3   318  NDP318     -0.3112
      5  C5B       23.0290   -7.3140   28.2110 C.3   318  NDP318      0.1813
      6  C4B       24.2000   -8.2010   28.5980 C.3   318  NDP318      0.1820
      7  O4B       24.8750   -7.5960   29.6990 O.3   318  NDP318     -0.3136
      8  C3B       23.7430   -9.5660   29.0520 C.3   318  NDP318      0.2157
      9  O3B       24.6770  -10.5530   28.5500 O.3   318  NDP318     -0.2175
     10  C2B       23.8330   -9.4820   30.5640 C.3   318  NDP318      0.2314
     11  O2B       24.0990  -10.7570   31.1490 O.3   318  NDP318     -0.2630
     12  C1B       24.9860   -8.5230   30.7700 C.3   318  NDP318      0.3158
     13  N9A       24.9000   -7.7340   32.0200 N.pl3 318  NDP318     -0.1439
     14  C8A       23.8190   -7.0730   32.4850 C.3   318  NDP318      0.3377
     15  N7A       24.1560   -6.4730   33.6470 N.2   318  NDP318     -0.2095
     16  C5A       25.4610   -6.7380   33.8920 C.2   318  NDP318      0.2526
     17  C6A       26.3180   -6.3830   34.9290 C.2   318  NDP318      0.4393
     18  N6A       25.8730   -5.6080   35.9660 N.pl3 318  NDP318      0.2180
     19  N1A       27.6000   -6.8310   34.8890 N.2   318  NDP318      0.0021
     20  C2A       28.0370   -7.6070   33.8650 C.3   318  NDP318      0.5254
     21  N3A       27.2180   -7.9710   32.8570 N.2   318  NDP318     -0.0055
     22  C4A       25.9250   -7.5250   32.8550 C.2   318  NDP318      0.3518
     23  O3        22.0040   -5.6910   25.8920 O.3   318  NDP318     -0.2703
     24  PN        20.6150   -5.6540   25.0540 P.3   318  NDP318      0.2189
     25  O1N       19.7840   -6.8180   25.5060 O.3   318  NDP318     -0.4371
     26  O2N       21.0120   -5.6440   23.5980 O.2   318  NDP318     -0.5170
     27  O5D       19.8800   -4.2440   25.3060 O.3   318  NDP318     -0.3112
     28  C5D       19.0610   -4.0170   26.4470 C.3   318  NDP318      0.1813
     29  C4D       17.5900   -4.0700   26.0120 C.3   318  NDP318      0.1799
     30  O4D       17.2880   -3.0640   25.0240 O.3   318  NDP318     -0.3327
     31  C3D       17.1640   -5.3430   25.2920 C.3   318  NDP318      0.2158
     32  O3D       17.0150   -6.4800   26.1600 O.3   318  NDP318     -0.2175
     33  C2D       15.8430   -4.8930   24.6940 C.3   318  NDP318      0.2309
     34  O2D       14.8410   -4.8530   25.7360 O.3   318  NDP318     -0.2158
     35  C1D       16.1850   -3.4780   24.2150 C.3   318  NDP318      0.2263
     36  N1N       16.5950   -3.4840   22.7750 N.pl3 318  NDP318     -0.2787
     37  C2N       15.7740   -2.9220   21.8750 C.3   318  NDP318      0.1244
     38  C3N       16.1290   -2.9130   20.5260 C.2   318  NDP318      0.0544
     39  C7N       15.2510   -2.2770   19.4830 C.2   318  NDP318      0.2818
     40  O7N       15.4840   -2.4700   18.2860 O.2   318  NDP318     -0.2670
     41  N7N       14.2710   -1.4710   19.8540 N.am  318  NDP318     -0.0839
     42  C4N       17.3240   -3.5220   20.1340 C.2   318  NDP318      0.0033
     43  C5N       18.1770   -4.0970   21.0830 C.2   318  NDP318      0.0157
     44  C6N       17.7790   -4.0400   22.4300 C.2   318  NDP318      0.0633
     45  P2B       22.9860  -11.6300   31.9410 P.3   318  NDP318      0.5328
     46  O1X       21.6420  -11.3740   31.3040 O.2   318  NDP318     -0.2224
     47  O2X       23.5670  -13.0120   31.7180 O.3   318  NDP318     -0.1145
     48  O3X       23.0670  -11.2360   33.3980 O.3   318  NDP318     -0.1145
@<TRIPOS>BOND
     1    40    39    2
     2    39    41   am
     3    39    38    1
     4    42    38    2
     5    42    43    1
     6    38    37    1
     7    43    44    2
     8    37    36    1
     9    44    36    1
    10    36    35    1
    11    26    24    2
    12    35    33    1
    13    35    30    1
    14    33    31    1
    15    33    34    1
    16    30    29    1
    17    24    27    1
    18    24    25    1
    19    24    23    1
    20    31    29    1
    21    31    32    1
    22    27    28    1
    23    23     1    1
    24    29    28    1
    25     2     1    2
    26     1     4    1
    27     1     3    1
    28     4     5    1
    29     5     6    1
    30     9     8    1
    31     6     8    1
    32     6     7    1
    33     8    10    1
    34     7    12    1
    35    10    12    1
    36    10    11    1
    37    12    13    1
    38    11    45    1
    39    46    45    2
    40    47    45    1
    41    45    48    1
    42    13    14    1
    43    13    22    1
    44    14    15    1
    45    22    21    2
    46    22    16    1
    47    21    20    1
    48    15    16    2
    49    20    19    1
    50    16    17    1
    51    19    17    2
    52    17    18    1
