@<TRIPOS>MOLECULE
3g5e_Q74_A_1.pdb
 26 29 0 0 0
SMALL
GASTEIGER

@<TRIPOS>ATOM
      1  F1        16.5870   -2.4300    9.0210 F     320  Q74320     -0.2060
      2  C2        16.5340   -3.3660   10.0020 C.2   320  Q74320      0.1542
      3  C3        17.6910   -3.6870   10.7120 C.2   320  Q74320      0.1935
      4  F4        18.8640   -3.1110   10.4600 F     320  Q74320     -0.1994
      5  C5        15.3340   -3.9930   10.3260 C.3   320  Q74320      0.1160
      6  C6        15.3240   -4.9500   11.3660 C.2   320  Q74320      0.1330
      7  F7        14.1550   -5.5460   11.6490 F     320  Q74320     -0.2078
      8  C8        16.5120   -5.2520   12.0580 C.2   320  Q74320      0.0870
      9  C9        17.6920   -4.6030   11.7310 C.2   320  Q74320      0.1687
     10  N10       18.7280   -5.0260   12.5130 N.2   320  Q74320     -0.3965
     11  S11       16.6510   -6.3490   13.3560 S.3   320  Q74320     -0.0549
     12  C12       18.3670   -5.9540   13.4130 C.2   320  Q74320      0.1430
     13  C13       19.2440   -6.6510   14.4600 C.3   320  Q74320      0.0937
     14  C14       18.4030   -7.2780   15.5330 C.ar  320  Q74320      0.0056
     15  C15       17.9140   -8.5710   15.5830 C.ar  320  Q74320      0.0321
     16  C16       18.0370   -9.6880   14.7510 C.ar  320  Q74320      0.0043
     17  C17       17.9230   -6.6200   16.6720 C.ar  320  Q74320      0.0736
     18  N18       17.1720   -7.4430   17.4160 N.ar  320  Q74320     -0.3014
     19  C19       16.5000   -7.1210   18.6850 C.3   320  Q74320      0.2222
     20  C20       15.4390   -6.0850   18.4190 C.2   320  Q74320      0.3875
     21  O21       15.1320   -5.8080   17.2450 O.co2 320  Q74320     -0.2435
     22  O22       14.9180   -5.5410   19.3960 O.co2 320  Q74320     -0.2435
     23  C23       17.1160   -8.6470   16.8210 C.ar  320  Q74320      0.1439
     24  N24       16.5130   -9.8070   17.1450 N.ar  320  Q74320     -0.2268
     25  C25       16.6340  -10.8930   16.3380 C.ar  320  Q74320      0.1005
     26  C26       17.3810  -10.8530   15.1560 C.ar  320  Q74320      0.0208
@<TRIPOS>BOND
     1     1     2    1
     2     2     5    1
     3     2     3    2
     4     5     6    1
     5     4     3    1
     6     3     9    1
     7     6     7    1
     8     6     8    2
     9     9     8    1
    10     9    10    2
    11     8    11    1
    12    10    12    2
    13    11    12    1
    14    12    13    1
    15    13    14    1
    16    16    26   ar
    17    16    15   ar
    18    26    25   ar
    19    14    15   ar
    20    14    17   ar
    21    15    23   ar
    22    25    24   ar
    23    17    18   ar
    24    23    24   ar
    25    23    18   ar
    26    21    20   ar
    27    18    19    1
    28    20    19    1
    29    20    22   ar
