@<TRIPOS>MOLECULE
3g5f_HEM_A_1.pdb
 43 50 0 0 0
SMALL
GASTEIGER

@<TRIPOS>ATOM
      1  CHA        4.4010   23.6150   -4.9190 C.2   462  HEM462      0.0000
      2  CHB        3.6820   23.5820   -9.7130 C.2   462  HEM462      0.0000
      3  CHC        7.7190   26.2480  -10.2850 C.2   462  HEM462      0.0000
      4  CHD        8.8560   25.4400   -5.6770 C.2   462  HEM462      0.0000
      5  C1A        3.8150   23.4660   -6.1520 C.ar  462  HEM462      0.0000
      6  C2A        2.5170   22.8840   -6.4050 C.ar  462  HEM462      0.0000
      7  C3A        2.3330   22.8470   -7.7330 C.ar  462  HEM462      0.0000
      8  C4A        3.4920   23.4320   -8.3530 C.ar  462  HEM462      0.0000
      9  CMA        1.1090   22.2700   -8.4600 C.3   462  HEM462      0.0000
     10  CAA        1.5110   22.3900   -5.3380 C.3   462  HEM462      0.0000
     11  CBA        1.8700   21.0220   -4.7840 C.3   462  HEM462      0.0000
     12  CGA        0.8320   20.5440   -3.7990 C.2   462  HEM462      0.0000
     13  O1A       -0.0450   21.3400   -3.3720 O.co2 462  HEM462      0.0000
     14  O2A        0.8580   19.3400   -3.4070 O.co2 462  HEM462      0.0000
     15  C1B        4.7210   24.3040  -10.2750 C.2   462  HEM462      0.0000
     16  C2B        4.8610   24.6190  -11.6940 C.2   462  HEM462      0.0000
     17  C3B        5.9750   25.3610  -11.8480 C.2   462  HEM462      0.0000
     18  C4B        6.5790   25.5140  -10.5460 C.2   462  HEM462      0.0000
     19  CMB        3.8680   24.1800  -12.7860 C.3   462  HEM462      0.0000
     20  CAB        6.5730   25.9700  -13.1260 C.2   462  HEM462      0.0000
     21  CBB        5.8250   26.4120  -14.1390 C.2   462  HEM462      0.0000
     22  C1C        8.3470   26.3260   -9.0610 C.ar  462  HEM462      0.0000
     23  C2C        9.5750   27.0600   -8.7710 C.ar  462  HEM462      0.0000
     24  C3C        9.8910   26.8160   -7.4750 C.ar  462  HEM462      0.0000
     25  C4C        8.8740   25.9510   -6.9480 C.ar  462  HEM462      0.0000
     26  CMC       10.3360   27.9650   -9.7780 C.3   462  HEM462      0.0000
     27  CAC       11.0710   27.3360   -6.6210 C.2   462  HEM462      0.0000
     28  CBC       12.1010   28.0270   -7.1210 C.2   462  HEM462      0.0000
     29  C1D        7.7850   24.8420   -5.0740 C.2   462  HEM462      0.0000
     30  C2D        7.7710   24.4430   -3.6890 C.2   462  HEM462      0.0000
     31  C3D        6.3990   23.8970   -3.4470 C.2   462  HEM462      0.0000
     32  C4D        5.7020   23.9800   -4.7120 C.2   462  HEM462      0.0000
     33  CMD        8.9170   24.5490   -2.6870 C.3   462  HEM462      0.0000
     34  CAD        5.8690   23.3210   -2.1370 C.3   462  HEM462      0.0000
     35  CBD        4.9150   24.3320   -1.4950 C.3   462  HEM462      0.0000
     36  CGD        4.2960   23.7850   -0.2300 C.2   462  HEM462      0.0000
     37  O1D        3.6310   24.5890    0.4490 O.co2 462  HEM462      0.0000
     38  O2D        4.4730   22.5860    0.0760 O.co2 462  HEM462      0.0000
     39  NA         4.3900   23.7800   -7.3540 N.ar  462  HEM462      0.0000
     40  NB         5.8090   24.8380   -9.6140 N.2   462  HEM462      0.0000
     41  NC         7.9530   25.6630   -7.9250 N.ar  462  HEM462      0.0000
     42  ND         6.5560   24.5380   -5.6550 N.2   462  HEM462      0.0000
     43 FE          6.0880   24.8860   -7.6130 Fe    462  HEM462      0.0000
@<TRIPOS>BOND
     1    21    20    2
     2    20    17    1
     3    19    16    1
     4    17    16    2
     5    17    18    1
     6    16    15    1
     7    18     3    2
     8    18    40    1
     9     3    22    1
    10    15     2    1
    11    15    40    2
    12    26    23    1
    13     2     8    2
    14    40    43    1
    15    22    23   ar
    16    22    41   ar
    17    23    24   ar
    18     9     7    1
    19     8     7   ar
    20     8    39   ar
    21    41    43    1
    22    41    25   ar
    23     7     6   ar
    24    43    39    1
    25    43    42    1
    26    24    25   ar
    27    24    27    1
    28    39     5   ar
    29    28    27    2
    30    25     4    1
    31     6     5   ar
    32     6    10    1
    33     5     1    2
    34     4    29    2
    35    42    29    1
    36    42    32    2
    37    10    11    1
    38    29    30    1
    39     1    32    1
    40    11    12    1
    41    32    31    1
    42    12    14   ar
    43    12    13   ar
    44    30    31    2
    45    30    33    1
    46    31    34    1
    47    34    35    1
    48    35    36    1
    49    36    38   ar
    50    36    37   ar
