@<TRIPOS>MOLECULE
3g5h_HEM_A_1.pdb
 43 50 0 0 0
SMALL
GASTEIGER

@<TRIPOS>ATOM
      1 FE          6.1240   24.9470   -7.5410 Fe    462  HEM462      0.0000
      2  CHA        4.4370   23.6180   -4.8560 C.2   462  HEM462      0.0000
      3  CHB        3.6920   23.6720   -9.6790 C.2   462  HEM462      0.0000
      4  CHC        7.7520   26.3280  -10.1830 C.2   462  HEM462      0.0000
      5  CHD        8.9000   25.4900   -5.5610 C.2   462  HEM462      0.0000
      6  NA         4.4040   23.8600   -7.3010 N.ar  462  HEM462      0.0000
      7  C1A        3.8450   23.4840   -6.0920 C.ar  462  HEM462      0.0000
      8  C2A        2.5480   22.8920   -6.3640 C.ar  462  HEM462      0.0000
      9  C3A        2.3480   22.8890   -7.6970 C.ar  462  HEM462      0.0000
     10  C4A        3.5070   23.4890   -8.3180 C.ar  462  HEM462      0.0000
     11  CMA        1.1200   22.3280   -8.4570 C.3   462  HEM462      0.0000
     12  CAA        1.5690   22.3730   -5.2790 C.3   462  HEM462      0.0000
     13  CBA        1.9300   20.9990   -4.7560 C.3   462  HEM462      0.0000
     14  CGA        0.8910   20.5170   -3.7780 C.2   462  HEM462      0.0000
     15  O1A       -0.0500   21.2840   -3.4020 O.co2 462  HEM462      0.0000
     16  O2A        1.0290   19.3340   -3.3580 O.co2 462  HEM462      0.0000
     17  NB         5.8480   24.9040   -9.5590 N.2   462  HEM462      0.0000
     18  C1B        4.7440   24.3930  -10.2320 C.2   462  HEM462      0.0000
     19  C2B        4.8800   24.7340  -11.6420 C.2   462  HEM462      0.0000
     20  C3B        6.0120   25.4700  -11.7710 C.2   462  HEM462      0.0000
     21  C4B        6.6220   25.5990  -10.4650 C.2   462  HEM462      0.0000
     22  CMB        3.8740   24.3150  -12.7420 C.3   462  HEM462      0.0000
     23  CAB        6.6100   26.0900  -13.0530 C.2   462  HEM462      0.0000
     24  CBB        5.8900   26.3920  -14.1380 C.2   462  HEM462      0.0000
     25  NC         7.9760   25.7350   -7.8240 N.ar  462  HEM462      0.0000
     26  C1C        8.3730   26.4040   -8.9670 C.ar  462  HEM462      0.0000
     27  C2C        9.5750   27.1660   -8.6640 C.ar  462  HEM462      0.0000
     28  C3C        9.8970   26.9220   -7.3760 C.ar  462  HEM462      0.0000
     29  C4C        8.8970   26.0290   -6.8330 C.ar  462  HEM462      0.0000
     30  CMC       10.2960   28.0780   -9.6860 C.3   462  HEM462      0.0000
     31  CAC       11.0750   27.4640   -6.5390 C.2   462  HEM462      0.0000
     32  CBC       12.1310   28.1310   -7.0140 C.2   462  HEM462      0.0000
     33  ND         6.6200   24.5690   -5.5550 N.2   462  HEM462      0.0000
     34  C1D        7.8400   24.8790   -4.9620 C.2   462  HEM462      0.0000
     35  C2D        7.7980   24.4550   -3.5800 C.2   462  HEM462      0.0000
     36  C3D        6.4140   23.9080   -3.3560 C.2   462  HEM462      0.0000
     37  C4D        5.7360   23.9990   -4.6310 C.2   462  HEM462      0.0000
     38  CMD        8.9150   24.5720   -2.5440 C.3   462  HEM462      0.0000
     39  CAD        5.8230   23.3570   -2.0530 C.3   462  HEM462      0.0000
     40  CBD        4.9530   24.4840   -1.4660 C.3   462  HEM462      0.0000
     41  CGD        4.1780   24.0940   -0.2270 C.2   462  HEM462      0.0000
     42  O1D        3.5600   25.0060    0.4100 O.co2 462  HEM462      0.0000
     43  O2D        4.1720   22.8860    0.1000 O.co2 462  HEM462      0.0000
@<TRIPOS>BOND
     1    24    23    2
     2    23    20    1
     3    22    19    1
     4    20    19    2
     5    20    21    1
     6    19    18    1
     7    21     4    2
     8    21    17    1
     9    18     3    1
    10    18    17    2
    11     4    26    1
    12    30    27    1
    13     3    10    2
    14    17     1    1
    15    26    27   ar
    16    26    25   ar
    17    27    28   ar
    18    11     9    1
    19    10     9   ar
    20    10     6   ar
    21    25     1    1
    22    25    29   ar
    23     9     8   ar
    24     1     6    1
    25     1    33    1
    26    28    29   ar
    27    28    31    1
    28     6     7   ar
    29    32    31    2
    30    29     5    1
    31     8     7   ar
    32     8    12    1
    33     7     2    2
    34     5    34    2
    35    33    34    1
    36    33    37    2
    37    12    13    1
    38    34    35    1
    39     2    37    1
    40    13    14    1
    41    37    36    1
    42    14    15   ar
    43    14    16   ar
    44    35    36    2
    45    35    38    1
    46    36    39    1
    47    39    40    1
    48    40    41    1
    49    41    43   ar
    50    41    42   ar
