@<TRIPOS>MOLECULE
3g5h_YTT_A_1.pdb
 24 26 0 0 0
SMALL
GASTEIGER

@<TRIPOS>ATOM
      1  OB         9.2510   21.5280   -0.7860 O.2   397  YTT397     -0.2070
      2  CB         8.9350   20.3440   -0.6630 C.1   397  YTT397      0.2326
      3  CAB        9.8190   19.2590   -1.2260 C.2   397  YTT397      0.2196
      4  CBB        9.8540   19.2770   -2.7750 C.3   397  YTT397      0.0997
      5  CGB       11.0180   18.3960   -3.1890 C.ar  397  YTT397     -0.0141
      6  CD3       12.2930   18.9450   -3.3520 C.ar  397  YTT397     -0.0005
      7  CE3       13.4030   18.1320   -3.6630 C.ar  397  YTT397      0.0417
      8  CZB       13.2010   16.7380   -3.8320 C.ar  397  YTT397      0.1957
      9  OHB       14.2610   15.9370   -4.1260 O.3   397  YTT397     -0.2866
     10  CE4       11.9180   16.1860   -3.7040 C.ar  397  YTT397      0.0417
     11  CD4       10.8280   17.0180   -3.3850 C.ar  397  YTT397     -0.0005
     12  NB         9.4730   17.9230   -0.7350 N.2   397  YTT397     -0.3223
     13  NA         7.8260   19.9920   -0.0030 N.2   397  YTT397     -0.3223
     14  CAA        7.3070   18.6450    0.1770 C.2   397  YTT397      0.2196
     15  CA         8.3170   17.5780   -0.1490 C.1   397  YTT397      0.2326
     16  OA         8.0380   16.4190    0.1440 O.2   397  YTT397     -0.2070
     17  CBA        6.0060   18.4360   -0.6340 C.3   397  YTT397      0.0997
     18  CGA        6.2290   18.5460   -2.1320 C.ar  397  YTT397     -0.0141
     19  CD2        6.5310   17.4080   -2.8850 C.ar  397  YTT397     -0.0005
     20  CE2        6.7400   17.5320   -4.2520 C.ar  397  YTT397      0.0417
     21  CZA        6.6300   18.7700   -4.8980 C.ar  397  YTT397      0.1957
     22  OHA        6.8530   18.8760   -6.2430 O.3   397  YTT397     -0.2866
     23  CE1        6.3410   19.9180   -4.1490 C.ar  397  YTT397      0.0417
     24  CD1        6.1400   19.7820   -2.7810 C.ar  397  YTT397     -0.0005
@<TRIPOS>BOND
     1    22    21    1
     2    21    20   ar
     3    21    23   ar
     4    20    19   ar
     5    23    24   ar
     6     9     8    1
     7     8    10   ar
     8     8     7   ar
     9    10    11   ar
    10     7     6   ar
    11    11     5   ar
    12     6     5   ar
    13     5     4    1
    14    19    18   ar
    15    24    18   ar
    16     4     3    1
    17    18    17    1
    18     3    12    2
    19     3     2    1
    20     1     2    2
    21    12    15    2
    22     2    13    2
    23    17    14    1
    24    15    16    2
    25    15    14    1
    26    13    14    2
