@<TRIPOS>MOLECULE
3g5i_DNB_A_1.pdb
 16 17 0 0 0
SMALL
GASTEIGER

@<TRIPOS>ATOM
      1  O2'       44.4570    6.2900   29.4940 O.3   502  DNB502     -0.2185
      2  C2'       45.8410    6.0630   29.1180 C.3   502  DNB502      0.2035
      3  C3'       46.0840    4.5440   29.0340 C.3   502  DNB502      0.2023
      4  O3'       45.0470    3.7370   29.6540 O.3   502  DNB502     -0.2188
      5  C1'       46.8000    6.5760   30.2070 C.3   502  DNB502      0.1280
      6  N4'       47.3490    5.3440   30.7750 N.3   502  DNB502     -0.2084
      7  C4'       47.4230    4.3140   29.7560 C.3   502  DNB502      0.1389
      8  C5'       48.6320    4.4570   28.7950 C.3   502  DNB502      0.2020
      9  O5'       49.8380    4.5290   29.5610 O.3   502  DNB502     -0.2188
     10  C1        47.9720    7.4310   29.7960 C.ar  502  DNB502     -0.0026
     11  C6        48.7940    7.9100   30.8310 C.ar  502  DNB502     -0.0028
     12  C5        49.9160    8.7000   30.6180 C.ar  502  DNB502      0.0011
     13  C4        50.2670    9.0130   29.3000 C.ar  502  DNB502      0.0180
     14  C3        49.4920    8.5500   28.2340 C.ar  502  DNB502      0.0888
     15  N3        49.8880    8.8960   26.9870 N.pl3 502  DNB502     -0.1281
     16  C2        48.3480    7.7420   28.4830 C.ar  502  DNB502      0.0152
@<TRIPOS>BOND
     1    15    14    1
     2    14    16   ar
     3    14    13   ar
     4    16    10   ar
     5     8     9    1
     6     8     7    1
     7     3     2    1
     8     3     4    1
     9     3     7    1
    10     2     1    1
    11     2     5    1
    12    13    12   ar
    13     7     6    1
    14    10     5    1
    15    10    11   ar
    16     5     6    1
    17    12    11   ar
