@<TRIPOS>MOLECULE
3g5k_BB2_A_1.pdb
 27 27 0 0 0
SMALL
GASTEIGER

@<TRIPOS>ATOM
      1  C5        33.3760   12.8130   12.0480 C.3   1001  BB21001     0.0603
      2  C3        31.9010   12.9620   12.0570 C.2   1001  BB21001     0.0873
      3  O4        31.0180   12.2060   12.5790 O.2   1001  BB21001    -0.5395
      4  N1        31.2830   13.8200   11.3500 N.am  1001  BB21001    -0.2030
      5  O2        29.8530   13.7860   11.4270 O.3   1001  BB21001    -0.4026
      6  C6        33.7960   11.8750   10.8610 C.3   1001  BB21001     0.0845
      7  C12       35.1290   11.4290   11.0940 C.2   1001  BB21001     0.2417
      8  O13       36.0550   12.1480   10.8560 O.2   1001  BB21001    -0.2733
      9  C7        33.7260   12.4420    9.4330 C.3   1001  BB21001     0.0095
     10  C8        34.1960   11.4750    8.2700 C.3   1001  BB21001     0.0005
     11  C9        33.3820   10.1690    8.2320 C.3   1001  BB21001     0.0000
     12  C10       33.7410    9.3870    6.9400 C.3   1001  BB21001     0.0000
     13  C11       35.2730    8.9950    6.8200 C.3   1001  BB21001     0.0000
     14  N14       35.4310   10.0850   11.3730 N.am  1001  BB21001    -0.1978
     15  C15       36.8270    9.5770   11.4930 C.3   1001  BB21001     0.1711
     16  C16       37.0490    9.1710   12.9770 C.3   1001  BB21001     0.0289
     17  C18       36.1330    8.0580   13.3450 C.3   1001  BB21001     0.0023
     18  C17       37.1240   10.4620   13.7410 C.3   1001  BB21001     0.0023
     19  C19       36.9100    8.3580   10.5090 C.2   1001  BB21001     0.2455
     20  O20       35.8670    7.7390   10.1260 O.2   1001  BB21001    -0.2730
     21  N21       38.1140    7.8940   10.1780 N.am  1001  BB21001    -0.2772
     22  C22       38.3630    6.7580    9.2960 C.3   1001  BB21001     0.1083
     23  C23       39.3660    8.6750   10.5210 C.3   1001  BB21001     0.0935
     24  C24       40.5010    8.0330    9.7660 C.3   1001  BB21001     0.0233
     25  C25       39.8470    7.0250    8.8090 C.3   1001  BB21001     0.0243
     26  C26       38.3570    5.4860   10.1450 C.3   1001  BB21001     0.2017
     27  O27       38.3070    4.4310    9.1070 O.3   1001  BB21001    -0.2186
@<TRIPOS>BOND
     1    13    12    1
     2    12    11    1
     3    11    10    1
     4    10     9    1
     5    25    22    1
     6    25    24    1
     7    27    26    1
     8    22    26    1
     9    22    21    1
    10     9     6    1
    11    24    23    1
    12    20    19    2
    13    21    19   am
    14    21    23    1
    15    19    15    1
    16     8     7    2
    17     6     7    1
    18     6     1    1
    19     7    14   am
    20     4     5    1
    21     4     2   am
    22    14    15    1
    23    15    16    1
    24     1     2    1
    25     2     3    2
    26    16    17    1
    27    16    18    1
