@<TRIPOS>MOLECULE
3g5m_XM5_A_1.pdb
 17 19 0 0 0
SMALL
GASTEIGER

@<TRIPOS>ATOM
      1  O15       -6.2240   -9.5530  -14.6240 O.2   232  XM5232     -0.2669
      2  C9        -5.9280   -8.3680  -14.8030 C.ar  232  XM5232      0.2641
      3  N10       -4.7310   -8.0730  -15.4960 N.ar  232  XM5232     -0.2906
      4  C14       -3.9200   -9.1700  -15.9780 C.3   232  XM5232      0.1336
      5  C3        -4.3590   -6.7260  -15.6870 C.ar  232  XM5232      0.1027
      6  C4        -3.1740   -6.2270  -16.4080 C.ar  232  XM5232      0.1922
      7  C5        -2.9300   -4.8050  -16.4990 C.ar  232  XM5232      0.1779
      8  O13       -1.7800   -4.6030  -17.1870 O.3   232  XM5232     -0.4346
      9  C12       -1.2810   -5.8610  -17.6280 C.3   232  XM5232      0.4294
     10  O11       -2.1470   -6.8620  -17.0510 O.3   232  XM5232     -0.4331
     11  C6        -3.7870   -3.8510  -15.9600 C.ar  232  XM5232      0.0404
     12  C1        -4.9210   -4.2960  -15.2980 C.ar  232  XM5232      0.0078
     13  C2        -5.2430   -5.6540  -15.1480 C.ar  232  XM5232      0.0532
     14  C7        -6.4750   -6.0370  -14.4290 C.ar  232  XM5232      0.1449
     15  C8        -6.7570   -7.3820  -14.2740 C.ar  232  XM5232      0.0976
     16  O16       -7.2910   -5.0540  -13.9060 O.3   232  XM5232     -0.4712
     17  C17       -8.7130   -5.2300  -13.8080 C.3   232  XM5232      0.2525
@<TRIPOS>BOND
     1     9     8    1
     2     9    10    1
     3     8     7    1
     4    10     6    1
     5     7     6   ar
     6     7    11   ar
     7     6     5   ar
     8     4     3    1
     9    11    12   ar
    10     5     3   ar
    11     5    13   ar
    12     3     2   ar
    13    12    13   ar
    14    13    14   ar
    15     2     1    2
    16     2    15   ar
    17    14    15   ar
    18    14    16    1
    19    16    17    1
