@<TRIPOS>MOLECULE
3g5n_HEM_A_1.pdb
 43 50 0 0 0
SMALL
GASTEIGER

@<TRIPOS>ATOM
      1  CHA       -4.4050    6.6500   38.0440 C.2   500  HEM500      0.0000
      2  CHB       -1.7520    6.5100   34.1770 C.2   500  HEM500      0.0000
      3  CHC       -5.4220    8.0450   31.5950 C.2   500  HEM500      0.0000
      4  CHD       -8.0940    8.4060   35.4600 C.2   500  HEM500      0.0000
      5  C1A       -3.3490    6.5340   37.2280 C.ar  500  HEM500      0.0000
      6  C2A       -2.0020    6.2930   37.6340 C.ar  500  HEM500      0.0000
      7  C3A       -1.2920    6.2620   36.5500 C.ar  500  HEM500      0.0000
      8  C4A       -2.1630    6.4730   35.4550 C.ar  500  HEM500      0.0000
      9  CMA        0.2090    6.0180   36.4530 C.3   500  HEM500      0.0000
     10  CAA       -1.4410    6.0940   39.0440 C.3   500  HEM500      0.0000
     11  CBA       -1.9230    4.8180   39.6980 C.3   500  HEM500      0.0000
     12  CGA       -1.3440    4.7150   41.0690 C.2   500  HEM500      0.0000
     13  O1A       -1.6880    5.5040   41.9480 O.co2 500  HEM500      0.0000
     14  O2A       -0.5450    3.8100   41.2900 O.co2 500  HEM500      0.0000
     15  C1B       -2.5560    6.9160   33.1760 C.2   500  HEM500      0.0000
     16  C2B       -2.1440    6.9340   31.8140 C.2   500  HEM500      0.0000
     17  C3B       -3.1630    7.3530   31.1180 C.2   500  HEM500      0.0000
     18  C4B       -4.2240    7.6040   32.0120 C.2   500  HEM500      0.0000
     19  CMB       -0.7780    6.5320   31.2680 C.3   500  HEM500      0.0000
     20  CAB       -3.2450    7.5620   29.6120 C.2   500  HEM500      0.0000
     21  CBB       -2.2840    7.1220   28.8490 C.2   500  HEM500      0.0000
     22  C1C       -6.4450    8.2420   32.4390 C.ar  500  HEM500      0.0000
     23  C2C       -7.7340    8.6350   32.0190 C.ar  500  HEM500      0.0000
     24  C3C       -8.4890    8.7180   33.0490 C.ar  500  HEM500      0.0000
     25  C4C       -7.6890    8.4110   34.1810 C.ar  500  HEM500      0.0000
     26  CMC       -8.2380    8.9050   30.5930 C.3   500  HEM500      0.0000
     27  CAC       -9.9370    9.1510   32.8780 C.2   500  HEM500      0.0000
     28  CBC      -10.9060    8.7580   33.6580 C.2   500  HEM500      0.0000
     29  C1D       -7.2940    7.9720   36.4610 C.2   500  HEM500      0.0000
     30  C2D       -7.7480    7.9580   37.7920 C.2   500  HEM500      0.0000
     31  C3D       -6.6340    7.4010   38.5870 C.2   500  HEM500      0.0000
     32  C4D       -5.5980    7.1510   37.6480 C.2   500  HEM500      0.0000
     33  CMD       -9.0880    8.3840   38.3670 C.3   500  HEM500      0.0000
     34  CAD       -6.6850    7.2240   40.1030 C.3   500  HEM500      0.0000
     35  CBD       -6.3910    5.8120   40.5200 C.3   500  HEM500      0.0000
     36  CGD       -6.4560    5.8020   42.0080 C.2   500  HEM500      0.0000
     37  O1D       -7.5070    5.4250   42.5420 O.co2 500  HEM500      0.0000
     38  O2D       -5.4460    6.1760   42.6390 O.co2 500  HEM500      0.0000
     39  NA        -3.4410    6.6660   35.8740 N.ar  500  HEM500      0.0000
     40  NB        -3.8660    7.3240   33.3090 N.2   500  HEM500      0.0000
     41  NC        -6.4010    8.0920   33.7990 N.ar  500  HEM500      0.0000
     42  ND        -5.9960    7.4950   36.3600 N.2   500  HEM500      0.0000
     43 FE         -4.9050    7.3770   34.8010 Fe    500  HEM500      0.0000
@<TRIPOS>BOND
     1    21    20    2
     2    20    17    1
     3    26    23    1
     4    17    16    2
     5    17    18    1
     6    19    16    1
     7     3    18    2
     8     3    22    1
     9    16    15    1
    10    18    40    1
    11    23    22   ar
    12    23    24   ar
    13    22    41   ar
    14    27    24    1
    15    27    28    2
    16    24    25   ar
    17    15    40    2
    18    15     2    1
    19    40    43    1
    20    41    25   ar
    21    41    43    1
    22     2     8    2
    23    25     4    1
    24    43    39    1
    25    43    42    1
    26     8    39   ar
    27     8     7   ar
    28     4    29    2
    29    39     5   ar
    30    42    29    1
    31    42    32    2
    32     9     7    1
    33    29    30    1
    34     7     6   ar
    35     5     6   ar
    36     5     1    2
    37     6    10    1
    38    32     1    1
    39    32    31    1
    40    30    33    1
    41    30    31    2
    42    31    34    1
    43    10    11    1
    44    11    12    1
    45    34    35    1
    46    35    36    1
    47    12    14   ar
    48    12    13   ar
    49    36    37   ar
    50    36    38   ar
