@<TRIPOS>MOLECULE
3g5n_PB2_A_1.pdb
 18 20 0 0 0
SMALL
GASTEIGER

@<TRIPOS>ATOM
      1  CDB        2.6620   12.8100   39.8960 C.ar  501  PB2501     -0.0000
      2  CDC        3.3440   13.0500   41.0520 C.ar  501  PB2501      0.0000
      3  CDD        2.6780   13.5890   42.1900 C.ar  501  PB2501      0.0000
      4  CDE        1.2830   13.8890   42.1060 C.ar  501  PB2501      0.0000
      5  CDF        0.5780   13.6620   40.9150 C.ar  501  PB2501     -0.0000
      6  CDA        1.1990   13.1340   39.8350 C.ar  501  PB2501     -0.0000
      7  CCD        0.4200   12.8780   38.5720 C.ar  501  PB2501     -0.0000
      8  CCE       -0.3910   13.8590   38.1100 C.ar  501  PB2501     -0.0003
      9  CCF       -1.1680   13.6470   36.9570 C.ar  501  PB2501     -0.0024
     10  CCC        0.3940   11.5650   37.9020 C.ar  501  PB2501     -0.0003
     11  CCB       -0.3390   11.3630   36.7630 C.ar  501  PB2501     -0.0024
     12  CCA       -1.1630   12.3950   36.2480 C.ar  501  PB2501      0.0004
     13  CAA       -2.0190   12.2190   34.9570 C.3   501  PB2501      0.1343
     14  NAB       -3.1040   11.2850   35.1940 N.ar  501  PB2501     -0.3036
     15  CAF       -4.0750   11.4500   36.0720 C.ar  501  PB2501      0.0983
     16  CAE       -4.8400   10.2830   36.1130 C.ar  501  PB2501      0.1193
     17  NAD       -4.2460    9.4140   35.2410 N.ar  501  PB2501     -0.2223
     18  CAC       -3.1890    9.9760   34.6710 C.ar  501  PB2501      0.1789
@<TRIPOS>BOND
     1    18    14   ar
     2    18    17   ar
     3    13    14    1
     4    13    12    1
     5    14    15   ar
     6    17    16   ar
     7    15    16   ar
     8    12    11   ar
     9    12     9   ar
    10    11    10   ar
    11     9     8   ar
    12    10     7   ar
    13     8     7   ar
    14     7     6    1
    15     6     1   ar
    16     6     5   ar
    17     1     2   ar
    18     5     4   ar
    19     2     3   ar
    20     4     3   ar
