@<TRIPOS>MOLECULE
3g5n_CM5_A_1.pdb
 22 23 0 0 0
SMALL
GASTEIGER

@<TRIPOS>ATOM
      1  C7       -13.9950   11.9350   46.3570 C.3   504  CM5504      0.0000
      2  C8       -15.1380   12.6070   45.6270 C.3   504  CM5504      0.0000
      3  C9       -15.0500   12.3920   44.1230 C.3   504  CM5504      0.0000
      4  C10      -15.0720   10.8960   43.9180 C.3   504  CM5504      0.0000
      5  C11      -13.8280   10.3150   44.5540 C.3   504  CM5504      0.0000
      6  C6       -13.9600   10.4500   46.0510 C.3   504  CM5504      0.0000
      7  C5       -12.7110    9.9040   46.6880 C.3   504  CM5504      0.0000
      8  C4       -12.5740   10.6710   47.9790 C.3   504  CM5504      0.0001
      9  C3       -11.3450   10.1180   48.6600 C.3   504  CM5504      0.0026
     10  C2       -11.2020    8.6950   48.1740 C.3   504  CM5504      0.0322
     11  C1        -9.9170    8.1440   48.7510 C.3   504  CM5504      0.1449
     12  O12       -9.9160    8.2880   50.1550 O.3   504  CM5504     -0.3286
     13  C13       -9.3890    7.0890   50.6760 C.3   504  CM5504      0.2693
     14  C18      -10.4930    6.3510   51.4330 C.3   504  CM5504      0.2380
     15  O22      -10.8770    7.0680   52.6140 O.3   504  CM5504     -0.2150
     16  C17      -10.0230    4.9560   51.8330 C.3   504  CM5504      0.1897
     17  O21      -11.1030    4.2370   52.4230 O.3   504  CM5504     -0.2201
     18  O14       -8.8430    6.3080   49.6140 O.3   504  CM5504     -0.3283
     19  C15       -8.2750    5.1380   50.1750 C.3   504  CM5504      0.1533
     20  C19       -7.2410    4.4500   49.2730 C.3   504  CM5504      0.2116
     21  O20       -7.3850    4.7950   47.9050 O.3   504  CM5504     -0.2177
     22  C16       -9.4400    4.2560   50.6120 C.3   504  CM5504      0.0681
@<TRIPOS>BOND
     1     4     3    1
     2     4     5    1
     3     3     2    1
     4     5     6    1
     5     2     1    1
     6     6     1    1
     7     6     7    1
     8     7     8    1
     9    21    20    1
    10     8     9    1
    11    10     9    1
    12    10    11    1
    13    11    12    1
    14    20    19    1
    15    18    19    1
    16    18    13    1
    17    12    13    1
    18    19    22    1
    19    22    16    1
    20    13    14    1
    21    14    16    1
    22    14    15    1
    23    16    17    1
