@<TRIPOS>MOLECULE
3g5r_THG_A_1.pdb
 12 13 0 0 0
SMALL
GASTEIGER

@<TRIPOS>ATOM
      1  N3       -17.3530   -6.0160   18.2460 N.2   445  THG445     -0.2474
      2  C2       -16.8110   -7.0220   17.5110 C.1   445  THG445      0.2608
      3  N1       -17.6200   -7.8260   16.7290 N.2   445  THG445     -0.2683
      4  C8A      -18.9640   -7.6090   16.6940 C.1   445  THG445      0.1270
      5  C4A      -19.5370   -6.5620   17.4570 C.2   445  THG445      0.2463
      6  C4       -18.7530   -5.7930   18.2100 C.1   445  THG445      0.2441
      7  N8       -19.8520   -8.4750   15.8510 N.2   445  THG445     -0.2054
      8  C7       -21.2260   -8.0080   15.6040 C.3   445  THG445      0.1636
      9  C6       -21.7980   -7.3250   16.8510 C.3   445  THG445      0.1542
     10  N5       -20.9460   -6.3290   17.3860 N.2   445  THG445     -0.2467
     11  O4       -19.3030   -4.7560   18.9700 O.2   445  THG445     -0.2063
     12  N2       -15.3820   -7.2450   17.5300 N.pl3 445  THG445     -0.0220
@<TRIPOS>BOND
     1     8     7    1
     2     8     9    1
     3     7     4    2
     4     4     3    2
     5     4     5    1
     6     3     2    2
     7     9    10    1
     8    10     5    2
     9     5     6    1
    10     2    12    1
    11     2     1    2
    12     6     1    2
    13     6    11    2
