@<TRIPOS>MOLECULE
3g5s_GSH_A_1.pdb
 20 19 0 0 0
SMALL
GASTEIGER

@<TRIPOS>ATOM
      1  N1        12.9060   49.2650   26.6850 N.3   445  GSH445     -0.1208
      2  CA1       11.7000   48.4700   26.8230 C.3   445  GSH445      0.1948
      3  C1        11.6970   47.2370   25.9330 C.2   445  GSH445      0.3819
      4  O11       12.8520   46.9280   25.2150 O.co2 445  GSH445     -0.2441
      5  O12       10.8520   46.4160   26.0790 O.co2 445  GSH445     -0.2441
      6  CB1       10.4100   49.2780   26.7110 C.3   445  GSH445      0.0402
      7  CG1        9.8770   49.5690   25.3130 C.3   445  GSH445      0.0889
      8  CD1       10.6520   50.5430   24.4290 C.2   445  GSH445      0.2418
      9  OE1       11.7480   50.9190   24.6970 O.2   445  GSH445     -0.2733
     10  N2         9.9870   51.0170   23.2480 N.am  445  GSH445     -0.1968
     11  CA2       10.5930   52.0120   22.4210 C.3   445  GSH445      0.1843
     12  C2         9.9320   53.3780   22.5780 C.2   445  GSH445      0.2627
     13  O2         8.9550   53.6430   21.9600 O.2   445  GSH445     -0.2714
     14  CB2       10.5430   51.4990   20.9910 C.3   445  GSH445      0.0997
     15  SG2       11.4510   52.4510   19.7550 S.3   445  GSH445     -0.0797
     16  N3        10.7580   54.4470   23.1040 N.am  445  GSH445     -0.1917
     17  CA3       10.2470   55.8010   23.1110 C.3   445  GSH445      0.2285
     18  C3         9.2030   56.0700   24.1850 C.2   445  GSH445      0.3865
     19  O31        8.2940   56.8210   24.0160 O.co2 445  GSH445     -0.2437
     20  O32        9.2050   55.1960   25.2540 O.co2 445  GSH445     -0.2437
@<TRIPOS>BOND
     1    15    14    1
     2    14    11    1
     3    13    12    2
     4    11    12    1
     5    11    10    1
     6    12    16   am
     7    16    17    1
     8    17    18    1
     9    10     8   am
    10    19    18   ar
    11    18    20   ar
    12     8     9    2
    13     8     7    1
    14     4     3   ar
    15     7     6    1
    16     3     5   ar
    17     3     2    1
    18     1     2    1
    19     6     2    1
