@<TRIPOS>MOLECULE
3g5t_T8N_A_1.pdb
 13 12 0 0 0
SMALL
GASTEIGER

@<TRIPOS>ATOM
      1  OG1       32.9870   49.7610    5.4680 O.2   309  T8N309     -0.2497
      2  CGC       32.0170   50.2010    6.0950 C.2   309  T8N309      0.3218
      3  OG2       31.0850   49.3620    6.5150 O.3   309  T8N309     -0.4442
      4  C16       31.2060   47.9830    6.1840 C.3   309  T8N309      0.2556
      5  CG        31.7940   51.5970    6.4940 C.3   309  T8N309      0.1427
      6  CB        31.4780   51.6920    7.9530 C.2   309  T8N309      0.0753
      7  C2C       32.3970   51.0000    8.8830 C.2   309  T8N309      0.3846
      8  OB2       31.9440   50.4700    9.9160 O.co2 309  T8N309     -0.2409
      9  OB1       33.6210   50.9330    8.5590 O.co2 309  T8N309     -0.2409
     10  CA        30.3790   52.2390    8.4910 C.2   309  T8N309      0.0890
     11  C1C       29.3450   53.0450    7.8270 C.2   309  T8N309      0.3879
     12  OA1       29.7190   53.9790    7.0510 O.co2 309  T8N309     -0.2406
     13  OA2       28.1820   52.7880    8.0880 O.co2 309  T8N309     -0.2406
@<TRIPOS>BOND
     1     1     2    2
     2     2     5    1
     3     2     3    1
     4     4     3    1
     5     5     6    1
     6    12    11   ar
     7    11    13   ar
     8    11    10    1
     9     6    10    2
    10     6     7    1
    11     9     7   ar
    12     7     8   ar
