@<TRIPOS>MOLECULE
3g5t_SAH_A_1.pdb
 26 28 0 0 0
SMALL
GASTEIGER

@<TRIPOS>ATOM
      1  N         28.9100   43.4250    1.8020 N.3   308  SAH308     -0.1208
      2  CA        28.5440   43.9330    3.1770 C.3   308  SAH308      0.1952
      3  CB        29.8100   44.6720    3.8250 C.3   308  SAH308      0.0422
      4  CG        30.3170   43.8510    5.0160 C.3   308  SAH308      0.0597
      5  SD        31.4260   44.8410    5.8810 S.3   308  SAH308     -0.1375
      6  C         27.3380   44.8710    3.0450 C.2   308  SAH308      0.3819
      7  O         26.7760   44.9940    1.9310 O.co2 308  SAH308     -0.2441
      8  OXT       26.9820   45.5810    4.0430 O.co2 308  SAH308     -0.2441
      9  C5'       32.8720   44.9140    4.8860 C.3   308  SAH308      0.0899
     10  C4'       33.5170   43.5520    4.6930 C.3   308  SAH308      0.1630
     11  O4'       34.6920   43.7090    3.8730 O.3   308  SAH308     -0.3153
     12  C3'       33.9520   42.8790    6.0300 C.3   308  SAH308      0.2168
     13  O3'       33.2340   41.6810    6.2630 O.3   308  SAH308     -0.2175
     14  C2'       35.4550   42.6290    5.7620 C.3   308  SAH308      0.2569
     15  O2'       36.0140   41.4120    6.3350 O.3   308  SAH308     -0.2130
     16  C1'       35.5300   42.5930    4.2470 C.3   308  SAH308      0.3185
     17  N9        36.8490   42.8030    3.6360 N.pl3 308  SAH308     -0.1439
     18  C8        37.6690   43.8190    3.8480 C.3   308  SAH308      0.3377
     19  N7        38.7600   43.7570    3.0860 N.2   308  SAH308     -0.2095
     20  C5        38.6190   42.6460    2.3510 C.2   308  SAH308      0.2526
     21  C6        39.3920   41.9480    1.3180 C.2   308  SAH308      0.4393
     22  N6        40.5480   42.4380    0.8930 N.pl3 308  SAH308      0.2180
     23  N1        38.8490   40.8630    0.7860 N.2   308  SAH308      0.0021
     24  C2        37.6720   40.3790    1.2050 C.3   308  SAH308      0.5254
     25  N3        36.8990   40.9050    2.1570 N.2   308  SAH308     -0.0055
     26  C4        37.3710   42.0300    2.7040 C.2   308  SAH308      0.3518
@<TRIPOS>BOND
     1    23    24    1
     2    23    21    2
     3    22    21    1
     4    24    25    1
     5    21    20    1
     6     1     2    1
     7     7     6   ar
     8    25    26    2
     9    20    26    1
    10    20    19    2
    11    26    17    1
    12     6     2    1
    13     6     8   ar
    14    19    18    1
    15     2     3    1
    16    17    18    1
    17    17    16    1
    18     3     4    1
    19    11    16    1
    20    11    10    1
    21    16    14    1
    22    10     9    1
    23    10    12    1
    24     9     5    1
    25     4     5    1
    26    14    12    1
    27    14    15    1
    28    12    13    1
