@<TRIPOS>MOLECULE
3g60_0JZ_A_1.pdb
 36 39 0 0 0
SMALL
GASTEIGER

@<TRIPOS>ATOM
      1  N         17.1170   54.2040   -0.1730 N.2   6001  0JZ6001     0.0000
      2  N1        19.4550   55.0510    1.1480 N.2   6001  0JZ6001     0.0000
      3  N2        21.6980   53.8480    0.0210 N.2   6001  0JZ6001     0.0000
      4  N3        21.9030   51.2360   -1.1660 N.2   6001  0JZ6001     0.0000
      5  N4        19.2870   50.5950   -2.3290 N.2   6001  0JZ6001     0.0000
      6  N5        16.8130   52.1190   -2.2600 N.2   6001  0JZ6001     0.0000
      7  C         15.2100   55.2850   -0.8500 C.3   6001  0JZ6001     0.0000
      8  C1        17.1150   55.2610    0.7480 C.2   6001  0JZ6001     0.0000
      9  C2        15.8600   53.2120   -2.1250 C.1   6001  0JZ6001     0.0000
     10  C3        18.1970   55.4310    1.7960 C.3   6001  0JZ6001     0.0000
     11  C4        20.4140   55.9000    0.5310 C.1   6001  0JZ6001     0.0000
     12  C5        21.5880   55.2260   -0.0550 C.2   6001  0JZ6001     0.0000
     13  C6        22.6210   55.8210   -0.6900 C.3   6001  0JZ6001     0.0000
     14  C7        22.8420   53.3320   -0.5640 C.2   6001  0JZ6001     0.0000
     15  C8        23.1420   51.8450   -0.5790 C.3   6001  0JZ6001     0.0000
     16  C9        23.4910   51.3530    0.8930 C.3   6001  0JZ6001     0.0000
     17  C10       22.3640   51.5610    1.9320 C.3   6001  0JZ6001     0.0000
     18  C11       23.8740   49.8660    0.9590 C.3   6001  0JZ6001     0.0000
     19  C12       21.6030   49.8850   -1.5370 C.1   6001  0JZ6001     0.0000
     20  C13       20.2630   49.5960   -2.1210 C.2   6001  0JZ6001     0.0000
     21  C14       19.8710   48.3660   -2.5050 C.3   6001  0JZ6001     0.0000
     22  C15       18.0960   50.1050   -2.9010 C.2   6001  0JZ6001     0.0000
     23  C16       16.8690   50.9720   -3.2540 C.3   6001  0JZ6001     0.0000
     24  C17       16.0480   54.2370   -1.0570 C.2   6001  0JZ6001     0.0000
     25  C18       15.5660   50.0430   -3.3350 C.3   6001  0JZ6001     0.0000
     26  C19       15.2020   49.3030   -2.0360 C.3   6001  0JZ6001     0.0000
     27  C20       14.2940   50.7850   -3.7590 C.3   6001  0JZ6001     0.0000
     28  C21       17.9530   54.5540    3.0660 C.3   6001  0JZ6001     0.0000
     29  C22       17.8600   53.0380    2.7740 C.3   6001  0JZ6001     0.0000
     30  C23       19.0690   54.7740    4.1060 C.3   6001  0JZ6001     0.0000
     31  O         14.8930   53.3350   -2.8650 O.2   6001  0JZ6001     0.0000
     32  O1        20.2920   57.1280    0.4720 O.2   6001  0JZ6001     0.0000
     33  O2        22.4090   48.9610   -1.3970 O.2   6001  0JZ6001     0.0000
     34 SE1        15.6610   56.4570    0.5680 Se    6001  0JZ6001     0.0000
     35 SE2        23.9710   54.6440   -1.3250 Se    6001  0JZ6001     0.0000
     36 SE3        18.1370   48.2330   -3.2270 Se    6001  0JZ6001     0.0000
@<TRIPOS>BOND
     1    27    25    1
     2    25    23    1
     3    25    26    1
     4    23    22    1
     5    23     6    1
     6    36    22    1
     7    36    21    1
     8    22     5    2
     9    31     9    2
    10    21    20    1
    11     5    20    2
    12     6     9    2
    13     9    24    1
    14    20    19    1
    15    19    33    2
    16    19     4    2
    17    35    13    1
    18    35    14    1
    19     4    15    1
    20    24     7    1
    21    24     1    2
    22     7    34    1
    23    13    12    1
    24    15    14    1
    25    15    16    1
    26    14     3    2
    27     1     8    2
    28    12     3    2
    29    12    11    1
    30    32    11    2
    31    11     2    2
    32    34     8    1
    33     8    10    1
    34    16    18    1
    35    16    17    1
    36     2    10    1
    37    10    28    1
    38    29    28    1
    39    28    30    1
