@<TRIPOS>MOLECULE
3g61_0JZ_A_1.pdb
 36 39 0 0 0
SMALL
GASTEIGER

@<TRIPOS>ATOM
      1  N         15.3990   57.8670    0.7450 N.2   6001  0JZ6001     0.0000
      2  N1        18.1970   57.2350    0.4320 N.2   6001  0JZ6001     0.0000
      3  N2        19.8080   58.6440    2.3350 N.2   6001  0JZ6001     0.0000
      4  N3        18.9680   60.0360    4.6650 N.2   6001  0JZ6001     0.0000
      5  N4        16.1140   60.3620    4.6260 N.2   6001  0JZ6001     0.0000
      6  N5        14.1340   59.1450    2.9140 N.2   6001  0JZ6001     0.0000
      7  C         13.7600   58.4710   -0.7450 C.3   6001  0JZ6001     0.0000
      8  C1        15.9280   57.2720   -0.3960 C.2   6001  0JZ6001     0.0000
      9  C2        13.5040   59.2090    1.6430 C.1   6001  0JZ6001     0.0000
     10  C3        17.2310   56.4950   -0.3950 C.3   6001  0JZ6001     0.0000
     11  C4        19.4800   57.6970    0.0350 C.1   6001  0JZ6001     0.0000
     12  C5        20.2870   58.4190    1.0460 C.2   6001  0JZ6001     0.0000
     13  C6        21.5170   58.9200    0.8330 C.3   6001  0JZ6001     0.0000
     14  C7        20.7030   59.3390    3.1520 C.2   6001  0JZ6001     0.0000
     15  C8        20.3970   59.6960    4.5970 C.3   6001  0JZ6001     0.0000
     16  C9        20.7520   58.5270    5.5860 C.3   6001  0JZ6001     0.0000
     17  C10       20.0240   57.1940    5.2960 C.3   6001  0JZ6001     0.0000
     18  C11       20.4530   58.9190    7.0470 C.3   6001  0JZ6001     0.0000
     19  C12       18.4040   61.2360    5.1800 C.1   6001  0JZ6001     0.0000
     20  C13       16.9300   61.3730    5.1450 C.2   6001  0JZ6001     0.0000
     21  C14       16.2490   62.4460    5.5920 C.3   6001  0JZ6001     0.0000
     22  C15       14.7510   60.6640    4.6740 C.2   6001  0JZ6001     0.0000
     23  C16       13.6600   59.7330    4.1700 C.3   6001  0JZ6001     0.0000
     24  C17       14.1930   58.5280    0.5290 C.2   6001  0JZ6001     0.0000
     25  C18       13.2970   58.6100    5.2050 C.3   6001  0JZ6001     0.0000
     26  C19       14.4850   57.7000    5.5970 C.3   6001  0JZ6001     0.0000
     27  C20       12.1710   57.7010    4.6730 C.3   6001  0JZ6001     0.0000
     28  C21       17.0420   55.0450    0.1550 C.3   6001  0JZ6001     0.0000
     29  C22       16.4830   54.9990    1.5960 C.3   6001  0JZ6001     0.0000
     30  C23       18.3690   54.2590    0.1320 C.3   6001  0JZ6001     0.0000
     31  O         12.4320   59.7990    1.4530 O.2   6001  0JZ6001     0.0000
     32  O1        19.9300   57.5130   -1.1040 O.2   6001  0JZ6001     0.0000
     33  O2        19.1000   62.1500    5.6410 O.2   6001  0JZ6001     0.0000
     34 SE1        14.8730   57.5130   -1.9390 Se    6001  0JZ6001     0.0000
     35 SE2        22.3250   59.8000    2.2980 Se    6001  0JZ6001     0.0000
     36 SE3        14.3690   62.3480    5.4230 Se    6001  0JZ6001     0.0000
@<TRIPOS>BOND
     1    34     7    1
     2    34     8    1
     3    32    11    2
     4     7    24    1
     5     8    10    1
     6     8     1    2
     7    10    28    1
     8    10     2    1
     9    11     2    2
    10    11    12    1
    11    30    28    1
    12    28    29    1
    13    24     1    2
    14    24     9    1
    15    13    12    1
    16    13    35    1
    17    12     3    2
    18    31     9    2
    19     9     6    2
    20    35    14    1
    21     3    14    2
    22     6    23    1
    23    14    15    1
    24    23    22    1
    25    23    25    1
    26    15     4    1
    27    15    16    1
    28     5    22    2
    29     5    20    2
    30     4    19    2
    31    27    25    1
    32    22    36    1
    33    20    19    1
    34    20    21    1
    35    19    33    2
    36    25    26    1
    37    17    16    1
    38    36    21    1
    39    16    18    1
