@<TRIPOS>MOLECULE
3g6g_G6G_A_1.pdb
 46 51 0 0 0
SMALL
GASTEIGER

@<TRIPOS>ATOM
      1  C1        15.3240   38.0830    5.6990 C.ar    1  G6G1        0.0205
      2  C2        15.4190   39.2840    4.9690 C.ar    1  G6G1        0.0383
      3  C3        14.2580   39.9660    4.5920 C.ar    1  G6G1        0.1388
      4  C4        13.0210   39.4200    4.9660 C.ar    1  G6G1        0.0383
      5  C5        12.9430   38.2270    5.7040 C.ar    1  G6G1        0.0205
      6  C6        14.0870   37.5440    6.0870 C.ar    1  G6G1        0.0828
      7  C8        15.6520   41.4590    3.3330 C.3     1  G6G1        0.2525
      8  C10       13.0540   35.8060    7.4560 C.1     1  G6G1        0.1766
      9  C12       10.8710   35.9070    8.3140 C.1     1  G6G1        0.1003
     10  C14       12.1980   34.0130    8.6400 C.3     1  G6G1        0.2741
     11  C41       -1.1130   29.0840    6.8250 C.3     1  G6G1        0.0899
     12  C42       -2.4800   29.7700    7.0010 C.3     1  G6G1        0.0897
     13  N43       -3.4970   28.7220    6.8850 N.3     1  G6G1       -0.2691
     14  C46       -4.8520   29.3030    6.7730 C.3     1  G6G1        0.0897
     15  C44       -3.4110   27.6770    7.9390 C.3     1  G6G1        0.0897
     16  C45       -2.0120   27.0400    7.9010 C.3     1  G6G1        0.0899
     17  N40       -0.9600   28.0990    7.9270 N.3     1  G6G1       -0.2665
     18  C39        0.4010   27.5160    8.0760 C.3     1  G6G1        0.0992
     19  C36        1.4650   28.5640    8.3850 C.ar    1  G6G1       -0.0061
     20  C37        2.6140   28.5870    7.6000 C.ar    1  G6G1       -0.0028
     21  C38        3.5980   29.5380    7.8430 C.ar    1  G6G1        0.0043
     22  C35        1.3150   29.4900    9.4080 C.ar    1  G6G1       -0.0028
     23  C34        2.3130   30.4440    9.6550 C.ar    1  G6G1        0.0043
     24  C32        3.4580   30.4650    8.8700 C.ar    1  G6G1        0.0554
     25  C31        4.6010   31.4760    9.0740 C.2     1  G6G1        0.2690
     26  O33        5.4760   31.5530    8.2070 O.2     1  G6G1       -0.2680
     27  N30        4.5620   32.1840   10.2270 N.am    1  G6G1       -0.1754
     28  C25        5.4640   33.0670   10.6830 C.ar    1  G6G1        0.0750
     29  C24        6.5630   33.5540    9.9370 C.ar    1  G6G1        0.0328
     30  C26        5.3140   33.5010   11.9960 C.ar    1  G6G1        0.0164
     31  C27        6.2260   34.4080   12.5440 C.ar    1  G6G1       -0.0016
     32  C28        7.3000   34.9070   11.8070 C.ar    1  G6G1       -0.0065
     33  C29        8.2710   35.9050   12.4890 C.3     1  G6G1        0.0324
     34  C23        7.4760   34.4900   10.4740 C.ar    1  G6G1        0.0695
     35  N22        8.5240   34.9560    9.7370 N.pl3   1  G6G1       -0.1938
     36  C21        8.5540   36.1790    9.1750 C.ar    1  G6G1        0.1621
     37  N20        7.4540   36.9420    9.2660 N.ar    1  G6G1       -0.2267
     38  C19        7.3760   38.1630    8.7300 C.ar    1  G6G1        0.1004
     39  C18        8.4610   38.6890    8.0210 C.ar    1  G6G1        0.0215
     40  C17        9.6290   37.9170    7.8670 C.ar    1  G6G1        0.0155
     41  C16        9.6890   36.6500    8.4670 C.ar    1  G6G1        0.1079
     42  N11       11.8930   36.4630    7.6490 N.2     1  G6G1       -0.2822
     43  N13       11.0400   34.6610    8.8170 N.2     1  G6G1       -0.1811
     44  N15       13.2000   34.5610    7.9740 N.2     1  G6G1       -0.1675
     45  N9        14.0740   36.3800    6.7820 N.pl3   1  G6G1       -0.1354
     46  O7        14.3030   41.1520    3.8660 O.3     1  G6G1       -0.4714
@<TRIPOS>BOND
     1     7    46    1
     2    46     3    1
     3     3     4   ar
     4     3     2   ar
     5     4     5   ar
     6     2     1   ar
     7     1     6   ar
     8     5     6   ar
     9     6    45    1
    10    14    13    1
    11    45     8    1
    12    11    12    1
    13    11    17    1
    14    13    12    1
    15    13    15    1
    16     8    42    2
    17     8    44    2
    18    20    21   ar
    19    20    19   ar
    20    42     9    2
    21    21    24   ar
    22    40    39   ar
    23    40    41   ar
    24    16    17    1
    25    16    15    1
    26    17    18    1
    27    44    10    1
    28    39    38   ar
    29    18    19    1
    30    26    25    2
    31     9    41    1
    32     9    43    2
    33    19    22   ar
    34    41    36   ar
    35    10    43    1
    36    38    37   ar
    37    24    25    1
    38    24    23   ar
    39    25    27   am
    40    36    37   ar
    41    36    35    1
    42    22    23   ar
    43    35    34    1
    44    29    34   ar
    45    29    28   ar
    46    27    28    1
    47    34    32   ar
    48    28    30   ar
    49    32    33    1
    50    32    31   ar
    51    30    31   ar
