@<TRIPOS>MOLECULE
3g6h_G6H_B_1.pdb
 46 50 0 0 0
SMALL
GASTEIGER

@<TRIPOS>ATOM
      1  CBQ       -5.1300  -39.2600  -27.4970 C.3     1  G6H1        0.2526
      2  OBP       -3.9640  -40.0300  -27.1470 O.3     1  G6H1       -0.4682
      3  CAB       -2.7750  -39.5030  -27.5970 C.ar    1  G6H1        0.1768
      4  CAC       -2.7560  -38.3830  -28.4490 C.ar    1  G6H1        0.0576
      5  CAA       -1.5710  -40.1080  -27.1790 C.ar    1  G6H1        0.2061
      6  OBO       -1.6250  -41.1880  -26.3340 O.3     1  G6H1       -0.4654
      7  CBR       -2.1110  -40.8130  -24.9710 C.3     1  G6H1        0.2528
      8  CAF       -0.3410  -39.5860  -27.6070 C.ar    1  G6H1        0.1768
      9  OBS        0.8930  -40.1230  -27.2520 O.3     1  G6H1       -0.4682
     10  CBT        1.1580  -40.6590  -25.9040 C.3     1  G6H1        0.2526
     11  CAE       -0.3600  -38.4700  -28.4680 C.ar    1  G6H1        0.0576
     12  CAD       -1.5450  -37.8480  -28.8950 C.ar    1  G6H1        0.0888
     13  NAG       -1.4840  -36.7870  -29.7370 N.pl3   1  G6H1       -0.1352
     14  CAH       -2.5120  -36.2160  -30.4050 C.1     1  G6H1        0.1766
     15  NAI       -3.7360  -36.7930  -30.5080 N.2     1  G6H1       -0.2822
     16  NAM       -2.3320  -35.0230  -30.9900 N.2     1  G6H1       -0.1675
     17  CAL       -3.3290  -34.4200  -31.6350 C.3     1  G6H1        0.2741
     18  NAK       -4.5330  -34.9850  -31.7420 N.2     1  G6H1       -0.1811
     19  CAJ       -4.7620  -36.2010  -31.1790 C.1     1  G6H1        0.1003
     20  CAN       -6.0230  -36.8520  -31.2220 C.ar    1  G6H1        0.1079
     21  CAO       -6.1370  -38.0650  -30.5390 C.ar    1  G6H1        0.0155
     22  CAP       -7.3480  -38.7710  -30.5160 C.ar    1  G6H1        0.0215
     23  CAQ       -8.4580  -38.2390  -31.1750 C.ar    1  G6H1        0.1004
     24  NAR       -8.3440  -37.0790  -31.8150 N.ar    1  G6H1       -0.2267
     25  CAS       -7.1920  -36.3630  -31.8650 C.ar    1  G6H1        0.1621
     26  NAT       -7.2260  -35.1950  -32.5410 N.pl3   1  G6H1       -0.1938
     27  CAU       -8.3060  -34.8060  -33.2840 C.ar    1  G6H1        0.0695
     28  CAV       -9.2640  -33.8950  -32.7680 C.ar    1  G6H1        0.0328
     29  CAZ       -8.4820  -35.2910  -34.5980 C.ar    1  G6H1       -0.0065
     30  CBA       -7.5090  -36.2760  -35.2740 C.3     1  G6H1        0.0324
     31  CAY       -9.5730  -34.8750  -35.3490 C.ar    1  G6H1       -0.0016
     32  CAX      -10.5120  -33.9960  -34.8270 C.ar    1  G6H1        0.0164
     33  CAW      -10.3850  -33.4980  -33.5390 C.ar    1  G6H1        0.0750
     34  NBB      -11.3450  -32.6300  -33.1780 N.am    1  G6H1       -0.1754
     35  CBC      -11.4990  -31.9970  -32.0140 C.2     1  G6H1        0.2690
     36  OBD      -10.8300  -32.2120  -31.0110 O.2     1  G6H1       -0.2680
     37  CBE      -12.6630  -30.9910  -31.9410 C.ar    1  G6H1        0.0553
     38  CBJ      -12.5520  -29.8780  -31.1070 C.ar    1  G6H1        0.0084
     39  CBF      -13.8260  -31.1640  -32.6870 C.ar    1  G6H1        0.0046
     40  CBG      -14.8650  -30.2310  -32.5970 C.ar    1  G6H1        0.0001
     41  CBH      -14.7420  -29.1290  -31.7510 C.ar    1  G6H1        0.0039
     42  CBI      -13.5840  -28.9470  -30.9990 C.ar    1  G6H1        0.0716
     43  CBK      -13.4240  -27.7320  -30.0530 C.3     1  G6H1        0.4186
     44  FBL      -13.4520  -28.1260  -28.7880 F       1  G6H1       -0.1659
     45  FBM      -14.4160  -26.8710  -30.1790 F       1  G6H1       -0.1659
     46  FBN      -12.2680  -27.1190  -30.3070 F       1  G6H1       -0.1659
@<TRIPOS>BOND
     1    31    32   ar
     2    31    29   ar
     3    30    29    1
     4    32    33   ar
     5    29    27   ar
     6    33    34    1
     7    33    28   ar
     8    27    28   ar
     9    27    26    1
    10    34    35   am
    11    39    40   ar
    12    39    37   ar
    13    40    41   ar
    14    26    25    1
    15    35    37    1
    16    35    36    2
    17    37    38   ar
    18    25    24   ar
    19    25    20   ar
    20    24    23   ar
    21    41    42   ar
    22    18    17    1
    23    18    19    2
    24    17    16    1
    25    20    19    1
    26    20    21   ar
    27    19    15    2
    28    23    22   ar
    29    38    42   ar
    30    42    43    1
    31    16    14    2
    32    21    22   ar
    33    15    14    2
    34    14    13    1
    35    46    43    1
    36    45    43    1
    37    43    44    1
    38    13    12    1
    39    12    11   ar
    40    12     4   ar
    41    11     8   ar
    42     4     3   ar
    43     8     9    1
    44     8     5   ar
    45     3     5   ar
    46     3     2    1
    47     1     2    1
    48     9    10    1
    49     5     6    1
    50     6     7    1
