@<TRIPOS>MOLECULE
3g6k_BGC_B_1.pdb
 12 12 0 0 0
SMALL
GASTEIGER

@<TRIPOS>ATOM
      1  C2        41.3840  -17.4430   16.7740 C.3   311  BGC311      0.2434
      2  C3        42.7350  -17.6880   16.1210 C.3   311  BGC311      0.2199
      3  C4        42.6000  -17.9780   14.6400 C.3   311  BGC311      0.2144
      4  C5        41.7710  -16.8890   13.9880 C.3   311  BGC311      0.1836
      5  C6        41.7090  -17.1410   12.4930 C.3   311  BGC311      0.2142
      6  C1        40.3340  -16.7270   15.9230 C.3   311  BGC311      0.3024
      7  O1        39.0590  -17.2350   16.3390 O.3   311  BGC311     -0.1869
      8  O2        41.6370  -16.7120   17.9800 O.3   311  BGC311     -0.2148
      9  O3        43.2800  -18.8350   16.7980 O.3   311  BGC311     -0.2174
     10  O4        43.8700  -17.9990   13.9870 O.3   311  BGC311     -0.2176
     11  O5        40.4530  -16.9700   14.5240 O.3   311  BGC311     -0.3236
     12  O6        40.7580  -18.1800   12.2590 O.3   311  BGC311     -0.2176
@<TRIPOS>BOND
     1    12     5    1
     2     5     4    1
     3    10     3    1
     4     4    11    1
     5     4     3    1
     6    11     6    1
     7     3     2    1
     8     6     7    1
     9     6     1    1
    10     2     1    1
    11     2     9    1
    12     1     8    1
