@<TRIPOS>MOLECULE
3g6m_CFF_A_1.pdb
 14 15 0 0 0
SMALL
GASTEIGER

@<TRIPOS>ATOM
      1  N1        15.2600    5.9240    2.8320 N.am    1  CFF1       -0.1903
      2  C2        14.1060    6.2370    2.1590 C.2     1  CFF1        0.4044
      3  C10       16.5670    6.1750    2.1950 C.3     1  CFF1        0.1267
      4  C6        15.2370    5.3900    4.0810 C.2     1  CFF1        0.2609
      5  N3        12.8500    6.0490    2.6570 N.am    1  CFF1       -0.1218
      6  O11       14.1940    6.7360    1.0040 O.2     1  CFF1       -0.2230
      7  C12       11.6640    6.4170    1.8610 C.3     1  CFF1        0.2626
      8  C4        12.7160    5.5360    3.8810 C.2     1  CFF1        0.3276
      9  C5        13.8880    5.1700    4.6660 C.3     1  CFF1        0.2453
     10  N9        11.6280    5.2440    4.6210 N.2     1  CFF1       -0.0479
     11  O13       16.2790    5.0880    4.7050 O.2     1  CFF1       -0.2723
     12  N7        13.4500    4.6840    5.8340 N.3     1  CFF1       -0.2098
     13  C8        12.0960    4.7370    5.7970 C.3     1  CFF1        0.3428
     14  C14       14.2420    4.1800    6.9650 C.3     1  CFF1        0.0945
@<TRIPOS>BOND
     1     6     2    2
     2     7     5    1
     3     2     5   am
     4     2     1   am
     5     3     1    1
     6     5     8    1
     7     1     4   am
     8     8    10    2
     9     8     9    1
    10     4     9    1
    11     4    11    2
    12    10    13    1
    13     9    12    1
    14    13    12    1
    15    12    14    1
