@<TRIPOS>MOLECULE
3g6n_III_F_1.pdb
 20 19 0 0 0
SMALL
GASTEIGER

@<TRIPOS>ATOM
      1  N          4.1650   58.6440   82.1170 N.3     1  MET1       -0.1230
      2  CA         2.9330   59.2340   81.6120 C.3     1  MET1        0.1702
      3  C          2.7640   59.1920   80.0820 C.2     1  MET1        0.2592
      4  O          3.1190   58.2060   79.4280 O.2     1  MET1       -0.2718
      5  CB         2.8010   60.6790   82.1090 C.3     1  MET1        0.0401
      6  CG         2.0270   60.8230   83.4230 C.3     1  MET1        0.0596
      7  SD         1.1830   62.4370   83.6050 S.3     1  MET1       -0.1393
      8  CE        -0.2420   62.2080   82.6090 C.3     1  MET1        0.0692
      9  N          2.1930   60.2550   79.5170 N.am    2  ALA2       -0.1966
     10  CA         1.9760   60.3170   78.0730 C.3     2  ALA2        0.1728
     11  C          2.3980   61.6480   77.4680 C.2     2  ALA2        0.2617
     12  O          2.4760   62.6700   78.1540 O.2     2  ALA2       -0.2715
     13  CB         0.5070   60.0490   77.7420 C.3     2  ALA2        0.0334
     14  N          2.6590   61.6050   76.1640 N.am    3  SER3       -0.1914
     15  CA         3.0700   62.7640   75.3840 C.3     3  SER3        0.2304
     16  C          3.9490   63.7300   76.1770 C.2     3  SER3        0.3869
     17  O          4.8820   64.3240   75.6340 O.co2   3  SER3       -0.2437
     18  CB         1.8270   63.4890   74.8620 C.3     3  SER3        0.2152
     19  OG         0.8260   62.5650   74.4500 O.3     3  SER3       -0.2179
     20  OXT        3.6760   63.9750   77.3660 O.co2   3  SER3       -0.2437
@<TRIPOS>BOND
     1    19    18    1
     2    18    15    1
     3    15    14    1
     4    15    16    1
     5    17    16   ar
     6    14    11   am
     7    16    20   ar
     8    11    10    1
     9    11    12    2
    10    13    10    1
    11    10     9    1
    12     4     3    2
    13     9     3   am
    14     3     2    1
    15     2     5    1
    16     2     1    1
    17     5     6    1
    18     8     7    1
    19     6     7    1
