@<TRIPOS>MOLECULE
3g6o_BLA_A_1.pdb
 43 46 0 0 0
SMALL
GASTEIGER

@<TRIPOS>ATOM
      1  CHA       57.6900   60.1730   16.7710 C.3   900  BLA900      0.1170
      2  NA        56.8550   62.0670   18.1090 N.2   900  BLA900     -0.4104
      3  C1A       56.9140   60.7860   17.7470 C.2   900  BLA900      0.1114
      4  C2A       56.0120   60.0580   18.5190 C.2   900  BLA900      0.0024
      5  C3A       55.4230   60.9880   19.3600 C.2   900  BLA900      0.0021
      6  C4A       55.9690   62.2360   19.0840 C.2   900  BLA900      0.1114
      7  CMA       54.3460   60.6820   20.4070 C.3   900  BLA900      0.0331
      8  CAA       55.7330   58.5540   18.4170 C.3   900  BLA900      0.0402
      9  CBA       56.7150   57.6560   19.1560 C.3   900  BLA900      0.1188
     10  CGA       56.6930   57.9140   20.6580 C.2   900  BLA900      0.3652
     11  O1A       57.7760   57.7780   21.2680 O.co2 900  BLA900     -0.2456
     12  O2A       55.5800   58.1830   21.1600 O.co2 900  BLA900     -0.2456
     13  CHB       55.6530   63.5680   19.7590 C.3   900  BLA900      0.1181
     14  NB        54.7910   64.9480   21.7180 N.2   900  BLA900     -0.3375
     15  C1B       55.3870   63.8480   21.2390 C.2   900  BLA900      0.1254
     16  C2B       55.6990   63.0330   22.3300 C.2   900  BLA900      0.0128
     17  C3B       55.2630   63.6670   23.4660 C.2   900  BLA900      0.0706
     18  C4B       54.7060   64.8670   23.0520 C.1   900  BLA900      0.2000
     19  CMB       56.3830   61.6690   22.3320 C.3   900  BLA900      0.0339
     20  OB        54.2100   65.7280   23.7790 O.2   900  BLA900     -0.2096
     21  CAB       55.3900   63.1730   24.7550 C.3   900  BLA900      0.0390
     22  CBB       54.9170   63.8830   25.8480 C.3   900  BLA900      0.0058
     23  NC        59.4210   65.0470   16.7930 N.2   900  BLA900     -0.3375
     24  C1C       59.0040   66.2540   17.1410 C.1   900  BLA900      0.2000
     25  C2C       59.1470   67.1180   16.0770 C.2   900  BLA900      0.0710
     26  C3C       59.6800   66.3860   15.0180 C.2   900  BLA900      0.0125
     27  C4C       59.8370   65.0860   15.5240 C.2   900  BLA900      0.1254
     28  CMC       58.7600   68.5970   16.1340 C.3   900  BLA900      0.0445
     29  OC        58.5620   66.5560   18.2470 O.2   900  BLA900     -0.2096
     30  CAC       60.0430   66.8450   13.5910 C.3   900  BLA900      0.0291
     31  CBC       59.6650   68.2980   13.2660 C.3   900  BLA900      0.0051
     32  CHD       60.3870   63.8550   14.8010 C.3   900  BLA900      0.1181
     33  ND        58.8790   62.2010   16.0020 N.2   900  BLA900     -0.4104
     34  C1D       59.8100   62.4750   15.0870 C.2   900  BLA900      0.1114
     35  C2D       60.1300   61.2900   14.4620 C.2   900  BLA900      0.0021
     36  C3D       59.3600   60.2830   15.0190 C.2   900  BLA900      0.0024
     37  C4D       58.5860   60.9000   15.9970 C.2   900  BLA900      0.1114
     38  CMD       61.1570   61.1390   13.3390 C.3   900  BLA900      0.0331
     39  CAD       59.4180   58.8010   14.6340 C.3   900  BLA900      0.0402
     40  CBD       60.8220   58.3080   15.0180 C.3   900  BLA900      0.1188
     41  CGD       61.0430   56.8340   14.7080 C.2   900  BLA900      0.3652
     42  O1D       61.5140   56.5520   13.5830 O.co2 900  BLA900     -0.2456
     43  O2D       60.7400   56.0320   15.6160 O.co2 900  BLA900     -0.2456
@<TRIPOS>BOND
     1    31    30    1
     2    38    35    1
     3    42    41   ar
     4    30    26    1
     5    35    36    2
     6    35    34    1
     7    39    40    1
     8    39    36    1
     9    41    40    1
    10    41    43   ar
    11    32    34    1
    12    32    27    1
    13    26    27    1
    14    26    25    2
    15    36    37    1
    16    34    33    2
    17    27    23    2
    18    37    33    2
    19    37     1    1
    20    25    28    1
    21    25    24    1
    22     1     3    1
    23    23    24    2
    24    24    29    2
    25     3     2    2
    26     3     4    1
    27     2     6    2
    28     8     4    1
    29     8     9    1
    30     4     5    2
    31     6     5    1
    32     6    13    1
    33     9    10    1
    34     5     7    1
    35    13    15    1
    36    10    12   ar
    37    10    11   ar
    38    15    14    2
    39    15    16    1
    40    14    18    2
    41    16    19    1
    42    16    17    2
    43    18    17    1
    44    18    20    2
    45    17    21    1
    46    21    22    1
