@<TRIPOS>MOLECULE
3g6v_ATP_A_1.pdb
 30 32 0 0 0
SMALL
GASTEIGER

@<TRIPOS>ATOM
      1  PG         1.7650   18.1170   13.9550 P.3   875  ATP875      0.5373
      2  O1G        3.0110   18.9170   13.5690 O.3   875  ATP875     -0.1143
      3  O2G        0.6250   18.4380   12.9910 O.2   875  ATP875     -0.2221
      4  O3G        1.9440   16.6620   14.1890 O.3   875  ATP875     -0.1143
      5  PB         2.1600   19.7570   16.3690 P.3   875  ATP875      0.2277
      6  O1B        1.4060   19.7950   17.6910 O.3   875  ATP875     -0.4368
      7  O2B        3.6740   19.3730   16.4910 O.2   875  ATP875     -0.5168
      8  O3B        1.2830   18.7460   15.3810 O.3   875  ATP875     -0.2258
      9  PA         2.7640   22.3690   15.3290 P.3   875  ATP875      0.2189
     10  O1A        4.0410   21.6940   14.7080 O.3   875  ATP875     -0.4371
     11  O2A        1.8620   23.2570   14.4650 O.2   875  ATP875     -0.5170
     12  O3A        1.7600   21.1680   15.7100 O.3   875  ATP875     -0.2700
     13  O5'        3.1280   23.1280   16.7410 O.3   875  ATP875     -0.3112
     14  C5'        4.1520   22.5640   17.6330 C.3   875  ATP875      0.1813
     15  C4'        3.7840   22.8150   19.1510 C.3   875  ATP875      0.1795
     16  O4'        3.5220   24.2390   19.3940 O.3   875  ATP875     -0.3155
     17  C3'        2.4780   22.0190   19.5150 C.3   875  ATP875      0.1883
     18  O3'        2.6410   20.6490   20.1200 O.3   875  ATP875     -0.2202
     19  C2'        1.5790   23.0560   20.2510 C.3   875  ATP875      0.1151
     20  C1'        2.3260   24.4470   20.1580 C.3   875  ATP875      0.2873
     21  N9         1.4910   25.4800   19.4810 N.pl3 875  ATP875     -0.1460
     22  C8         1.3190   25.6600   18.1100 C.3   875  ATP875      0.3377
     23  N7         0.4670   26.7170   17.8220 N.2   875  ATP875     -0.2095
     24  C5         0.0790   27.1390   19.0550 C.2   875  ATP875      0.2526
     25  C6        -0.8450   28.1760   19.4950 C.2   875  ATP875      0.4393
     26  N6        -1.4470   28.8920   18.5010 N.pl3 875  ATP875      0.2180
     27  N1        -1.0220   28.3500   20.8460 N.2   875  ATP875      0.0021
     28  C2        -0.3960   27.5980   21.7920 C.3   875  ATP875      0.5254
     29  N3         0.4690   26.5930   21.4980 N.2   875  ATP875     -0.0055
     30  C4         0.7330   26.3510   20.1460 C.2   875  ATP875      0.3518
@<TRIPOS>BOND
     1     3     1    2
     2     2     1    1
     3     1     4    1
     4     1     8    1
     5    11     9    2
     6    10     9    1
     7     9    12    1
     8     9    13    1
     9     8     5    1
    10    12     5    1
    11     5     7    2
    12     5     6    1
    13    13    14    1
    14    14    15    1
    15    23    22    1
    16    23    24    2
    17    22    21    1
    18    26    25    1
    19    24    25    1
    20    24    30    1
    21    15    16    1
    22    15    17    1
    23    16    20    1
    24    21    30    1
    25    21    20    1
    26    25    27    2
    27    17    18    1
    28    17    19    1
    29    30    29    2
    30    20    19    1
    31    27    28    1
    32    29    28    1
