@<TRIPOS>MOLECULE
3g6w_GTP_A_1.pdb
 32 34 0 0 0
SMALL
GASTEIGER

@<TRIPOS>ATOM
      1  PG        -2.9150   16.7550    7.5450 P.3   301  GTP301      0.5373
      2  O1G       -1.5220   17.2460    7.2640 O.2   301  GTP301     -0.2221
      3  O2G       -3.9800   17.7970    7.4630 O.3   301  GTP301     -0.1143
      4  O3G       -2.9380   16.1170    8.8780 O.3   301  GTP301     -0.1143
      5  O3B       -3.2550   15.6570    6.5450 O.3   301  GTP301     -0.2258
      6  PB        -4.6280   14.9210    6.3570 P.3   301  GTP301      0.2277
      7  O1B       -5.5330   15.4430    7.3690 O.3   301  GTP301     -0.4368
      8  O2B       -4.4170   13.4570    6.4640 O.2   301  GTP301     -0.5168
      9  O3A       -5.1020   15.2890    4.9120 O.3   301  GTP301     -0.2700
     10  PA        -6.3370   16.0780    4.2830 P.3   301  GTP301      0.2189
     11  O1A       -7.4220   16.1720    5.3220 O.3   301  GTP301     -0.4371
     12  O2A       -6.7140   15.3710    3.0180 O.2   301  GTP301     -0.5170
     13  O5'       -5.6680   17.5120    4.0350 O.3   301  GTP301     -0.3112
     14  C5'       -4.4060   17.7230    3.4160 C.3   301  GTP301      0.1813
     15  C4'       -4.0570   19.1680    3.4810 C.3   301  GTP301      0.1799
     16  O4'       -5.1540   19.9920    2.9960 O.3   301  GTP301     -0.3326
     17  C3'       -3.7500   19.7080    4.8870 C.3   301  GTP301      0.2158
     18  O3'       -2.3900   19.5100    5.2780 O.3   301  GTP301     -0.2175
     19  C2'       -4.1740   21.1410    4.7950 C.3   301  GTP301      0.2310
     20  O2'       -3.0350   21.9560    4.4260 O.3   301  GTP301     -0.2158
     21  C1'       -5.2660   21.2180    3.7540 C.3   301  GTP301      0.2293
     22  N9        -6.6800   21.2600    4.2950 N.pl3 301  GTP301     -0.2354
     23  C8        -7.4470   20.1770    4.7220 C.3   301  GTP301      0.2246
     24  N7        -8.6100   20.4850    5.2000 N.2   301  GTP301     -0.2322
     25  C5        -8.6720   21.8570    5.0880 C.2   301  GTP301      0.2182
     26  C6        -9.7210   22.7860    5.4860 C.1   301  GTP301      0.2372
     27  O6       -10.7920   22.5540    6.0030 O.2   301  GTP301     -0.2069
     28  N1        -9.3920   24.1480    5.2270 N.2   301  GTP301     -0.2485
     29  C2        -8.2030   24.5780    4.6410 C.1   301  GTP301      0.2531
     30  N2        -8.0820   25.9150    4.4920 N.pl3 301  GTP301     -0.0226
     31  N3        -7.2110   23.7160    4.2420 N.2   301  GTP301     -0.3074
     32  C4        -7.4990   22.3660    4.5070 C.2   301  GTP301      0.2300
@<TRIPOS>BOND
     1    16    15    1
     2    16    21    1
     3    12    10    2
     4    14    15    1
     5    14    13    1
     6    15    17    1
     7    21    22    1
     8    21    19    1
     9    13    10    1
    10    31    32    2
    11    31    29    2
    12    10     9    1
    13    10    11    1
    14    22    32    1
    15    22    23    1
    16    20    19    1
    17    30    29    1
    18    32    25    1
    19    29    28    2
    20    23    24    1
    21    19    17    1
    22    17    18    1
    23     9     6    1
    24    25    24    2
    25    25    26    1
    26    28    26    2
    27    26    27    2
    28     6     8    2
    29     6     5    1
    30     6     7    1
    31     5     1    1
    32     2     1    2
    33     3     1    1
    34     1     4    1
