@<TRIPOS>MOLECULE
3g6w_PRP_A_1.pdb
 22 22 0 0 0
SMALL
GASTEIGER

@<TRIPOS>ATOM
      1  C1         4.5020   23.0740   29.8070 C.3   303  PRP303      0.2742
      2  C2         4.7950   22.5110   28.3980 C.3   303  PRP303      0.2408
      3  C3         5.5390   21.2140   28.7120 C.3   303  PRP303      0.2167
      4  C4         6.3400   21.5460   29.9490 C.3   303  PRP303      0.1808
      5  C5         7.7810   21.7700   29.6780 C.3   303  PRP303      0.1859
      6  O1         3.2960   22.3880   30.3460 O.3   303  PRP303     -0.2857
      7  O2         3.5590   22.3380   27.6800 O.3   303  PRP303     -0.2149
      8  O3         4.5480   20.1830   28.9740 O.3   303  PRP303     -0.2175
      9  O4         5.6650   22.7540   30.5370 O.3   303  PRP303     -0.3255
     10  O5         8.4710   22.4690   30.7290 O.3   303  PRP303     -0.2675
     11  P          9.7650   21.9150   31.5110 P.3   303  PRP303      0.5327
     12  O1P        9.3230   20.9560   32.5780 O.3   303  PRP303     -0.1145
     13  O2P       10.7150   21.2800   30.4980 O.2   303  PRP303     -0.2224
     14  O3P       10.3200   23.1910   32.0950 O.3   303  PRP303     -0.1145
     15  PA         2.4070   23.0420   31.5500 P.3   303  PRP303      0.2249
     16  O1A        2.8760   22.4900   32.8390 O.3   303  PRP303     -0.4370
     17  O2A        2.4490   24.5410   31.4290 O.2   303  PRP303     -0.5169
     18  O3A        0.9550   22.4150   31.2200 O.3   303  PRP303     -0.2260
     19  PB        -0.0780   22.7090   29.9310 P.3   303  PRP303      0.5373
     20  O1B       -1.0310   21.5230   29.9820 O.3   303  PRP303     -0.1143
     21  O2B        0.7670   22.7440   28.6660 O.2   303  PRP303     -0.2221
     22  O3B       -0.7520   24.0320   30.2390 O.3   303  PRP303     -0.1143
@<TRIPOS>BOND
     1     7     2    1
     2     2     3    1
     3     2     1    1
     4    21    19    2
     5     3     8    1
     6     3     4    1
     7     5     4    1
     8     5    10    1
     9     1     6    1
    10     1     9    1
    11    19    20    1
    12    19    22    1
    13    19    18    1
    14     4     9    1
    15     6    15    1
    16    13    11    2
    17    10    11    1
    18    18    15    1
    19    17    15    2
    20    11    14    1
    21    11    12    1
    22    15    16    1
