@<TRIPOS>MOLECULE
3g6w_HSX_B_1.pdb
 14 14 0 0 0
SMALL
GASTEIGER

@<TRIPOS>ATOM
      1  C1'        1.5950    0.9620  -16.4140 C.3   306  HSX306      0.3023
      2  O1'        2.1390    1.1510  -17.6970 O.3   306  HSX306     -0.3237
      3  C2'        1.9590    2.2200  -15.6210 C.3   306  HSX306      0.2433
      4  O2'        1.0900    2.3540  -14.5010 O.3   306  HSX306     -0.2148
      5  C3'        1.7720    3.3110  -16.7050 C.3   306  HSX306      0.2168
      6  O3'        0.3800    3.6350  -16.9170 O.3   306  HSX306     -0.2175
      7  C4'        2.2580    2.5450  -17.9170 C.3   306  HSX306      0.1809
      8  C5'        3.6450    2.9100  -18.3520 C.3   306  HSX306      0.1859
      9  O5'        4.3550    1.8600  -18.9790 O.3   306  HSX306     -0.2675
     10  P'         5.5640    2.3810  -19.9100 P.3   306  HSX306      0.5327
     11  O1X        6.2520    1.1770  -20.5320 O.3   306  HSX306     -0.1145
     12  O2X        4.8860    3.1840  -21.0260 O.2   306  HSX306     -0.2224
     13  O3X        6.5250    3.2720  -19.1330 O.3   306  HSX306     -0.1145
     14  O1         0.1880    0.8660  -16.5680 O.3   306  HSX306     -0.1869
@<TRIPOS>BOND
     1    12    10    2
     2    11    10    1
     3    10    13    1
     4    10     9    1
     5     9     8    1
     6     8     7    1
     7     7     2    1
     8     7     5    1
     9     2     1    1
    10     6     5    1
    11     5     3    1
    12    14     1    1
    13     1     3    1
    14     3     4    1
