@<TRIPOS>MOLECULE
3g6x_DGT_A_1.pdb
 31 33 0 0 0
SMALL
GASTEIGER

@<TRIPOS>ATOM
      1  PG         1.8480   18.3000   13.8670 P.3   875  DGT875      0.5373
      2  O1G        3.1080   19.0620   13.5520 O.3   875  DGT875     -0.1143
      3  O2G        0.6800   18.6020   12.9220 O.2   875  DGT875     -0.2221
      4  O3G        2.0390   16.8620   14.1820 O.3   875  DGT875     -0.1143
      5  O3B        1.2630   19.0690   15.2240 O.3   875  DGT875     -0.2258
      6  PB         2.0990   19.9170   16.3620 P.3   875  DGT875      0.2277
      7  O1B        1.3600   19.6710   17.6330 O.3   875  DGT875     -0.4368
      8  O2B        3.5560   19.5380   16.4910 O.2   875  DGT875     -0.5168
      9  O3A        1.7860   21.3760   15.8230 O.3   875  DGT875     -0.2700
     10  PA         2.9110   22.5010   15.3560 P.3   875  DGT875      0.2189
     11  O1A        4.0860   21.6380   14.8250 O.3   875  DGT875     -0.4371
     12  O2A        1.9790   23.2970   14.5480 O.2   875  DGT875     -0.5170
     13  O5'        3.3260   23.2980   16.7050 O.3   875  DGT875     -0.3112
     14  C5'        4.2960   22.6910   17.6640 C.3   875  DGT875      0.1812
     15  C4'        3.7590   22.9010   19.1210 C.3   875  DGT875      0.1772
     16  O4'        3.4750   24.3050   19.3730 O.3   875  DGT875     -0.3347
     17  C3'        2.4140   22.1480   19.3470 C.3   875  DGT875      0.1857
     18  O3'        2.5630   20.7620   19.8760 O.3   875  DGT875     -0.2203
     19  C2'        1.5950   23.1190   20.1890 C.3   875  DGT875      0.0865
     20  C1'        2.3030   24.5070   20.1140 C.3   875  DGT875      0.1981
     21  N9         1.5320   25.5160   19.3620 N.pl3 875  DGT875     -0.2374
     22  C8         1.4870   25.6070   18.0040 C.3   875  DGT875      0.2245
     23  N7         0.6310   26.6090   17.5910 N.2   875  DGT875     -0.2322
     24  C5         0.1140   27.1600   18.6940 C.2   875  DGT875      0.2182
     25  C6        -0.8820   28.2120   18.9710 C.1   875  DGT875      0.2372
     26  O6        -1.4290   28.8870   18.0570 O.2   875  DGT875     -0.2069
     27  N1        -1.1490   28.4640   20.2610 N.2   875  DGT875     -0.2485
     28  C2        -0.6470   27.7920   21.2820 C.1   875  DGT875      0.2531
     29  N2        -1.0600   28.1780   22.4980 N.pl3 875  DGT875     -0.0226
     30  N3         0.2480   26.7800   21.1190 N.2   875  DGT875     -0.3074
     31  C4         0.6700   26.4300   19.8610 C.2   875  DGT875      0.2299
@<TRIPOS>BOND
     1     3     1    2
     2     2     1    1
     3     1     4    1
     4     1     5    1
     5    12    10    2
     6    11    10    1
     7     5     6    1
     8    10     9    1
     9    10    13    1
    10     9     6    1
    11     6     8    2
    12     6     7    1
    13    13    14    1
    14    23    22    1
    15    23    24    2
    16    14    15    1
    17    22    21    1
    18    26    25    2
    19    24    25    1
    20    24    31    1
    21    25    27    2
    22    15    17    1
    23    15    16    1
    24    17    18    1
    25    17    19    1
    26    21    31    1
    27    21    20    1
    28    16    20    1
    29    31    30    2
    30    20    19    1
    31    27    28    2
    32    30    28    2
    33    28    29    1
