@<TRIPOS>MOLECULE
3g6y_TTP_A_1.pdb
 29 30 0 0 0
SMALL
GASTEIGER

@<TRIPOS>ATOM
      1  PA         2.7050   22.2290   15.1870 P.3   875  TTP875      0.2189
      2  O1A        3.8920   21.5160   14.5300 O.3   875  TTP875     -0.4371
      3  O2A        1.7290   22.9130   14.2410 O.2   875  TTP875     -0.5170
      4  O3A        1.6620   21.0820   15.7320 O.3   875  TTP875     -0.2700
      5  PB         2.0930   19.6330   16.2710 P.3   875  TTP875      0.2277
      6  O1B        1.4870   19.4980   17.6830 O.3   875  TTP875     -0.4368
      7  O2B        3.5870   19.3300   16.5210 O.2   875  TTP875     -0.5168
      8  O3B        1.2430   18.5590   15.3700 O.3   875  TTP875     -0.2258
      9  PG         1.7470   17.9460   13.9350 P.3   875  TTP875      0.5373
     10  O1G        3.0250   18.6910   13.5410 O.3   875  TTP875     -0.1143
     11  O2G        0.5440   18.2690   13.0560 O.2   875  TTP875     -0.2221
     12  O3G        2.0430   16.4610   14.1290 O.3   875  TTP875     -0.1143
     13  O5'        3.1090   23.0200   16.5860 O.3   875  TTP875     -0.3112
     14  C5'        4.1900   22.4450   17.3930 C.3   875  TTP875      0.1812
     15  C4'        3.8710   22.6900   18.9070 C.3   875  TTP875      0.1773
     16  O4'        3.5350   24.0810   19.1070 O.3   875  TTP875     -0.3339
     17  C3'        2.5600   21.9150   19.2990 C.3   875  TTP875      0.1857
     18  O3'        2.7530   20.6340   19.9860 O.3   875  TTP875     -0.2203
     19  C2'        1.7250   22.8990   20.1510 C.3   875  TTP875      0.0874
     20  C1'        2.4500   24.2810   20.0090 C.3   875  TTP875      0.2090
     21  N1         1.5950   25.3380   19.4440 N.am  875  TTP875     -0.1794
     22  C2         0.9410   26.2220   20.3370 C.1   875  TTP875      0.2844
     23  O2         1.1300   26.0400   21.5780 O.2   875  TTP875     -0.1918
     24  N3         0.1120   27.2000   19.9260 N.2   875  TTP875     -0.2455
     25  C4        -0.0780   27.4310   18.6380 C.1   875  TTP875      0.2134
     26  O4        -0.8440   28.3430   18.3110 O.2   875  TTP875     -0.2088
     27  C5         0.5580   26.5600   17.6260 C.2   875  TTP875      0.0891
     28  C5M        0.2580   26.8800   16.1790 C.3   875  TTP875      0.0462
     29  C6         1.3810   25.4920   18.0940 C.2   875  TTP875      0.0877
@<TRIPOS>BOND
     1    11     9    2
     2    10     9    1
     3     9    12    1
     4     9     8    1
     5     3     1    2
     6     2     1    1
     7     1     4    1
     8     1    13    1
     9     8     5    1
    10     4     5    1
    11    28    27    1
    12     5     7    2
    13     5     6    1
    14    13    14    1
    15    14    15    1
    16    27    29    2
    17    27    25    1
    18    29    21    1
    19    26    25    2
    20    25    24    2
    21    15    16    1
    22    15    17    1
    23    16    20    1
    24    17    18    1
    25    17    19    1
    26    21    20    1
    27    21    22   am
    28    24    22    2
    29    20    19    1
    30    22    23    2
