@<TRIPOS>MOLECULE
3g6z_A7T_A_1.pdb
 43 48 0 0 0
SMALL
GASTEIGER

@<TRIPOS>ATOM
      1  O26       -4.6560  -16.7670   -9.8910 O.2   342  A7T342     -0.2702
      2  C23       -5.5920  -16.5480  -10.6630 C.2   342  A7T342      0.2463
      3  N27       -6.2480  -15.3740  -10.5730 N.am  342  A7T342     -0.2738
      4  C32       -5.9410  -14.4040   -9.5210 C.3   342  A7T342      0.1200
      5  C36       -4.7480  -13.4890   -9.6020 C.ar  342  A7T342     -0.0066
      6  C38       -3.8650  -13.4990  -10.6790 C.ar  342  A7T342     -0.0029
      7  C41       -2.7960  -12.5950  -10.6750 C.ar  342  A7T342     -0.0006
      8  C42       -2.6240  -11.7060   -9.6130 C.ar  342  A7T342     -0.0046
      9  C39       -3.5250  -11.6840   -8.5470 C.ar  342  A7T342     -0.0260
     10  C43       -3.3500  -10.7130   -7.3940 C.3   342  A7T342      0.0307
     11  C37       -4.5810  -12.5780   -8.5480 C.ar  342  A7T342     -0.0281
     12  C40       -5.5460  -12.5660   -7.3910 C.3   342  A7T342      0.0304
     13  C31       -7.4260  -14.9300  -11.3520 C.3   342  A7T342      0.0760
     14  C35       -7.1820  -15.0560  -12.8490 C.3   342  A7T342      0.0215
     15  C34       -6.9970  -13.7070  -12.1650 C.3   342  A7T342      0.0215
     16  C21       -5.9460  -17.5960  -11.6450 C.2   342  A7T342      0.0446
     17  C24       -4.9410  -18.0100  -12.6900 C.3   342  A7T342      0.1163
     18  N28       -5.6170  -18.6720  -13.8000 N.3   342  A7T342     -0.2130
     19  C29       -3.9340  -18.9970  -12.1030 C.3   342  A7T342      0.1106
     20  N33       -4.5860  -20.2900  -11.8880 N.3   342  A7T342     -0.2147
     21  C30       -5.5460  -20.8770  -12.8170 C.3   342  A7T342      0.1064
     22  C25       -6.4260  -19.8200  -13.4710 C.3   342  A7T342      0.0948
     23  C22       -7.5300  -19.3980  -12.5040 C.3   342  A7T342      0.0451
     24  C20       -7.1420  -18.2440  -11.5760 C.2   342  A7T342     -0.0190
     25  C19       -8.1940  -17.8670  -10.5630 C.ar  342  A7T342     -0.0038
     26  C17       -9.4900  -17.6670  -11.0130 C.ar  342  A7T342      0.0028
     27  C15      -10.4970  -17.3120  -10.1300 C.ar  342  A7T342      0.0369
     28  C18       -7.8940  -17.6970   -9.1990 C.ar  342  A7T342      0.0028
     29  C16       -8.9080  -17.3370   -8.3070 C.ar  342  A7T342      0.0369
     30  C14      -10.2060  -17.1460   -8.7780 C.ar  342  A7T342      0.1387
     31  O13      -11.1970  -16.7980   -7.9080 O.3   342  A7T342     -0.4714
     32  C12      -12.4270  -16.2250   -8.3530 C.3   342  A7T342      0.2525
     33  C8       -12.6610  -14.9330   -7.5880 C.3   342  A7T342      0.2525
     34  O5       -12.4710  -13.8180   -8.4510 O.3   342  A7T342     -0.4697
     35  C3       -12.0100  -12.6340   -7.9500 C.ar  342  A7T342      0.1596
     36  C6       -10.5680  -12.2990   -7.9700 C.ar  342  A7T342      0.0921
     37 CL9        -9.3570  -13.4410   -8.6520 Cl    342  A7T342     -0.0791
     38  C10      -10.1670  -11.0750   -7.4380 C.ar  342  A7T342      0.0103
     39  C7       -11.0840  -10.1680   -6.9030 C.ar  342  A7T342     -0.0200
     40  C11      -10.6180   -8.8480   -6.3400 C.3   342  A7T342      0.0311
     41  C4       -12.4380  -10.4440   -6.8730 C.ar  342  A7T342      0.0103
     42  C2       -12.9410  -11.6330   -7.3690 C.ar  342  A7T342      0.0921
     43 CL1       -14.7140  -11.9170   -7.3080 Cl    342  A7T342     -0.0791
@<TRIPOS>BOND
     1    18    22    1
     2    18    17    1
     3    22    21    1
     4    22    23    1
     5    14    15    1
     6    14    13    1
     7    21    20    1
     8    17    19    1
     9    17    16    1
    10    23    24    1
    11    15    13    1
    12    19    20    1
    13    16    24    2
    14    16     2    1
    15    24    25    1
    16    13     3    1
    17    26    25   ar
    18    26    27   ar
    19     6     7   ar
    20     6     5   ar
    21     7     8   ar
    22     2     3   am
    23     2     1    2
    24     3     4    1
    25    25    28   ar
    26    27    30   ar
    27     8     9   ar
    28     5     4    1
    29     5    11   ar
    30    28    29   ar
    31    30    29   ar
    32    30    31    1
    33    37    36    1
    34    11     9   ar
    35    11    12    1
    36     9    10    1
    37    34    35    1
    38    34    33    1
    39    32    31    1
    40    32    33    1
    41    36    35   ar
    42    36    38   ar
    43    35    42   ar
    44    38    39   ar
    45    42    43    1
    46    42    41   ar
    47    39    41   ar
    48    39    40    1
