@<TRIPOS>MOLECULE
3g70_A5T_A_1.pdb
 43 48 0 0 0
SMALL
GASTEIGER

@<TRIPOS>ATOM
      1 CLA        -2.3890    5.6060    3.9480 Cl    342  A5T342     -0.0814
      2  C36       -0.6840    5.6200    4.4970 C.ar  342  A5T342      0.0679
      3  C33        0.3190    5.4440    3.5600 C.ar  342  A5T342      0.0658
      4 CLR3       -0.1150    5.1910    1.8440 Cl    342  A5T342     -0.0816
      5  C38       -0.3540    5.8280    5.8400 C.ar  342  A5T342      0.0122
      6  C37        0.9810    5.8310    6.2450 C.ar  342  A5T342      0.0007
      7  C34        1.9830    5.6330    5.2910 C.ar  342  A5T342     -0.0017
      8  C32        1.6550    5.4450    3.9530 C.ar  342  A5T342      0.0091
      9  C29        2.6910    5.2330    2.8780 C.3   342  A5T342      0.1212
     10  N26        4.0510    5.6960    3.1270 N.am  342  A5T342     -0.2738
     11  C28        4.2690    7.0630    2.5970 C.3   342  A5T342      0.0760
     12  C31        3.4040    8.0690    3.3630 C.3   342  A5T342      0.0215
     13  C30        4.8810    7.9540    3.6740 C.3   342  A5T342      0.0215
     14  C22        4.9680    4.8770    3.6990 C.2   342  A5T342      0.2463
     15  O25        4.6410    3.7320    4.0830 O.2   342  A5T342     -0.2702
     16  C20        6.3890    5.2640    3.9070 C.2   342  A5T342      0.0446
     17  C23        6.8960    5.2820    5.3310 C.3   342  A5T342      0.1163
     18  N27        8.0530    6.1670    5.4800 N.3   342  A5T342     -0.2130
     19  C24        9.1410    5.7470    4.6250 C.3   342  A5T342      0.0948
     20  C21        8.7220    5.8900    3.1520 C.3   342  A5T342      0.0451
     21  C          7.2750    3.8680    5.7810 C.3   342  A5T342      0.1106
     22  NB         8.3870    3.3880    4.9600 N.3   342  A5T342     -0.2147
     23  CA         9.5380    4.3010    4.9800 C.3   342  A5T342      0.1064
     24  C19        7.2500    5.5370    2.8780 C.2   342  A5T342     -0.0190
     25  C18        6.8720    5.5410    1.4050 C.ar  342  A5T342     -0.0041
     26  C16        6.0470    4.5670    0.8310 C.ar  342  A5T342     -0.0006
     27  C14        5.7350    4.6150   -0.5280 C.ar  342  A5T342     -0.0043
     28  C17        7.3920    6.5440    0.5780 C.ar  342  A5T342     -0.0006
     29  C15        7.1070    6.5900   -0.7810 C.ar  342  A5T342     -0.0043
     30  C13        6.2780    5.6180   -1.3380 C.ar  342  A5T342     -0.0221
     31  C12        5.9510    5.6690   -2.7840 C.3   342  A5T342      0.0302
     32  C10        4.7380    6.0670   -3.1990 C.3   342  A5T342      0.0520
     33  C8         3.8590    6.9630   -2.3650 C.3   342  A5T342      0.2059
     34  O5         3.2180    8.0010   -3.1320 O.3   342  A5T342     -0.4723
     35  C3         1.8610    8.0410   -2.8180 C.ar  342  A5T342      0.1784
     36  C6         1.3300    7.8870   -1.5340 C.ar  342  A5T342      0.1748
     37  F1         2.1240    7.6740   -0.4840 F     342  A5T342     -0.2009
     38  C2         0.9770    8.2530   -3.8470 C.ar  342  A5T342      0.1211
     39 CL11        1.7120    8.4620   -5.4750 Cl    342  A5T342     -0.0766
     40  C4        -0.3990    8.3000   -3.6140 C.ar  342  A5T342      0.1537
     41  F2        -1.2690    8.5130   -4.6110 F     342  A5T342     -0.2032
     42  C7        -0.9170    8.1460   -2.3410 C.ar  342  A5T342      0.0330
     43  C9        -0.0420    7.9250   -1.2960 C.ar  342  A5T342      0.0351
@<TRIPOS>BOND
     1    39    38    1
     2    41    40    1
     3    38    40   ar
     4    38    35   ar
     5    40    42   ar
     6    32    31    1
     7    32    33    1
     8    34    35    1
     9    34    33    1
    10    35    36   ar
    11    31    30    1
    12    42    43   ar
    13    36    43   ar
    14    36    37    1
    15    30    29   ar
    16    30    27   ar
    17    29    28   ar
    18    27    26   ar
    19    28    25   ar
    20    26    25   ar
    21    25    24    1
    22     4     3    1
    23    11    10    1
    24    11    12    1
    25    11    13    1
    26     9    10    1
    27     9     8    1
    28    24    20    1
    29    24    16    2
    30    10    14   am
    31    20    19    1
    32    12    13    1
    33     3     8   ar
    34     3     2   ar
    35    14    16    1
    36    14    15    2
    37    16    17    1
    38     1     2    1
    39     8     7   ar
    40     2     5   ar
    41    19    23    1
    42    19    18    1
    43    22    23    1
    44    22    21    1
    45     7     6   ar
    46    17    18    1
    47    17    21    1
    48     5     6   ar
