@<TRIPOS>MOLECULE
3g72_A6T_A_1.pdb
 43 48 0 0 0
SMALL
GASTEIGER

@<TRIPOS>ATOM
      1  C          7.1870    5.3190    6.1650 C.3   343  A6T343      0.1106
      2 CLA        -2.2450    5.1660    3.8450 Cl    343  A6T343     -0.0814
      3  C36       -0.5760    5.3190    4.4240 C.ar  343  A6T343      0.0679
      4  C33        0.4240    5.2500    3.5040 C.ar  343  A6T343      0.0658
      5 CLR3        0.0580    4.9520    1.7810 Cl    343  A6T343     -0.0816
      6  C38       -0.3130    5.5370    5.7700 C.ar  343  A6T343      0.0122
      7  C37        1.0020    5.6510    6.1710 C.ar  343  A6T343      0.0007
      8  C34        2.0240    5.5680    5.2260 C.ar  343  A6T343     -0.0017
      9  C32        1.7380    5.3490    3.8920 C.ar  343  A6T343      0.0091
     10  C29        2.7880    5.2340    2.7950 C.3   343  A6T343      0.1212
     11  N26        4.1940    5.4940    3.0970 N.am  343  A6T343     -0.2738
     12  C28        4.6970    6.8420    2.6580 C.3   343  A6T343      0.0760
     13  C31        3.8720    7.9590    3.2880 C.3   343  A6T343      0.0215
     14  C30        5.2810    7.7450    3.7780 C.3   343  A6T343      0.0215
     15  C22        4.9270    4.4760    3.6020 C.2   343  A6T343      0.2463
     16  O25        4.4040    3.3870    3.8660 O.2   343  A6T343     -0.2702
     17  C20        6.3590    4.5190    3.8640 C.2   343  A6T343      0.0446
     18  C23        6.8610    4.1420    5.2340 C.3   343  A6T343      0.1163
     19  N27        8.0500    3.3150    4.9840 N.3   343  A6T343     -0.2130
     20  C24        9.1450    4.0800    4.3840 C.3   343  A6T343      0.0948
     21  C21        8.7390    4.7210    3.0550 C.3   343  A6T343      0.0451
     22  NB         8.4300    6.0140    5.7820 N.3   343  A6T343     -0.2147
     23  CA         9.5370    5.1810    5.3580 C.3   343  A6T343      0.1064
     24  C19        7.2200    4.7560    2.8530 C.2   343  A6T343     -0.0190
     25  C18        6.8530    5.0520    1.4300 C.ar  343  A6T343     -0.0041
     26  C16        6.0080    4.1720    0.7560 C.ar  343  A6T343     -0.0006
     27  C14        5.6890    4.3660   -0.5790 C.ar  343  A6T343     -0.0043
     28  C17        7.4330    6.1390    0.7380 C.ar  343  A6T343     -0.0006
     29  C15        7.1170    6.3420   -0.6110 C.ar  343  A6T343     -0.0043
     30  C13        6.2600    5.4380   -1.2760 C.ar  343  A6T343     -0.0221
     31  C12        5.9110    5.6080   -2.7100 C.3   343  A6T343      0.0302
     32  C10        5.2370    6.6920   -3.0800 C.3   343  A6T343      0.0520
     33  C8         3.7780    6.6370   -2.7460 C.3   343  A6T343      0.2059
     34  O5         3.1840    7.8770   -3.1070 O.3   343  A6T343     -0.4723
     35  C3         1.8410    7.8440   -2.8070 C.ar  343  A6T343      0.1784
     36  C6         1.3630    7.6550   -1.5140 C.ar  343  A6T343      0.1748
     37  F1         2.2120    7.4620   -0.4910 F     343  A6T343     -0.2009
     38  C2         0.9550    8.0440   -3.8350 C.ar  343  A6T343      0.1211
     39 CL11        1.6670    8.3270   -5.4690 Cl    343  A6T343     -0.0766
     40  C4        -0.4080    8.0150   -3.5690 C.ar  343  A6T343      0.1537
     41  F2        -1.3030    8.2060   -4.5420 F     343  A6T343     -0.2032
     42  C7        -0.8930    7.8210   -2.2900 C.ar  343  A6T343      0.0330
     43  C9         0.0020    7.6480   -1.2600 C.ar  343  A6T343      0.0351
@<TRIPOS>BOND
     1    39    38    1
     2    41    40    1
     3    38    40   ar
     4    38    35   ar
     5    40    42   ar
     6    34    35    1
     7    34    33    1
     8    32    33    1
     9    32    31    1
    10    35    36   ar
    11    31    30    1
    12    42    43   ar
    13    36    43   ar
    14    36    37    1
    15    30    29   ar
    16    30    27   ar
    17    29    28   ar
    18    27    26   ar
    19    28    25   ar
    20    26    25   ar
    21    25    24    1
    22     5     4    1
    23    12    11    1
    24    12    13    1
    25    12    14    1
    26    10    11    1
    27    10     9    1
    28    24    21    1
    29    24    17    2
    30    21    20    1
    31    11    15   am
    32    13    14    1
    33     4     9   ar
    34     4     3   ar
    35    15    17    1
    36    15    16    2
    37     2     3    1
    38    17    18    1
    39     9     8   ar
    40    20    19    1
    41    20    23    1
    42     3     6   ar
    43    19    18    1
    44     8     7   ar
    45    18     1    1
    46    23    22    1
    47     6     7   ar
    48    22     1    1
