@<TRIPOS>MOLECULE
3g75_B48_A_1.pdb
 18 20 0 0 0
SMALL
GASTEIGER

@<TRIPOS>ATOM
      1  C1        44.9580   -1.1430   18.5580 C.3     2  B482        0.0754
      2  S2        46.3590   -1.3040   19.7030 S.3     2  B482       -0.0962
      3  C3        47.6140   -2.0930   18.7460 C.2     2  B482        0.1114
      4  C4        48.8560   -2.5240   19.2270 C.3     2  B482        0.0984
      5  C5        49.5510   -3.0880   18.1640 C.2     2  B482        0.0813
      6  N6        48.7310   -2.9910   17.0800 N.2     2  B482       -0.1549
      7  N8        47.5450   -2.3730   17.4720 N.2     2  B482       -0.1463
      8  C9        50.9230   -3.7000   18.1430 C.3     2  B482        0.1399
      9  S10       51.4650   -4.7890   16.8670 S.3     2  B482       -0.0701
     10  C11       53.0370   -4.9580   17.6340 C.2     2  B482        0.1628
     11  N12       53.0650   -4.2400   18.7230 N.2     2  B482       -0.4025
     12  C13       51.9810   -3.5610   19.0350 C.2     2  B482        0.1031
     13  C14       51.9510   -2.7040   20.2870 C.3     2  B482        0.0628
     14  C15       54.1400   -5.7820   17.1170 C.ar    2  B482        0.0650
     15  C16       55.4520   -5.6690   17.4750 C.ar    2  B482        0.0101
     16  C17       56.2860   -6.5630   16.8440 C.ar    2  B482        0.0076
     17  C18       55.6910   -7.4010   15.9820 C.ar    2  B482        0.0355
     18  S19       53.9620   -7.0790   15.9290 S.2     2  B482       -0.0833
@<TRIPOS>BOND
     1    18    17   ar
     2    18    14   ar
     3    17    16   ar
     4    16    15   ar
     5     9    10    1
     6     9     8    1
     7     6     7    1
     8     6     5    2
     9    14    15   ar
    10    14    10    1
    11     7     3    2
    12    10    11    2
    13     8     5    1
    14     8    12    1
    15     5     4    1
    16     1     2    1
    17    11    12    2
    18     3     4    1
    19     3     2    1
    20    12    13    1
