@<TRIPOS>MOLECULE
3g7b_B47_A_1.pdb
 29 32 0 0 0
SMALL
GASTEIGER

@<TRIPOS>ATOM
      1  C1        47.1380   -0.7270   23.6080 C.3     1  B471        0.2574
      2  O2        46.0820   -0.6540   22.6030 O.3     1  B471       -0.4294
      3  C3        46.4190   -0.3680   21.3230 C.2     1  B471        0.4216
      4  O4        47.3480    0.4020   21.0670 O.2     1  B471       -0.2246
      5  N5        45.7100   -0.9440   20.3230 N.am    1  B471       -0.1625
      6  C6        46.0120   -0.6830   18.9050 C.3     1  B471        0.1618
      7  C7        46.9180   -1.7650   18.3760 C.2     1  B471        0.0859
      8  C8        48.2210   -1.9450   18.7000 C.3     1  B471        0.0894
      9  C9        48.6920   -3.0650   17.9860 C.2     1  B471        0.0822
     10  N10       47.6820   -3.5230   17.2610 N.2     1  B471       -0.1556
     11  N11       46.5690   -2.7220   17.4960 N.2     1  B471       -0.1551
     12  C13       50.0560   -3.6670   17.9970 C.3     1  B471        0.1585
     13  S14       50.4440   -5.1000   17.0760 S.3     1  B471       -0.0688
     14  C15       52.1050   -5.0640   17.6370 C.2     1  B471        0.1589
     15  N16       52.2730   -4.0520   18.4370 N.2     1  B471       -0.3840
     16  C17       51.2260   -3.2680   18.6740 C.2     1  B471        0.1762
     17  N18       51.3230   -2.1320   19.5370 N.pl3   1  B471       -0.2859
     18  C19       52.7090   -1.5770   19.5590 C.3     1  B471        0.0955
     19  C20       52.7550   -0.2400   20.3480 C.3     1  B471        0.0544
     20  C21       52.1310   -0.4040   21.7590 C.3     1  B471        0.1554
     21  O22       51.9610    0.8900   22.3430 O.3     1  B471       -0.2230
     22  C23       50.7380   -1.1040   21.6830 C.3     1  B471        0.0544
     23  C24       50.8660   -2.4290   20.9120 C.3     1  B471        0.0955
     24  C25       53.1480   -6.0360   17.2430 C.ar    1  B471        0.0356
     25  C26       54.5280   -5.7400   17.4640 C.ar    1  B471        0.0031
     26  C27       55.5160   -6.6710   17.0730 C.ar    1  B471        0.0001
     27  C28       55.1420   -7.8940   16.4650 C.ar    1  B471        0.0000
     28  C29       53.7790   -8.1920   16.2470 C.ar    1  B471        0.0001
     29  C30       52.7820   -7.2710   16.6320 C.ar    1  B471        0.0031
@<TRIPOS>BOND
     1    28    27   ar
     2    28    29   ar
     3    27    26   ar
     4    29    24   ar
     5    26    25   ar
     6    13    14    1
     7    13    12    1
     8    24    25   ar
     9    24    14    1
    10    10    11    1
    11    10     9    2
    12    11     7    2
    13    14    15    2
    14     9    12    1
    15     9     8    1
    16    12    16    1
    17     7     8    1
    18     7     6    1
    19    15    16    2
    20    16    17    1
    21     6     5    1
    22    17    18    1
    23    17    23    1
    24    18    19    1
    25     5     3   am
    26    19    20    1
    27    23    22    1
    28     4     3    2
    29     3     2    1
    30    22    20    1
    31    20    21    1
    32     2     1    1
