@<TRIPOS>MOLECULE
3g7e_B46_A_1.pdb
 30 33 0 0 0
SMALL
GASTEIGER

@<TRIPOS>ATOM
      1  O1        39.2870   13.4220   18.6940 O.2     1  B461       -0.2245
      2  C2        38.8520   14.5270   18.3580 C.2     1  B461        0.4224
      3  N3        37.5860   14.8980   18.6890 N.am    1  B461       -0.1625
      4  C4        36.7140   13.9890   19.4510 C.3     1  B461        0.1618
      5  C5        36.8050   14.3040   20.9200 C.2     1  B461        0.0859
      6  C6        37.6400   13.7210   21.8310 C.3     1  B461        0.0894
      7  C7        37.3720   14.3310   23.0850 C.2     1  B461        0.0822
      8  N8        36.4200   15.2280   22.8950 N.2     1  B461       -0.1556
      9  N9        36.0570   15.2240   21.5580 N.2     1  B461       -0.1551
     10  C11       37.9890   14.0790   24.4110 C.3     1  B461        0.1585
     11  S12       37.7410   15.1690   25.7450 S.3     1  B461       -0.0687
     12  C13       38.7290   14.1920   26.7940 C.2     1  B461        0.1604
     13  N14       39.1720   13.1550   26.1310 N.2     1  B461       -0.3839
     14  C15       38.8100   13.0420   24.8560 C.2     1  B461        0.1762
     15  N16       39.2390   11.9580   24.0400 N.pl3   1  B461       -0.2860
     16  C17       40.5980   11.4650   24.4190 C.3     1  B461        0.0928
     17  C18       41.1190   10.4710   23.3510 C.3     1  B461        0.0215
     18  C19       40.1000    9.3250   23.1510 C.3     1  B461        0.0035
     19  C20       38.6910    9.8870   22.8280 C.3     1  B461        0.0215
     20  C21       38.2500   10.8470   23.9590 C.3     1  B461        0.0928
     21  C22       38.9930   14.5300   28.2150 C.ar    1  B461        0.0548
     22  C23       39.5270   13.5730   29.1290 C.ar    1  B461        0.0062
     23  C24       39.7540   13.9580   30.4700 C.ar    1  B461        0.0208
     24  C25       39.4490   15.2720   30.8700 C.ar    1  B461        0.0989
     25  N26       38.9460   16.1580   29.9840 N.ar    1  B461       -0.2422
     26  C27       38.7120   15.8410   28.6990 C.ar    1  B461        0.1019
     27  O28       39.6260   15.3900   17.6560 O.3     1  B461       -0.4187
     28  C29       40.9130   14.9160   17.1580 C.3     1  B461        0.2868
     29  C30       40.8220   14.6560   15.7090 C.1     1  B461       -0.0305
     30  C31       40.7500   14.4480   14.5600 C.1     1  B461       -0.0105
@<TRIPOS>BOND
     1    30    29    3
     2    29    28    1
     3    28    27    1
     4    27     2    1
     5     2     3   am
     6     2     1    2
     7     3     4    1
     8     4     5    1
     9     5     9    2
    10     5     6    1
    11     9     8    1
    12     6     7    1
    13    19    18    1
    14    19    20    1
    15     8     7    2
    16     7    10    1
    17    18    17    1
    18    17    16    1
    19    20    15    1
    20    15    16    1
    21    15    14    1
    22    10    14    1
    23    10    11    1
    24    14    13    2
    25    11    12    1
    26    13    12    2
    27    12    21    1
    28    21    26   ar
    29    21    22   ar
    30    26    25   ar
    31    22    23   ar
    32    25    24   ar
    33    23    24   ar
