@<TRIPOS>MOLECULE
3g7f_NS5_M_1.pdb
 40 39 0 0 0
SMALL
GASTEIGER

@<TRIPOS>ATOM
      1  C1       122.5120   50.6760    0.2150 C.3   600  NS5600      0.0000
      2  CM1      123.4450   51.8360   -0.1500 C.3   600  NS5600      0.0000
      3  CM2      121.4530   50.4500   -0.8670 C.3   600  NS5600      0.0000
      4  C2       123.2570   49.3730    0.6050 C.3   600  NS5600      0.0003
      5  C3       124.2540   48.8730   -0.4560 C.3   600  NS5600      0.0043
      6  C4       124.4640   47.3470   -0.3790 C.3   600  NS5600      0.0217
      7  C5       124.1950   46.6400   -1.7430 C.2   600  NS5600     -0.0482
      8  C6       124.0320   47.4680   -3.0320 C.3   600  NS5600      0.0260
      9  C7       124.0920   45.2780   -1.8300 C.2   600  NS5600     -0.0343
     10  C8       124.2540   44.3630   -0.6760 C.3   600  NS5600      0.0297
     11  C9       122.9370   43.6840   -0.2700 C.3   600  NS5600      0.0267
     12  C10      122.2620   44.5630    0.7640 C.2   600  NS5600     -0.0436
     13  C11      121.0530   45.3930    0.3550 C.3   600  NS5600      0.0264
     14  C12      122.7560   44.6160    2.0090 C.2   600  NS5600     -0.0085
     15  C13      122.1920   45.4850    3.0430 C.2   600  NS5600     -0.0010
     16  C14      122.9540   45.7380    4.1190 C.2   600  NS5600     -0.0043
     17  C15      122.5580   46.6080    5.2310 C.2   600  NS5600     -0.0218
     18  C16      121.4180   47.5790    5.0900 C.3   600  NS5600      0.0310
     19  C17      123.2790   46.5350    6.3660 C.2   600  NS5600     -0.0043
     20  C18      123.0210   47.3980    7.4980 C.2   600  NS5600     -0.0003
     21  C19      123.7540   47.3730    8.6220 C.2   600  NS5600     -0.0003
     22  C20      124.8120   46.4060    8.9420 C.2   600  NS5600     -0.0043
     23  C21      125.7310   46.6760    9.9250 C.2   600  NS5600     -0.0218
     24  C22      125.6830   47.9910   10.6590 C.3   600  NS5600      0.0310
     25  C23      126.7690   45.6560   10.2830 C.2   600  NS5600     -0.0043
     26  C24      127.7870   45.8950   11.1280 C.2   600  NS5600     -0.0006
     27  C25      128.7390   44.8070   11.4330 C.2   600  NS5600     -0.0043
     28  C26      130.0520   44.9910   11.7670 C.2   600  NS5600     -0.0218
     29  C27      130.6810   46.3600   11.7950 C.3   600  NS5600      0.0310
     30  C28      130.9030   43.7990   12.0410 C.2   600  NS5600     -0.0043
     31  C29      132.1700   43.9120   12.5040 C.2   600  NS5600     -0.0010
     32  C30      132.9650   42.6990   12.6870 C.2   600  NS5600     -0.0085
     33  C31      134.3150   42.7240   12.7550 C.2   600  NS5600     -0.0439
     34  C32      135.0790   44.0250   12.7010 C.3   600  NS5600      0.0264
     35  C33      135.0700   41.4140   12.8970 C.3   600  NS5600      0.0220
     36  C34      135.8270   41.3820   14.2210 C.3   600  NS5600      0.0043
     37  C35      137.0600   40.4820   14.1270 C.3   600  NS5600      0.0003
     38  C36      136.8440   39.1600   14.8560 C.3   600  NS5600      0.0000
     39  CM3      137.6990   39.0830   16.1200 C.3   600  NS5600      0.0000
     40  CM4      137.1080   37.9770   13.9280 C.3   600  NS5600      0.0000
@<TRIPOS>BOND
     1     8     7    1
     2     9     7    2
     3     9    10    1
     4     7     6    1
     5     3     1    1
     6    10    11    1
     7     5     6    1
     8     5     4    1
     9    11    12    1
    10     2     1    1
    11     1     4    1
    12    13    12    1
    13    12    14    2
    14    14    15    1
    15    15    16    2
    16    16    17    1
    17    18    17    1
    18    17    19    2
    19    19    20    1
    20    20    21    2
    21    21    22    1
    22    22    23    2
    23    23    25    1
    24    23    24    1
    25    25    26    2
    26    26    27    1
    27    27    28    2
    28    28    29    1
    29    28    30    1
    30    30    31    2
    31    31    32    1
    32    32    33    2
    33    34    33    1
    34    33    35    1
    35    35    36    1
    36    40    38    1
    37    37    36    1
    38    37    38    1
    39    38    39    1
