@<TRIPOS>MOLECULE
3g7f_UQ1_L_1.pdb
 18 18 0 0 0
SMALL
GASTEIGER

@<TRIPOS>ATOM
      1  C1       130.3320   69.2540   -3.6730 C.2   502  UQ1502      0.2285
      2  O1       130.4400   68.6510   -4.7620 O.2   502  UQ1502     -0.2835
      3  C2       130.6570   70.7090   -3.5890 C.2   502  UQ1502      0.2140
      4  O2       131.0670   71.3810   -4.7130 O.2   502  UQ1502     -0.4652
      5  CM2      132.2680   72.1650   -4.7140 C.3   502  UQ1502      0.2528
      6  C3       130.5310   71.4290   -2.2940 C.2   502  UQ1502      0.2140
      7  O3       130.8090   72.7980   -2.2100 O.2   502  UQ1502     -0.4652
      8  CM3      131.2450   73.4700   -1.0020 C.3   502  UQ1502      0.2528
      9  C4       130.0780   70.7060   -1.1020 C.2   502  UQ1502      0.2282
     10  O4       129.9780   71.3490   -0.0410 O.2   502  UQ1502     -0.2836
     11  C5       129.7480   69.2500   -1.1690 C.2   502  UQ1502      0.0198
     12  CM5      129.2950   68.5370    0.0750 C.3   502  UQ1502      0.0343
     13  C6       129.8610   68.5170   -2.4720 C.2   502  UQ1502      0.0235
     14  C7       129.5520   67.0280   -2.5820 C.3   502  UQ1502      0.0548
     15  C8       128.1500   66.7480   -3.1120 C.2   502  UQ1502     -0.0298
     16  C9       127.9260   65.9060   -4.1670 C.2   502  UQ1502     -0.0475
     17  C10      129.0820   65.2480   -4.8710 C.3   502  UQ1502      0.0260
     18  C11      126.5120   65.6080   -4.6430 C.3   502  UQ1502      0.0260
@<TRIPOS>BOND
     1    17    16    1
     2     2     1    2
     3     5     4    1
     4     4     3    1
     5    18    16    1
     6    16    15    2
     7     1     3    1
     8     1    13    1
     9     3     6    2
    10    15    14    1
    11    14    13    1
    12    13    11    2
    13     6     7    1
    14     6     9    1
    15     7     8    1
    16    11     9    1
    17    11    12    1
    18     9    10    2
