@<TRIPOS>MOLECULE
3g7f_HEC_C_1.pdb
 43 50 0 0 0
SMALL
GASTEIGER

@<TRIPOS>ATOM
      1 FE         77.2050   10.9620   16.6250 Fe    401  HEC401      0.0000
      2  CHA       77.5890    9.0650   19.4930 C.2   401  HEC401      0.0000
      3  CHB       74.0020    9.9060   16.3270 C.2   401  HEC401      0.0000
      4  CHC       76.8540   12.8660   13.7970 C.2   401  HEC401      0.0000
      5  CHD       80.5160   11.8300   16.7730 C.2   401  HEC401      0.0000
      6  NA        76.0120    9.7390   17.7300 N.ar  401  HEC401      0.0000
      7  C1A       76.3890    8.9600   18.8130 C.ar  401  HEC401      0.0000
      8  C2A       75.3010    8.0360   19.1100 C.ar  401  HEC401      0.0000
      9  C3A       74.3110    8.2920   18.2360 C.ar  401  HEC401      0.0000
     10  C4A       74.7430    9.3620   17.3540 C.ar  401  HEC401      0.0000
     11  CMA       72.9540    7.5780   18.1620 C.3   401  HEC401      0.0000
     12  CAA       75.2790    6.9800   20.2270 C.3   401  HEC401      0.0000
     13  CBA       75.5440    5.5850   19.6400 C.3   401  HEC401      0.0000
     14  CGA       75.7200    4.5370   20.7670 C.2   401  HEC401      0.0000
     15  O1A       76.7750    4.5540   21.4490 O.co2 401  HEC401      0.0000
     16  O2A       74.8100    3.6950   20.9700 O.co2 401  HEC401      0.0000
     17  NB        75.7100   11.2970   15.2670 N.2   401  HEC401      0.0000
     18  C1B       74.4220   10.8460   15.4080 C.2   401  HEC401      0.0000
     19  C2B       73.5850   11.5490   14.4420 C.2   401  HEC401      0.0000
     20  C3B       74.3780   12.3630   13.7380 C.2   401  HEC401      0.0000
     21  C4B       75.7290   12.2200   14.2570 C.2   401  HEC401      0.0000
     22  CMB       72.0740   11.3290   14.2350 C.3   401  HEC401      0.0000
     23  CAB       73.9540   13.2910   12.6050 C.3   401  HEC401      0.0000
     24  CBB       73.0060   14.3570   13.1270 C.3   401  HEC401      0.0000
     25  NC        78.4540   12.1410   15.5070 N.ar  401  HEC401      0.0000
     26  C1C       78.1170   12.8040   14.3520 C.ar  401  HEC401      0.0000
     27  C2C       79.2840   13.5210   13.8740 C.ar  401  HEC401      0.0000
     28  C3C       80.3210   13.1760   14.6500 C.ar  401  HEC401      0.0000
     29  C4C       79.8000   12.3450   15.7240 C.ar  401  HEC401      0.0000
     30  CMC       79.3470   14.2510   12.5430 C.3   401  HEC401      0.0000
     31  CAC       81.7980   13.5860   14.4610 C.3   401  HEC401      0.0000
     32  CBC       81.9770   15.0860   14.5400 C.3   401  HEC401      0.0000
     33  ND        78.7840   10.4810   17.8770 N.2   401  HEC401      0.0000
     34  C1D       80.0280   11.0620   17.8140 C.2   401  HEC401      0.0000
     35  C2D       80.7400   10.7430   19.0430 C.2   401  HEC401      0.0000
     36  C3D       79.9290    9.9810   19.8140 C.2   401  HEC401      0.0000
     37  C4D       78.6830    9.8050   19.0840 C.2   401  HEC401      0.0000
     38  CMD       82.1540   11.2010   19.3900 C.3   401  HEC401      0.0000
     39  CAD       80.2530    9.4190   21.2140 C.3   401  HEC401      0.0000
     40  CBD       79.9210   10.4980   22.2630 C.3   401  HEC401      0.0000
     41  CGD       80.3160   10.0780   23.7000 C.2   401  HEC401      0.0000
     42  O1D       79.7800   10.7050   24.6590 O.co2 401  HEC401      0.0000
     43  O2D       81.1580    9.1400   23.8730 O.co2 401  HEC401      0.0000
@<TRIPOS>BOND
     1    30    27    1
     2    23    24    1
     3    23    20    1
     4    20    21    1
     5    20    19    2
     6     4    21    2
     7     4    26    1
     8    27    26   ar
     9    27    28   ar
    10    22    19    1
    11    21    17    1
    12    26    25   ar
    13    19    18    1
    14    31    32    1
    15    31    28    1
    16    28    29   ar
    17    17    18    2
    18    17     1    1
    19    18     3    1
    20    25    29   ar
    21    25     1    1
    22    29     5    1
    23     3    10    2
    24     1     6    1
    25     1    33    1
    26     5    34    2
    27    10     6   ar
    28    10     9   ar
    29     6     7   ar
    30    34    33    1
    31    34    35    1
    32    33    37    2
    33    11     9    1
    34     9     8   ar
    35     7     8   ar
    36     7     2    2
    37    35    38    1
    38    35    36    2
    39    37     2    1
    40    37    36    1
    41     8    12    1
    42    13    12    1
    43    13    14    1
    44    36    39    1
    45    14    16   ar
    46    14    15   ar
    47    39    40    1
    48    40    41    1
    49    41    43   ar
    50    41    42   ar
