@<TRIPOS>MOLECULE
3g7i_GSH_B_1.pdb
 20 19 0 0 0
SMALL
GASTEIGER

@<TRIPOS>ATOM
      1  N1        -7.7630   25.3340   17.1540 N.3   220  GSH220     -0.1208
      2  CA1       -7.7100   25.7850   15.7750 C.3   220  GSH220      0.1948
      3  C1        -8.5290   24.9260   14.8460 C.2   220  GSH220      0.3819
      4  O11       -9.5470   25.3150   14.2150 O.co2 220  GSH220     -0.2441
      5  O12       -8.1020   23.7690   14.6640 O.co2 220  GSH220     -0.2441
      6  CB1       -7.9780   27.2680   15.6090 C.3   220  GSH220      0.0402
      7  CG1       -7.2820   27.7640   14.3490 C.3   220  GSH220      0.0889
      8  CD1       -7.2860   29.2750   14.3220 C.2   220  GSH220      0.2418
      9  OE1       -7.3100   30.0100   15.5350 O.2   220  GSH220     -0.2733
     10  N2        -7.2790   29.8300   13.1070 N.am  220  GSH220     -0.1968
     11  CA2       -6.5070   31.0220   12.8030 C.3   220  GSH220      0.1843
     12  C2        -7.3920   32.2340   12.9150 C.2   220  GSH220      0.2627
     13  O2        -8.6830   32.1700   12.3800 O.2   220  GSH220     -0.2714
     14  CB2       -5.8850   30.9230   11.4060 C.3   220  GSH220      0.0997
     15  SG2       -5.0550   29.3560   10.9650 S.3   220  GSH220     -0.0797
     16  N3        -6.9280   33.3340   13.5220 N.am  220  GSH220     -0.1917
     17  CA3       -7.7160   34.5610   13.5660 C.3   220  GSH220      0.2285
     18  C3        -8.3710   34.7980   14.9130 C.2   220  GSH220      0.3865
     19  O31       -8.7920   35.9420   15.2250 O.co2 220  GSH220     -0.2437
     20  O32       -8.5030   33.8620   15.7370 O.co2 220  GSH220     -0.2437
@<TRIPOS>BOND
     1    15    14    1
     2    14    11    1
     3    13    12    2
     4    11    12    1
     5    11    10    1
     6    12    16   am
     7    10     8   am
     8    16    17    1
     9    17    18    1
    10     4     3   ar
    11     8     7    1
    12     8     9    2
    13     7     6    1
    14     5     3   ar
    15     3     2    1
    16    18    19   ar
    17    18    20   ar
    18     6     2    1
    19     2     1    1
