@<TRIPOS>MOLECULE
3g7j_GTX_A_1.pdb
 26 25 0 0 0
SMALL
GASTEIGER

@<TRIPOS>ATOM
      1  N1        17.9560  -16.4640   -2.8900 N.3   220  GTX220     -0.1208
      2  CA1       18.0880  -15.1070   -2.3910 C.3   220  GTX220      0.1948
      3  C1        17.3390  -14.9620   -1.1020 C.2   220  GTX220      0.3819
      4  O11       17.7000  -14.1220   -0.2500 O.co2 220  GTX220     -0.2441
      5  O12       16.3320  -15.6690   -0.8850 O.co2 220  GTX220     -0.2441
      6  CB1       17.4820  -14.1450   -3.4010 C.3   220  GTX220      0.0402
      7  CG1       18.0880  -12.7530   -3.2840 C.3   220  GTX220      0.0889
      8  CD1       17.5440  -11.8790   -4.3900 C.2   220  GTX220      0.2418
      9  OE1       16.9070  -12.4480   -5.5190 O.2   220  GTX220     -0.2733
     10  N2        17.7020  -10.5710   -4.2040 N.am  220  GTX220     -0.1969
     11  CA2       17.6230   -9.6060   -5.2820 C.3   220  GTX220      0.1834
     12  C2        18.8630   -8.7620   -5.3460 C.2   220  GTX220      0.2626
     13  O2        19.4470   -8.2750   -4.1610 O.2   220  GTX220     -0.2714
     14  CB2       16.4000   -8.7190   -5.0890 C.3   220  GTX220      0.0886
     15  SG2       14.8750   -9.6220   -4.7020 S.3   220  GTX220     -0.1379
     16  C1S       14.0130   -8.8680   -6.1080 C.3   220  GTX220      0.0576
     17  C2S       13.7030   -7.3940   -5.8760 C.3   220  GTX220      0.0116
     18  C3S       12.5750   -6.9020   -6.7710 C.3   220  GTX220      0.0009
     19  C4S       12.3030   -5.4210   -6.5250 C.3   220  GTX220      0.0000
     20  C5S       11.1570   -5.2250   -5.5390 C.3   220  GTX220      0.0000
     21  C6S       11.1010   -3.7840   -5.0450 C.3   220  GTX220      0.0000
     22  N3        19.3590   -8.5190   -6.5580 N.am  220  GTX220     -0.1917
     23  CA3       20.5170   -7.6720   -6.7920 C.3   220  GTX220      0.2285
     24  C3        21.7780   -8.4780   -6.9970 C.2   220  GTX220      0.3865
     25  O31       22.8050   -7.9430   -7.4730 O.co2 220  GTX220     -0.2437
     26  O32       21.8220   -9.6890   -6.6900 O.co2 220  GTX220     -0.2437
@<TRIPOS>BOND
     1    25    24   ar
     2    24    23    1
     3    24    26   ar
     4    23    22    1
     5    18    19    1
     6    18    17    1
     7    22    12   am
     8    19    20    1
     9    16    17    1
    10    16    15    1
    11    20    21    1
    12     9     8    2
    13    12    11    1
    14    12    13    2
    15    11    14    1
    16    11    10    1
    17    14    15    1
    18     8    10   am
    19     8     7    1
    20     6     7    1
    21     6     2    1
    22     1     2    1
    23     2     3    1
    24     3     5   ar
    25     3     4   ar
