@<TRIPOS>MOLECULE
3g7v_MAL_A_1.pdb
 23 24 0 0 0
SMALL
GASTEIGER

@<TRIPOS>ATOM
      1  C1        82.5780   22.4260   39.7700 C.3   501  MAL501      0.2696
      2  C2        83.3180   22.5410   41.0900 C.3   501  MAL501      0.2406
      3  C3        82.8520   23.7900   41.8190 C.3   501  MAL501      0.2198
      4  C4        82.9760   25.0030   40.8960 C.3   501  MAL501      0.2144
      5  C5        82.3140   24.7860   39.5420 C.3   501  MAL501      0.1835
      6  C6        82.6250   25.9010   38.5510 C.3   501  MAL501      0.2142
      7  O1        81.2200   22.1530   40.0480 O.3   501  MAL501     -0.3245
      8  O2        83.0870   21.3640   41.8810 O.3   501  MAL501     -0.2149
      9  O3        83.4970   23.9940   43.0500 O.3   501  MAL501     -0.2174
     10  O4        82.4310   26.1240   41.5250 O.3   501  MAL501     -0.2176
     11  O5        82.7820   23.5830   38.9690 O.3   501  MAL501     -0.3256
     12  O6        81.8220   25.7620   37.3910 O.3   501  MAL501     -0.2176
     13  C1'       78.2580   19.6130   39.1000 C.2   501  MAL501      0.3505
     14  C2'       79.5100   18.8510   39.5810 C.3   501  MAL501      0.2821
     15  C3'       80.3890   19.9140   40.1960 C.3   501  MAL501      0.2238
     16  C4'       80.5410   21.1700   39.2990 C.3   501  MAL501      0.1936
     17  C5'       79.1660   21.7180   38.8580 C.3   501  MAL501      0.2312
     18  C6'       79.2920   22.8980   37.9130 C.3   501  MAL501      0.2280
     19  O1'       77.1720   19.5900   39.9640 O.2   501  MAL501     -0.2472
     20  O2'       79.1390   17.9330   40.5860 O.3   501  MAL501     -0.2082
     21  O3'       81.6380   19.3650   40.4670 O.3   501  MAL501     -0.2170
     22  O5'       78.4070   20.6960   38.2050 O.3   501  MAL501     -0.4451
     23  O6'       78.0220   23.5050   37.7790 O.3   501  MAL501     -0.2163
@<TRIPOS>BOND
     1    12     6    1
     2    23    18    1
     3    18    17    1
     4    22    17    1
     5    22    13    1
     6     6     5    1
     7    17    16    1
     8    11     5    1
     9    11     1    1
    10    13    14    1
    11    13    19    2
    12    16     7    1
    13    16    15    1
    14     5     4    1
    15    14    15    1
    16    14    20    1
    17     1     7    1
    18     1     2    1
    19    15    21    1
    20     4    10    1
    21     4     3    1
    22     2     3    1
    23     2     8    1
    24     3     9    1
