@<TRIPOS>MOLECULE
3g7w_MLR_A_1.pdb
 34 36 0 0 0
SMALL
GASTEIGER

@<TRIPOS>ATOM
      1  C1A      -25.0690   -1.5770  -22.5950 C.3   400  MLR400      0.3023
      2  C2A      -25.8340   -2.0610  -21.3830 C.3   400  MLR400      0.2433
      3  C3A      -26.9000   -3.0570  -21.7960 C.3   400  MLR400      0.2168
      4  C4A      -27.7660   -2.4960  -22.9120 C.3   400  MLR400      0.1804
      5  C5A      -26.9230   -1.9860  -24.0750 C.3   400  MLR400      0.1804
      6  C6A      -27.7690   -1.2290  -25.1020 C.3   400  MLR400      0.2141
      7  O1X      -24.2650   -2.6500  -23.1010 O.3   400  MLR400     -0.1869
      8  O2A      -24.9080   -2.6910  -20.4920 O.3   400  MLR400     -0.2148
      9  O3A      -27.7470   -3.3810  -20.6810 O.3   400  MLR400     -0.2175
     10  O4A      -28.6070   -3.5520  -23.3790 O.3   400  MLR400     -0.3257
     11  O5A      -25.9390   -1.0660  -23.6030 O.3   400  MLR400     -0.3237
     12  O6A      -27.0880   -1.2280  -26.3610 O.3   400  MLR400     -0.2176
     13  C1B      -29.9460   -3.5200  -22.9350 C.3   400  MLR400      0.2695
     14  C2B      -30.3780   -4.9390  -22.6110 C.3   400  MLR400      0.2404
     15  C3B      -30.2430   -5.7890  -23.8670 C.3   400  MLR400      0.2167
     16  C4B      -31.1270   -5.2050  -24.9730 C.3   400  MLR400      0.1804
     17  C5B      -30.8080   -3.7380  -25.1840 C.3   400  MLR400      0.1803
     18  C6B      -31.8350   -3.0650  -26.1000 C.3   400  MLR400      0.2141
     19  O2B      -29.5920   -5.4740  -21.5270 O.3   400  MLR400     -0.2149
     20  O3B      -30.6110   -7.1430  -23.6150 O.3   400  MLR400     -0.2175
     21  O4B      -30.8700   -5.9520  -26.1570 O.3   400  MLR400     -0.3257
     22  O5B      -30.8010   -3.0000  -23.9460 O.3   400  MLR400     -0.3257
     23  O6B      -31.3220   -1.8300  -26.6130 O.3   400  MLR400     -0.2176
     24  C1C      -31.9330   -6.6990  -26.7450 C.3   400  MLR400      0.2695
     25  C2C      -31.4830   -8.1050  -27.1340 C.3   400  MLR400      0.2406
     26  C3C      -30.3930   -8.0170  -28.2100 C.3   400  MLR400      0.2198
     27  C4C      -30.8040   -7.1380  -29.4020 C.3   400  MLR400      0.2144
     28  C5C      -31.3930   -5.8110  -28.9280 C.3   400  MLR400      0.1835
     29  C6C      -31.9940   -5.0520  -30.0960 C.3   400  MLR400      0.2142
     30  O2C      -31.0180   -8.8320  -25.9870 O.3   400  MLR400     -0.2149
     31  O3C      -30.0670   -9.3300  -28.6840 O.3   400  MLR400     -0.2174
     32  O4C      -29.6770   -6.8890  -30.2630 O.3   400  MLR400     -0.2176
     33  O5C      -32.3970   -6.0530  -27.9360 O.3   400  MLR400     -0.3256
     34  O6C      -32.4420   -3.7750  -29.6660 O.3   400  MLR400     -0.2176
@<TRIPOS>BOND
     1    32    27    1
     2    29    34    1
     3    29    28    1
     4    27    28    1
     5    27    26    1
     6    28    33    1
     7    31    26    1
     8    26    25    1
     9    33    24    1
    10    25    24    1
    11    25    30    1
    12    24    21    1
    13    23    18    1
    14    12     6    1
    15    21    16    1
    16    18    17    1
    17    17    16    1
    18    17    22    1
    19     6     5    1
    20    16    15    1
    21     5    11    1
    22     5     4    1
    23    22    13    1
    24    15    20    1
    25    15    14    1
    26    11     1    1
    27    10    13    1
    28    10     4    1
    29     7     1    1
    30    13    14    1
    31     4     3    1
    32    14    19    1
    33     1     2    1
    34     3     2    1
    35     3     9    1
    36     2     8    1
