@<TRIPOS>MOLECULE
3g81_MMA_A_1.pdb
 13 13 0 0 0
SMALL
GASTEIGER

@<TRIPOS>ATOM
      1  C1        28.7610  -14.2730    9.1780 C.3   500  MMA500      0.2695
      2  C2        27.7310  -14.7210   10.2370 C.3   500  MMA500      0.2406
      3  C3        27.6000  -13.6340   11.3100 C.3   500  MMA500      0.2198
      4  C4        28.9870  -13.1310   11.7990 C.3   500  MMA500      0.2144
      5  C5        30.0500  -12.9260   10.6990 C.3   500  MMA500      0.1835
      6  C6        31.4490  -12.6030   11.3180 C.3   500  MMA500      0.2142
      7  C7        27.0370  -12.7020    8.3720 C.3   500  MMA500      0.1769
      8  O1        28.3800  -13.1130    8.4690 O.3   500  MMA500     -0.3259
      9  O2        28.0100  -16.0080   10.7460 O.3   500  MMA500     -0.2149
     10  O3        26.7130  -13.9250   12.3870 O.3   500  MMA500     -0.2174
     11  O4        28.9360  -12.1680   12.7780 O.3   500  MMA500     -0.2176
     12  O5        30.0450  -14.0870    9.8430 O.3   500  MMA500     -0.3256
     13  O6        32.5390  -12.5300   10.4290 O.3   500  MMA500     -0.2176
@<TRIPOS>BOND
     1     7     8    1
     2     8     1    1
     3     1    12    1
     4     1     2    1
     5    12     5    1
     6     2     9    1
     7     2     3    1
     8    13     6    1
     9     5     6    1
    10     5     4    1
    11     3     4    1
    12     3    10    1
    13     4    11    1
