@<TRIPOS>MOLECULE
3g82_MI3_A_1.pdb
 41 44 0 0 0
SMALL
GASTEIGER

@<TRIPOS>ATOM
      1  CA7       66.5470  -14.3830  -15.5650 C.3   100  MI3100      0.1355
      2  NA1       65.1000  -14.6510  -15.6650 N.pl3 100  MI3100     -0.2355
      3  CA6       64.5680  -15.8620  -15.4720 C.ar  100  MI3100      0.0716
      4  CA5       65.5100  -17.0330  -15.1270 C.ar  100  MI3100      0.0163
      5  CA4       64.8260  -18.2390  -14.9480 C.ar  100  MI3100      0.0013
      6  CA3       63.4430  -18.3650  -15.0700 C.ar  100  MI3100      0.0003
      7  CA2       62.6330  -17.2770  -15.3860 C.ar  100  MI3100      0.0077
      8  CA1       63.1840  -16.0120  -15.5900 C.ar  100  MI3100      0.0904
      9  CA        62.2360  -14.8460  -15.9390 C.2   100  MI3100      0.3425
     10  OA        62.7120  -13.5850  -16.1470 O.2   100  MI3100     -0.2448
     11  O3'       60.9000  -15.1220  -16.0280 O.3   100  MI3100     -0.4436
     12  C3'       60.0420  -14.0330  -16.3850 C.3   100  MI3100      0.2355
     13  C2'       58.9620  -14.4910  -17.3630 C.3   100  MI3100      0.2665
     14  O2'       59.4780  -15.3430  -18.3920 O.3   100  MI3100     -0.2119
     15  C4'       59.2480  -13.7510  -15.1230 C.3   100  MI3100      0.1918
     16  C5'       59.1360  -12.2250  -14.9220 C.3   100  MI3100      0.1825
     17  O5'       57.7600  -11.7970  -14.8170 O.3   100  MI3100     -0.3111
     18  PA        57.2710  -10.3600  -15.4110 P.3   100  MI3100      0.2189
     19  O3A       57.8620  -10.2430  -16.9310 O.2   100  MI3100     -0.5170
     20  O2A       55.7920  -10.2370  -15.4140 O.3   100  MI3100     -0.4371
     21  O1A       58.0030   -9.2420  -14.5130 O.3   100  MI3100     -0.2700
     22  PB        57.2400   -8.6290  -13.2370 P.3   100  MI3100      0.2277
     23  O3B       55.8980   -9.5030  -13.0190 O.3   100  MI3100     -0.4368
     24  O2B       56.9310   -7.1900  -13.4450 O.2   100  MI3100     -0.5168
     25  O1B       58.1650   -8.9410  -11.9610 O.3   100  MI3100     -0.2258
     26  PG        59.2390   -7.7710  -11.4560 P.3   100  MI3100      0.5373
     27  O3G       60.4420   -8.1580  -10.5340 O.3   100  MI3100     -0.1143
     28  O1G       59.7300   -6.5300  -12.2880 O.2   100  MI3100     -0.2221
     29  O2G       58.0290   -7.4570  -10.6420 O.3   100  MI3100     -0.1143
     30  O4'       57.9570  -14.4150  -15.3150 O.3   100  MI3100     -0.3124
     31  C1'       58.1400  -15.3200  -16.4150 C.3   100  MI3100      0.3198
     32  N9        56.8990  -15.7310  -17.0940 N.pl3 100  MI3100     -0.1435
     33  C8        55.7830  -15.0160  -17.2190 C.3   100  MI3100      0.3382
     34  N7        54.8820  -15.7310  -17.8890 N.2   100  MI3100     -0.2054
     35  C5        55.4260  -16.9020  -18.1870 C.2   100  MI3100      0.2446
     36  C4        56.7150  -16.9050  -17.6820 C.2   100  MI3100      0.3528
     37  N3        57.5140  -17.9740  -17.8320 N.2   100  MI3100     -0.0334
     38  C2        57.0990  -19.0540  -18.4690 C.3   100  MI3100      0.4017
     39  N1        55.8060  -19.1170  -19.0060 N.2   100  MI3100     -0.1458
     40  C6        54.9590  -18.0180  -18.8590 C.1   100  MI3100      0.1792
     41  O6        53.8210  -18.0340  -19.3170 O.2   100  MI3100     -0.2203
@<TRIPOS>BOND
     1    41    40    2
     2    39    40    2
     3    39    38    1
     4    40    35    1
     5    38    37    1
     6    14    13    1
     7    35    34    2
     8    35    36    1
     9    34    33    1
    10    37    36    2
    11    36    32    1
    12    13    31    1
    13    13    12    1
    14    33    32    1
    15    32    31    1
    16    19    18    2
    17    31    30    1
    18    12    11    1
    19    12    15    1
    20    10     9    2
    21    11     9    1
    22     9     8    1
    23     2     1    1
    24     2     3    1
    25     8     3   ar
    26     8     7   ar
    27     3     4   ar
    28    20    18    1
    29    18    17    1
    30    18    21    1
    31     7     6   ar
    32    30    15    1
    33     4     5   ar
    34    15    16    1
    35     6     5   ar
    36    16    17    1
    37    21    22    1
    38    24    22    2
    39    22    23    1
    40    22    25    1
    41    28    26    2
    42    25    26    1
    43    26    29    1
    44    26    27    1
