@<TRIPOS>MOLECULE
3g82_FOK_A_1.pdb
 29 31 0 0 0
SMALL
GASTEIGER

@<TRIPOS>ATOM
      1  C1        42.4550  -12.3850  -18.1750 C.3   101  FOK101      0.1547
      2  O2        41.9420  -13.5150  -18.8960 O.3   101  FOK101     -0.2231
      3  C2        43.2860  -12.9270  -17.0150 C.3   101  FOK101      0.0330
      4  C3        44.5810  -13.5600  -17.5060 C.3   101  FOK101      0.0027
      5  C4        45.4310  -12.5850  -18.3090 C.3   101  FOK101      0.0027
      6  C5        44.6140  -11.9400  -19.4550 C.3   101  FOK101      0.0393
      7  C6        45.4360  -11.0230  -20.4030 C.3   101  FOK101      0.1943
      8  O3        46.0240   -9.9030  -19.7280 O.3   101  FOK101     -0.2192
      9  C7        44.6360  -10.5290  -21.6200 C.3   101  FOK101      0.2260
     10  O4        45.3800   -9.5050  -22.2960 O.3   101  FOK101     -0.4470
     11  C8        43.1980  -10.0740  -21.3100 C.3   101  FOK101      0.1639
     12  O1        42.4960  -10.0030  -22.5590 O.3   101  FOK101     -0.3524
     13  C9        42.4820  -11.1030  -20.4180 C.3   101  FOK101      0.2051
     14  O6        42.4600  -12.3190  -21.1820 O.3   101  FOK101     -0.2155
     15  C10       43.2140  -11.3820  -19.0700 C.3   101  FOK101      0.0652
     16  C11       41.0200  -10.6940  -20.3360 C.2   101  FOK101      0.1831
     17  O7        40.4440  -10.5030  -19.2790 O.2   101  FOK101     -0.2933
     18  C12       40.2310  -10.5170  -21.6110 C.3   101  FOK101      0.0985
     19  C13       41.0670   -9.9280  -22.7530 C.3   101  FOK101      0.1183
     20  C14       40.7380  -10.7080  -24.0040 C.2   101  FOK101      0.0006
     21  C15       41.3850  -11.8260  -24.2880 C.2   101  FOK101     -0.0025
     22  C16       40.6690   -8.4790  -23.0050 C.3   101  FOK101      0.0346
     23  C17       43.2010   -8.6470  -20.7390 C.3   101  FOK101      0.0365
     24  C18       46.5560  -13.4040  -18.9130 C.3   101  FOK101      0.0001
     25  C19       46.0780  -11.6000  -17.3340 C.3   101  FOK101      0.0001
     26  C20       43.3110  -10.1250  -18.1850 C.3   101  FOK101      0.0056
     27  C21       45.8280   -9.9470  -23.6060 C.2   101  FOK101      0.3176
     28  O5        45.0510   -9.8510  -24.5400 O.2   101  FOK101     -0.2501
     29  C22       47.2110  -10.5050  -23.7750 C.3   101  FOK101      0.1212
@<TRIPOS>BOND
     1    28    27    2
     2    21    20    2
     3    20    19    1
     4    29    27    1
     5    27    10    1
     6    22    19    1
     7    19    12    1
     8    19    18    1
     9    12    11    1
    10    10     9    1
    11     9    11    1
    12     9     7    1
    13    18    16    1
    14    11    23    1
    15    11    13    1
    16    14    13    1
    17    13    16    1
    18    13    15    1
    19     7     8    1
    20     7     6    1
    21    16    17    2
    22     6    15    1
    23     6     5    1
    24    15    26    1
    25    15     1    1
    26    24     5    1
    27     2     1    1
    28     5     4    1
    29     5    25    1
    30     1     3    1
    31     4     3    1
