@<TRIPOS>MOLECULE
3g82_GSP_C_1.pdb
 32 34 0 0 0
SMALL
GASTEIGER

@<TRIPOS>ATOM
      1  PG        23.3050    3.1320  -41.8580 P.3   395  GSP395      0.4340
      2  O3B       22.1740    3.4030  -42.8370 O.3   395  GSP395     -0.2405
      3  S1G       24.7260    4.3670  -42.0070 S.3   395  GSP395      0.0416
      4  O2G       22.8190    3.4110  -40.4760 O.3   395  GSP395     -0.1305
      5  O3G       23.8670    1.7910  -42.1700 O.2   395  GSP395     -0.2423
      6  PB        20.8870    2.6840  -43.1480 P.3   395  GSP395      0.2262
      7  O1B       21.1730    1.5700  -44.0840 O.2   395  GSP395     -0.5168
      8  O2B       20.1970    2.4040  -41.8770 O.3   395  GSP395     -0.4369
      9  PA        18.8870    4.4760  -43.4550 P.3   395  GSP395      0.2189
     10  O1A       17.9000    3.4680  -42.9930 O.2   395  GSP395     -0.5170
     11  O2A       19.2910    5.5940  -42.5640 O.3   395  GSP395     -0.4371
     12  O3A       20.1210    3.7460  -43.8780 O.3   395  GSP395     -0.2701
     13  O5'       18.3280    5.1220  -44.8020 O.3   395  GSP395     -0.3112
     14  C5'       19.0330    6.1970  -45.4480 C.3   395  GSP395      0.1813
     15  C4'       18.0730    7.1820  -46.0760 C.3   395  GSP395      0.1799
     16  O4'       17.4280    6.6240  -47.2450 O.3   395  GSP395     -0.3326
     17  C3'       16.9430    7.6440  -45.1660 C.3   395  GSP395      0.2158
     18  O3'       16.7270    9.0440  -45.3690 O.3   395  GSP395     -0.2175
     19  C2'       15.7610    6.8390  -45.6710 C.3   395  GSP395      0.2310
     20  O2'       14.5250    7.4570  -45.4470 O.3   395  GSP395     -0.2158
     21  C1'       16.0270    6.7740  -47.1440 C.3   395  GSP395      0.2293
     22  N9        15.3950    5.6410  -47.8130 N.pl3 395  GSP395     -0.2354
     23  C8        15.4660    4.3250  -47.4450 C.3   395  GSP395      0.2246
     24  N7        14.7770    3.5400  -48.2310 N.2   395  GSP395     -0.2322
     25  C5        14.2190    4.3920  -49.1740 C.2   395  GSP395      0.2182
     26  C6        13.3710    4.1160  -50.2660 C.1   395  GSP395      0.2372
     27  O6        12.9300    3.0360  -50.6320 O.2   395  GSP395     -0.2069
     28  N1        13.0370    5.2590  -50.9620 N.2   395  GSP395     -0.2485
     29  C2        13.4660    6.5140  -50.6550 C.1   395  GSP395      0.2531
     30  N2        13.0360    7.5200  -51.4640 N.pl3 395  GSP395     -0.0226
     31  N3        14.2660    6.7840  -49.6290 N.2   395  GSP395     -0.3074
     32  C4        14.5960    5.6850  -48.9380 C.2   395  GSP395      0.2300
@<TRIPOS>BOND
     1    30    29    1
     2    28    29    2
     3    28    26    2
     4    29    31    2
     5    27    26    2
     6    26    25    1
     7    31    32    2
     8    25    32    1
     9    25    24    2
    10    32    22    1
    11    24    23    1
    12    22    23    1
    13    22    21    1
    14    16    21    1
    15    16    15    1
    16    21    19    1
    17    15    14    1
    18    15    17    1
    19    19    20    1
    20    19    17    1
    21    14    13    1
    22    18    17    1
    23    13     9    1
    24     7     6    2
    25    12     9    1
    26    12     6    1
    27     9    10    2
    28     9    11    1
    29     6     2    1
    30     6     8    1
    31     2     1    1
    32     5     1    2
    33     3     1    1
    34     1     4    1
