@<TRIPOS>MOLECULE
3g83_MAN_A_1.pdb
 11 11 0 0 0
SMALL
GASTEIGER

@<TRIPOS>ATOM
      1  C1        29.4350  -14.9320    9.5320 C.3   500  MAN500      0.1777
      2  C2        28.2740  -15.1480   10.4960 C.3   500  MAN500      0.2141
      3  C3        28.1330  -13.9570   11.4400 C.3   500  MAN500      0.2173
      4  C4        29.4720  -13.6520   12.0890 C.3   500  MAN500      0.2142
      5  C5        30.5430  -13.4570   11.0260 C.3   500  MAN500      0.1810
      6  C6        31.8890  -13.2020   11.6900 C.3   500  MAN500      0.2141
      7  O2        28.4820  -16.3130   11.2550 O.3   500  MAN500     -0.2176
      8  O3        27.2140  -14.2750   12.4630 O.3   500  MAN500     -0.2175
      9  O4        29.3680  -12.4950   12.8990 O.3   500  MAN500     -0.2176
     10  O5        30.6330  -14.6170   10.2130 O.3   500  MAN500     -0.3481
     11  O6        32.8450  -12.9390   10.6900 O.3   500  MAN500     -0.2176
@<TRIPOS>BOND
     1     1    10    1
     2     1     2    1
     3    10     5    1
     4     2     7    1
     5     2     3    1
     6    11     6    1
     7     5     6    1
     8     5     4    1
     9     3     4    1
    10     3     8    1
    11     4     9    1
