@<TRIPOS>MOLECULE
3g84_MAN_A_1.pdb
 12 12 0 0 0
SMALL
GASTEIGER

@<TRIPOS>ATOM
      1  C1        30.4110  -13.2670    9.2680 C.3   501  MAN501      0.3024
      2  C2        30.3420  -12.4190   10.5330 C.3   501  MAN501      0.2434
      3  C3        29.5040  -13.0650   11.6090 C.3   501  MAN501      0.2199
      4  C4        28.1830  -13.5230   11.0090 C.3   501  MAN501      0.2144
      5  C5        28.4590  -14.4120    9.8060 C.3   501  MAN501      0.1836
      6  C6        27.1590  -14.9540    9.2370 C.3   501  MAN501      0.2142
      7  O1        31.0360  -14.4840    9.5700 O.3   501  MAN501     -0.1869
      8  O2        29.6540  -11.1920   10.2940 O.3   501  MAN501     -0.2148
      9  O3        29.1740  -12.0640   12.5390 O.3   501  MAN501     -0.2174
     10  O4        27.3580  -14.1750   11.9540 O.3   501  MAN501     -0.2176
     11  O5        29.1110  -13.6100    8.8310 O.3   501  MAN501     -0.3236
     12  O6        26.8050  -14.1150    8.1750 O.3   501  MAN501     -0.2176
@<TRIPOS>BOND
     1    12     6    1
     2    11     1    1
     3    11     5    1
     4     6     5    1
     5     1     7    1
     6     1     2    1
     7     5     4    1
     8     8     2    1
     9     2     3    1
    10     4     3    1
    11     4    10    1
    12     3     9    1
