@<TRIPOS>MOLECULE
3g86_T18_A_1.pdb
 38 42 0 0 0
SMALL
GASTEIGER

@<TRIPOS>ATOM
      1  C1        -9.0130    9.9200  -16.2850 C.2   571  T18571     -0.0001
      2  C2        -9.7650    9.0210  -17.0540 C.3   571  T18571      0.1426
      3  C3        -8.8250    9.7360  -14.9250 C.2   571  T18571      0.0306
      4  C4       -10.3490    7.9360  -16.4060 C.2   571  T18571      0.0181
      5  C5        -9.3920    8.6270  -14.2840 C.2   571  T18571      0.1475
      6  C6       -10.1480    7.7330  -15.0510 C.2   571  T18571      0.1330
      7  S7       -10.8310    6.2830  -14.3010 S.O2  571  T18571      0.0177
      8  C8       -10.7810    6.6650  -12.5730 C.3   571  T18571      0.2146
      9  C9        -9.9380    7.6060  -12.0930 C.2   571  T18571      0.1409
     10  N10       -9.1820    8.4290  -12.9150 N.2   571  T18571     -0.4029
     11  N11       -9.9580    9.2510  -18.4400 N.3   571  T18571     -0.0745
     12  S12      -10.3320    8.1130  -19.5940 S.O2  571  T18571      0.0597
     13  C13      -12.1510    8.0910  -19.5850 C.3   571  T18571      0.1975
     14  O14       -9.8450    8.6690  -20.8110 O.2   571  T18571     -0.1560
     15  O15       -9.7540    6.8770  -19.1720 O.2   571  T18571     -0.1560
     16  O16      -12.1800    6.1680  -14.7510 O.2   571  T18571     -0.1681
     17  O17       -9.9050    5.2190  -14.6000 O.2   571  T18571     -0.1681
     18  C18      -12.0850    7.2630   -6.3170 C.ar  571  T18571      0.1403
     19  C19      -11.5330    8.4550   -5.8400 C.ar  571  T18571      0.0311
     20  C20      -10.7030    9.1990   -6.6570 C.ar  571  T18571      0.0197
     21  C21      -11.8080    6.8000   -7.5770 C.ar  571  T18571      0.0343
     22  C22      -10.9040    7.5040   -8.3840 C.ar  571  T18571      0.0573
     23  C23      -10.3720    8.7320   -7.9390 C.ar  571  T18571      0.0660
     24  N24       -9.5820    9.4850   -8.7900 N.ar  571  T18571     -0.2911
     25  C25       -9.4890    9.1620  -10.1190 C.ar  571  T18571      0.2664
     26  C26      -10.0500    7.9340  -10.6460 C.ar  571  T18571      0.1221
     27  C27      -10.7040    7.0600   -9.7580 C.ar  571  T18571      0.2038
     28  F28      -12.8920    6.5400   -5.5510 F     571  T18571     -0.2042
     29  O29      -11.2180    5.8580  -10.1090 O.3   571  T18571     -0.2863
     30  C30       -8.9690   10.7110   -8.2510 C.3   571  T18571      0.1357
     31  O31       -8.8330    9.9070  -10.8560 O.2   571  T18571     -0.2668
     32  C32       -7.6580   10.2440   -7.6600 C.ar  571  T18571      0.0006
     33  C33       -6.6770    9.7180   -8.5010 C.ar  571  T18571     -0.0001
     34  C34       -5.2310    9.3290   -6.6300 C.ar  571  T18571      0.1401
     35  C35       -6.1920    9.8560   -5.7620 C.ar  571  T18571      0.0294
     36  C36       -5.4660    9.2720   -8.0000 C.ar  571  T18571      0.0294
     37  C37       -7.4070   10.3190   -6.2850 C.ar  571  T18571     -0.0001
     38  F38       -4.0450    8.8740   -6.1550 F     571  T18571     -0.2042
@<TRIPOS>BOND
     1    14    12    2
     2    12    13    1
     3    12    15    2
     4    12    11    1
     5    11     2    1
     6     2     4    1
     7     2     1    1
     8     4     6    2
     9     1     3    2
    10     6     7    1
    11     6     5    1
    12     3     5    1
    13    16     7    2
    14    17     7    2
    15     7     8    1
    16     5    10    2
    17    10     9    2
    18     8     9    1
    19     9    26    1
    20    31    25    2
    21    26    25   ar
    22    26    27   ar
    23    25    24   ar
    24    29    27    1
    25    27    22   ar
    26    24    30    1
    27    24    23   ar
    28    33    36   ar
    29    33    32   ar
    30    22    23   ar
    31    22    21   ar
    32    30    32    1
    33    36    34   ar
    34    23    20   ar
    35    32    37   ar
    36    21    18   ar
    37    20    19   ar
    38    34    38    1
    39    34    35   ar
    40    18    19   ar
    41    18    28    1
    42    37    35   ar
