@<TRIPOS>MOLECULE
3g88_SAM_A_1.pdb
 27 29 0 0 0
SMALL
GASTEIGER

@<TRIPOS>ATOM
      1  N        -20.4390   43.8640   15.4190 N.3   303  SAM303     -0.1208
      2  CA       -20.1610   43.1390   16.6550 C.3   303  SAM303      0.1952
      3  C        -20.3830   41.6420   16.5040 C.2   303  SAM303      0.3819
      4  O        -19.9560   40.8610   17.3510 O.co2 303  SAM303     -0.2441
      5  OXT      -20.9750   41.1850   15.5290 O.co2 303  SAM303     -0.2441
      6  CB       -20.9960   43.6680   17.8150 C.3   303  SAM303      0.0414
      7  CG       -22.4720   43.2880   17.8590 C.3   303  SAM303      0.0503
      8  SD       -23.2490   44.0830   19.2890 S.3   303  SAM303     -0.1761
      9  CE       -24.7950   43.1550   19.4580 C.3   303  SAM303      0.0590
     10  C5'      -23.7980   45.6780   18.6170 C.3   303  SAM303      0.0806
     11  C4'      -22.7830   46.7900   18.8930 C.3   303  SAM303      0.1622
     12  O4'      -23.0560   47.9470   18.1330 O.3   303  SAM303     -0.3153
     13  C3'      -22.7570   47.2320   20.3510 C.3   303  SAM303      0.2168
     14  O3'      -21.4330   47.1160   20.8260 O.3   303  SAM303     -0.2175
     15  C2'      -23.1960   48.6910   20.3410 C.3   303  SAM303      0.2569
     16  O2'      -22.5040   49.4930   21.2780 O.3   303  SAM303     -0.2130
     17  C1'      -22.8730   49.1060   18.9120 C.3   303  SAM303      0.3185
     18  N9       -23.7770   50.1250   18.3520 N.pl3 303  SAM303     -0.1439
     19  C8       -25.1400   50.0060   18.2120 C.3   303  SAM303      0.3377
     20  N7       -25.6020   51.1480   17.6510 N.2   303  SAM303     -0.2095
     21  C5       -24.5610   51.9940   17.4450 C.2   303  SAM303      0.2526
     22  C6       -24.4790   53.2760   16.9210 C.2   303  SAM303      0.4393
     23  N6       -25.5760   53.8940   16.5050 N.pl3 303  SAM303      0.2180
     24  N1       -23.2530   53.8950   16.8310 N.2   303  SAM303      0.0021
     25  C2       -22.1180   53.2400   17.2590 C.3   303  SAM303      0.5254
     26  N3       -22.1940   51.9730   17.7890 N.2   303  SAM303     -0.0055
     27  C4       -23.4040   51.3660   17.8890 C.2   303  SAM303      0.3518
@<TRIPOS>BOND
     1     1     2    1
     2     5     3   ar
     3     3     2    1
     4     3     4   ar
     5    23    22    1
     6     2     6    1
     7    24    22    2
     8    24    25    1
     9    22    21    1
    10    25    26    1
    11    21    20    2
    12    21    27    1
    13    20    19    1
    14    26    27    2
    15     6     7    1
    16     7     8    1
    17    27    18    1
    18    12    11    1
    19    12    17    1
    20    19    18    1
    21    18    17    1
    22    10    11    1
    23    10     8    1
    24    11    13    1
    25    17    15    1
    26     8     9    1
    27    15    13    1
    28    15    16    1
    29    13    14    1
