@<TRIPOS>MOLECULE
3g89_AMP_A_1.pdb
 23 25 0 0 0
SMALL
GASTEIGER

@<TRIPOS>ATOM
      1  P          5.4400    6.1270  -25.4720 P.3   304  AMP304      0.5327
      2  O1P        4.2470    7.0220  -25.8140 O.3   304  AMP304     -0.1145
      3  O2P        6.6900    6.9400  -25.1320 O.3   304  AMP304     -0.1145
      4  O3P        5.7050    4.9870  -26.4430 O.2   304  AMP304     -0.2224
      5  O5'        5.0520    5.3920  -24.0710 O.3   304  AMP304     -0.2675
      6  C5'        5.6840    4.1620  -23.7100 C.3   304  AMP304      0.1860
      7  C4'        5.3400    3.9030  -22.2450 C.3   304  AMP304      0.1823
      8  O4'        5.6340    5.0110  -21.4100 O.3   304  AMP304     -0.3135
      9  C3'        3.8510    3.6500  -22.1490 C.3   304  AMP304      0.2184
     10  O3'        3.6920    2.6820  -21.1010 O.3   304  AMP304     -0.2174
     11  C2'        3.2360    4.9320  -21.6600 C.3   304  AMP304      0.2570
     12  O2'        2.1140    4.5610  -20.8360 O.3   304  AMP304     -0.2130
     13  C1'        4.3910    5.5510  -20.8790 C.3   304  AMP304      0.3186
     14  N9         4.4550    7.0410  -20.9480 N.pl3 304  AMP304     -0.1439
     15  C8         4.0120    7.9310  -21.8870 C.3   304  AMP304      0.3377
     16  N7         4.2960    9.2100  -21.5360 N.2   304  AMP304     -0.2095
     17  C5         4.9280    9.1330  -20.3360 C.2   304  AMP304      0.2526
     18  C6         5.4980   10.0810  -19.3840 C.2   304  AMP304      0.4393
     19  N6         5.4720   11.4110  -19.6720 N.pl3 304  AMP304      0.2180
     20  N1         6.0540    9.5780  -18.2590 N.2   304  AMP304      0.0021
     21  C2         6.0700    8.2290  -18.0060 C.3   304  AMP304      0.5254
     22  N3         5.6100    7.2850  -18.8350 N.2   304  AMP304     -0.0055
     23  C4         5.0310    7.7130  -19.9780 C.2   304  AMP304      0.3518
@<TRIPOS>BOND
     1     4     1    2
     2     2     1    1
     3     1     3    1
     4     1     5    1
     5     5     6    1
     6     6     7    1
     7     7     9    1
     8     7     8    1
     9     9    11    1
    10     9    10    1
    11    15    16    1
    12    15    14    1
    13    11    13    1
    14    11    12    1
    15    16    17    2
    16     8    13    1
    17    14    13    1
    18    14    23    1
    19    17    23    1
    20    17    18    1
    21    23    22    2
    22    19    18    1
    23    18    20    2
    24    22    21    1
    25    20    21    1
