@<TRIPOS>MOLECULE
3g89_SAM_A_1.pdb
 27 29 0 0 0
SMALL
GASTEIGER

@<TRIPOS>ATOM
      1  N         30.8330   -1.1620  -19.5360 N.3   303  SAM303     -0.1208
      2  CA        31.6940   -1.0920  -20.7240 C.3   303  SAM303      0.1952
      3  C         32.8690   -0.1730  -20.4680 C.2   303  SAM303      0.3819
      4  O         33.8780   -0.2500  -21.1620 O.co2 303  SAM303     -0.2441
      5  OXT       32.7580    0.7120  -19.5890 O.co2 303  SAM303     -0.2441
      6  CB        30.9440   -0.6730  -21.9910 C.3   303  SAM303      0.0414
      7  CG        30.4930    0.7820  -22.0040 C.3   303  SAM303      0.0503
      8  SD        29.4890    0.9780  -23.5340 S.3   303  SAM303     -0.1761
      9  CE        29.6030    2.7870  -23.6300 C.3   303  SAM303      0.0590
     10  C5'       27.8580    0.5800  -22.9140 C.3   303  SAM303      0.0806
     11  C4'       27.4390   -0.8650  -23.2570 C.3   303  SAM303      0.1622
     12  O4'       26.2180   -1.0570  -22.6620 O.3   303  SAM303     -0.3153
     13  C3'       27.2470   -1.1100  -24.7730 C.3   303  SAM303      0.2168
     14  O3'       28.0720   -2.1810  -25.2060 O.3   303  SAM303     -0.2175
     15  C2'       25.7470   -1.3080  -24.8780 C.3   303  SAM303      0.2569
     16  O2'       25.3590   -2.2940  -25.8460 O.3   303  SAM303     -0.2130
     17  C1'       25.3510   -1.8170  -23.5050 C.3   303  SAM303      0.3185
     18  N9        24.0130   -1.5450  -23.0920 N.pl3 303  SAM303     -0.1439
     19  C8        23.4150   -0.3020  -22.9620 C.3   303  SAM303      0.3377
     20  N7        22.1560   -0.4130  -22.5430 N.2   303  SAM303     -0.2095
     21  C5        21.9520   -1.7560  -22.3320 C.2   303  SAM303      0.2526
     22  C6        20.7910   -2.4440  -21.9210 C.2   303  SAM303      0.4393
     23  N6        19.6660   -1.8250  -21.5460 N.pl3 303  SAM303      0.2180
     24  N1        20.8950   -3.8220  -21.8270 N.2   303  SAM303      0.0021
     25  C2        22.0680   -4.4520  -22.1580 C.3   303  SAM303      0.5254
     26  N3        23.1960   -3.8060  -22.6070 N.2   303  SAM303     -0.0055
     27  C4        23.1020   -2.4500  -22.6920 C.2   303  SAM303      0.3518
@<TRIPOS>BOND
     1    16    15    1
     2    14    13    1
     3    15    13    1
     4    15    17    1
     5    13    11    1
     6     9     8    1
     7     8    10    1
     8     8     7    1
     9    17    18    1
    10    17    12    1
    11    11    10    1
    12    11    12    1
    13    18    19    1
    14    18    27    1
    15    19    20    1
    16    27    26    2
    17    27    21    1
    18    26    25    1
    19    20    21    2
    20    21    22    1
    21    25    24    1
    22     7     6    1
    23     6     2    1
    24    22    24    2
    25    22    23    1
    26     4     3   ar
    27     2     3    1
    28     2     1    1
    29     3     5   ar
