@<TRIPOS>MOLECULE
3g8a_SAH_A_1.pdb
 26 28 0 0 0
SMALL
GASTEIGER

@<TRIPOS>ATOM
      1  N         27.1030   12.7520  -17.7950 N.3   303  SAH303     -0.1208
      2  CA        27.9600   13.2470  -18.8650 C.3   303  SAH303      0.1952
      3  CB        27.1870   13.2920  -20.1720 C.3   303  SAH303      0.0422
      4  CG        25.8850   14.0750  -20.0470 C.3   303  SAH303      0.0597
      5  SD        24.8000   13.8280  -21.4760 S.3   303  SAH303     -0.1375
      6  C         28.4450   14.6600  -18.5590 C.2   303  SAH303      0.3819
      7  O         29.4610   15.1070  -19.0990 O.co2 303  SAH303     -0.2441
      8  OXT       27.8270   15.3850  -17.7730 O.co2 303  SAH303     -0.2441
      9  C5'       23.7430   12.6880  -20.5390 C.3   303  SAH303      0.0899
     10  C4'       24.0000   11.2250  -20.8890 C.3   303  SAH303      0.1630
     11  O4'       23.1420   10.3570  -20.1630 O.3   303  SAH303     -0.3153
     12  C3'       23.7690   10.9540  -22.3680 C.3   303  SAH303      0.2168
     13  O3'       24.9790   10.4980  -22.9340 O.3   303  SAH303     -0.2175
     14  C2'       22.7050    9.8720  -22.4190 C.3   303  SAH303      0.2569
     15  O2'       23.0590    8.8900  -23.3630 O.3   303  SAH303     -0.2130
     16  C1'       22.6880    9.3060  -21.0040 C.3   303  SAH303      0.3185
     17  N9        21.3540    8.8160  -20.5580 N.pl3 303  SAH303     -0.1439
     18  C8        20.1750    9.5230  -20.4910 C.3   303  SAH303      0.3377
     19  N7        19.1980    8.7090  -20.0130 N.2   303  SAH303     -0.2095
     20  C5        19.7290    7.4880  -19.7710 C.2   303  SAH303      0.2526
     21  C6        19.1870    6.2960  -19.2810 C.2   303  SAH303      0.4393
     22  N6        17.9010    6.2200  -18.9560 N.pl3 303  SAH303      0.2180
     23  N1        19.9950    5.1880  -19.1330 N.2   303  SAH303      0.0021
     24  C2        21.3310    5.2690  -19.4700 C.3   303  SAH303      0.5254
     25  N3        21.8660    6.4470  -19.9550 N.2   303  SAH303     -0.0055
     26  C4        21.0800    7.5440  -20.1070 C.2   303  SAH303      0.3518
@<TRIPOS>BOND
     1    15    14    1
     2    13    12    1
     3    14    12    1
     4    14    16    1
     5    12    10    1
     6     5     9    1
     7     5     4    1
     8    16    17    1
     9    16    11    1
    10    10     9    1
    11    10    11    1
    12    17    18    1
    13    17    26    1
    14    18    19    1
    15     3     4    1
    16     3     2    1
    17    26    25    2
    18    26    20    1
    19    19    20    2
    20    25    24    1
    21    20    21    1
    22    24    23    1
    23    21    23    2
    24    21    22    1
    25     7     6   ar
    26     2     6    1
    27     2     1    1
    28     6     8   ar
