@<TRIPOS>MOLECULE
3g8b_SAM_A_1.pdb
 27 29 0 0 0
SMALL
GASTEIGER

@<TRIPOS>ATOM
      1  N         34.1260   21.7730  -13.8050 N.3   303  SAM303     -0.1208
      2  CA        33.2650   22.0060  -12.6450 C.3   303  SAM303      0.1952
      3  C         32.4080   23.2490  -12.8480 C.2   303  SAM303      0.3819
      4  O         31.4220   23.4650  -12.1450 O.co2 303  SAM303     -0.2441
      5  OXT       32.6950   24.0680  -13.7210 O.co2 303  SAM303     -0.2441
      6  CB        34.1030   22.1690  -11.3840 C.3   303  SAM303      0.0414
      7  CG        35.0300   23.3770  -11.3930 C.3   303  SAM303      0.0503
      8  SD        36.0960   23.4100   -9.9280 S.3   303  SAM303     -0.1761
      9  CE        36.5060   25.1730   -9.8220 C.3   303  SAM303      0.0590
     10  C5'       37.6250   22.7190  -10.6100 C.3   303  SAM303      0.0806
     11  C4'       37.6650   21.2050  -10.4270 C.3   303  SAM303      0.1622
     12  O4'       38.6560   20.6430  -11.2670 O.3   303  SAM303     -0.3153
     13  C3'       38.0140   20.8340   -8.9920 C.3   303  SAM303      0.2168
     14  O3'       37.0520   19.9340   -8.4980 O.3   303  SAM303     -0.2175
     15  C2'       39.3580   20.1420   -9.0800 C.3   303  SAM303      0.2569
     16  O2'       39.4000   19.0220   -8.2300 O.3   303  SAM303     -0.2130
     17  C1'       39.4320   19.7130  -10.5370 C.3   303  SAM303      0.3185
     18  N9        40.8060   19.6880  -11.0660 N.pl3 303  SAM303     -0.1439
     19  C8        41.6750   20.7400  -11.1690 C.3   303  SAM303      0.3377
     20  N7        42.8270   20.2900  -11.7180 N.2   303  SAM303     -0.2095
     21  C5        42.7030   18.9670  -11.9670 C.2   303  SAM303      0.2526
     22  C6        43.5670   18.0240  -12.5110 C.2   303  SAM303      0.4393
     23  N6        44.7880   18.3760  -12.9090 N.pl3 303  SAM303      0.2180
     24  N1        43.1460   16.7190  -12.6430 N.2   303  SAM303      0.0021
     25  C2        41.8810   16.3500  -12.2350 C.3   303  SAM303      0.5254
     26  N3        41.0290   17.2920  -11.6940 N.2   303  SAM303     -0.0055
     27  C4        41.4350   18.5780  -11.5630 C.2   303  SAM303      0.3518
@<TRIPOS>BOND
     1     1     2    1
     2     5     3   ar
     3    23    22    1
     4     3     2    1
     5     3     4   ar
     6     2     6    1
     7    24    22    2
     8    24    25    1
     9    22    21    1
    10    25    26    1
    11    21    20    2
    12    21    27    1
    13    20    19    1
    14    26    27    2
    15    27    18    1
    16     7     6    1
    17     7     8    1
    18    12    17    1
    19    12    11    1
    20    19    18    1
    21    18    17    1
    22    10    11    1
    23    10     8    1
    24    17    15    1
    25    11    13    1
    26     8     9    1
    27    15    13    1
    28    15    16    1
    29    13    14    1
