@<TRIPOS>MOLECULE
3g8c_ADP_A_1.pdb
 27 29 0 0 0
SMALL
GASTEIGER

@<TRIPOS>ATOM
      1  PB        33.6440   -3.7020   -2.2230 P.3   1000  ADP1000     0.5373
      2  O1B       34.4590   -2.7720   -3.0980 O.2   1000  ADP1000    -0.2221
      3  O2B       32.7890   -4.6910   -2.9870 O.3   1000  ADP1000    -0.1143
      4  O3B       34.4190   -4.3160   -1.0770 O.3   1000  ADP1000    -0.1143
      5  PA        32.5820   -1.2230   -1.1450 P.3   1000  ADP1000     0.2231
      6  O1A       32.0860   -1.0460    0.2690 O.3   1000  ADP1000    -0.4370
      7  O2A       33.9000   -0.6030   -1.5410 O.2   1000  ADP1000    -0.5169
      8  O3A       32.5200   -2.8040   -1.4820 O.3   1000  ADP1000    -0.2261
      9  O5'       31.4420   -0.6550   -2.1270 O.3   1000  ADP1000    -0.3111
     10  C5'       31.6550   -0.6870   -3.5360 C.3   1000  ADP1000     0.1813
     11  C4'       30.5560    0.0900   -4.2450 C.3   1000  ADP1000     0.1821
     12  O4'       29.2630   -0.3010   -3.7570 O.3   1000  ADP1000    -0.3135
     13  C3'       30.6470    1.5920   -4.0100 C.3   1000  ADP1000     0.2184
     14  O3'       31.5430    2.2640   -4.9070 O.3   1000  ADP1000    -0.2174
     15  C2'       29.2100    2.0130   -4.2080 C.3   1000  ADP1000     0.2570
     16  O2'       28.9410    2.1390   -5.6080 O.3   1000  ADP1000    -0.2130
     17  C1'       28.4090    0.8470   -3.6490 C.3   1000  ADP1000     0.3186
     18  N9        28.0620    1.1370   -2.2290 N.pl3 1000  ADP1000    -0.1439
     19  C8        28.7470    0.7190   -1.1420 C.3   1000  ADP1000     0.3377
     20  N7        28.1780    1.1620    0.0070 N.2   1000  ADP1000    -0.2095
     21  C5        27.0940    1.8840   -0.3330 C.2   1000  ADP1000     0.2526
     22  C6        26.0400    2.6420    0.3930 C.2   1000  ADP1000     0.4393
     23  N6        26.0350    2.7090    1.7450 N.pl3 1000  ADP1000     0.2180
     24  N1        25.0860    3.2640   -0.3410 N.2   1000  ADP1000     0.0021
     25  C2        25.0780    3.2060   -1.6890 C.3   1000  ADP1000     0.5254
     26  N3        26.0020    2.5410   -2.4100 N.2   1000  ADP1000    -0.0055
     27  C4        27.0200    1.8700   -1.8080 C.2   1000  ADP1000     0.3518
@<TRIPOS>BOND
     1    16    15    1
     2    14    13    1
     3    11    13    1
     4    11    12    1
     5    11    10    1
     6    15    13    1
     7    15    17    1
     8    12    17    1
     9    17    18    1
    10    10     9    1
    11     2     1    2
    12     3     1    1
    13    26    27    2
    14    26    25    1
    15    18    27    1
    16    18    19    1
    17     1     8    1
    18     1     4    1
    19     9     5    1
    20    27    21    1
    21    25    24    1
    22     7     5    2
    23     8     5    1
    24     5     6    1
    25    19    20    1
    26    24    22    2
    27    21    20    2
    28    21    22    1
    29    22    23    1
