@<TRIPOS>MOLECULE
3g8c_BTN_A_1.pdb
 16 17 0 0 0
SMALL
GASTEIGER

@<TRIPOS>ATOM
      1  C11       42.5270  -11.8120  -11.1690 C.2   1004  BTN1004     0.3649
      2  O11       41.6230  -12.4020  -10.5340 O.co2 1004  BTN1004    -0.2457
      3  O12       42.7240  -12.1160  -12.3710 O.co2 1004  BTN1004    -0.2457
      4  C10       43.3690  -10.7630  -10.4700 C.3   1004  BTN1004     0.1141
      5  C9        42.7760   -9.3670  -10.6270 C.3   1004  BTN1004     0.0118
      6  C8        41.3790   -9.2910  -10.0130 C.3   1004  BTN1004     0.0015
      7  C7        40.8340   -7.8670  -10.0140 C.3   1004  BTN1004     0.0129
      8  C2        41.2360   -7.1110   -8.7530 C.3   1004  BTN1004     0.0729
      9  S1        40.2270   -7.4700   -7.4580 S.3   1004  BTN1004    -0.1369
     10  C6        40.8270   -5.9880   -6.6110 C.3   1004  BTN1004     0.0848
     11  C5        40.9900   -4.9050   -7.6560 C.3   1004  BTN1004     0.1509
     12  N1        39.7380   -4.2040   -7.8610 N.2   1004  BTN1004    -0.1859
     13  C3        39.3240   -4.3160   -9.1210 C.1   1004  BTN1004     0.2386
     14  O3        38.2190   -3.6220   -9.6540 O.2   1004  BTN1004    -0.2023
     15  N2        40.1030   -5.1540   -9.8010 N.2   1004  BTN1004    -0.1860
     16  C4        41.2220   -5.6050   -8.9870 C.3   1004  BTN1004     0.1500
@<TRIPOS>BOND
     1     3     1   ar
     2     1     2   ar
     3     1     4    1
     4     5     4    1
     5     5     6    1
     6     7     6    1
     7     7     8    1
     8    15    13    2
     9    15    16    1
    10    14    13    2
    11    13    12    2
    12    16     8    1
    13    16    11    1
    14     8     9    1
    15    12    11    1
    16    11    10    1
    17     9    10    1
