@<TRIPOS>MOLECULE
3g8d_ADP_B_1.pdb
 27 29 0 0 0
SMALL
GASTEIGER

@<TRIPOS>ATOM
      1  PB        31.6020   23.6210   18.3540 P.3   1001  ADP1001     0.5373
      2  O1B       30.4270   23.3410   19.2520 O.3   1001  ADP1001    -0.1143
      3  O2B       32.3360   22.3930   17.8840 O.3   1001  ADP1001    -0.1143
      4  O3B       31.3050   24.6160   17.2540 O.2   1001  ADP1001    -0.2221
      5  PA        32.6590   24.6740   20.8250 P.3   1001  ADP1001     0.2231
      6  O1A       32.8840   26.1550   21.0350 O.2   1001  ADP1001    -0.5169
      7  O2A       31.4930   23.9640   21.4750 O.3   1001  ADP1001    -0.4370
      8  O3A       32.7040   24.4170   19.2280 O.3   1001  ADP1001    -0.2261
      9  O5'       33.9870   23.9060   21.2770 O.3   1001  ADP1001    -0.3111
     10  C5'       34.0980   22.5000   21.1140 C.3   1001  ADP1001     0.1813
     11  C4'       35.2100   22.0430   22.0320 C.3   1001  ADP1001     0.1821
     12  O4'       36.4330   22.6460   21.6090 O.3   1001  ADP1001    -0.3135
     13  C3'       35.0290   22.5060   23.4720 C.3   1001  ADP1001     0.2184
     14  O3'       34.2370   21.6180   24.2470 O.3   1001  ADP1001    -0.2174
     15  C2'       36.4510   22.5280   23.9670 C.3   1001  ADP1001     0.2570
     16  O2'       36.9300   21.1950   24.1870 O.3   1001  ADP1001    -0.2130
     17  C1'       37.1810   23.0550   22.7560 C.3   1001  ADP1001     0.3186
     18  N9        37.2960   24.5340   22.8490 N.pl3 1001  ADP1001    -0.1439
     19  C8        36.5660   25.4620   22.1990 C.3   1001  ADP1001     0.3377
     20  N7        36.9640   26.7170   22.5310 N.2   1001  ADP1001    -0.2095
     21  C5        37.9720   26.5900   23.4070 C.2   1001  ADP1001     0.2526
     22  C6        38.8550   27.5070   24.1560 C.2   1001  ADP1001     0.4393
     23  N6        38.7300   28.8510   24.0250 N.pl3 1001  ADP1001     0.2180
     24  N1        39.7770   26.9440   24.9760 N.2   1001  ADP1001     0.0021
     25  C2        39.9110   25.6130   25.1230 C.3   1001  ADP1001     0.5254
     26  N3        39.1490   24.7190   24.4720 N.2   1001  ADP1001    -0.0055
     27  C4        38.1840   25.1470   23.6180 C.2   1001  ADP1001     0.3518
@<TRIPOS>BOND
     1     4     1    2
     2     3     1    1
     3     1     8    1
     4     1     2    1
     5     8     5    1
     6     5     6    2
     7     5     9    1
     8     5     7    1
     9    10     9    1
    10    10    11    1
    11    12    11    1
    12    12    17    1
    13    11    13    1
    14    19    20    1
    15    19    18    1
    16    20    21    2
    17    17    18    1
    18    17    15    1
    19    18    27    1
    20    21    27    1
    21    21    22    1
    22    13    15    1
    23    13    14    1
    24    27    26    2
    25    15    16    1
    26    23    22    1
    27    22    24    2
    28    26    25    1
    29    24    25    1
