@<TRIPOS>MOLECULE
3g8e_IS1_A_1.pdb
 38 41 0 0 0
SMALL
GASTEIGER

@<TRIPOS>ATOM
      1  CAM       44.6400   -3.5970  -10.7760 C.ar  501  IS1501      0.0045
      2  CAI       44.4400   -3.4380   -9.4100 C.ar  501  IS1501      0.0001
      3  CAH       45.1820   -2.5030   -8.6970 C.ar  501  IS1501      0.0000
      4  CAJ       46.1250   -1.7310   -9.3630 C.ar  501  IS1501      0.0001
      5  CAN       46.3260   -1.8940  -10.7280 C.ar  501  IS1501      0.0045
      6  CBE       45.5840   -2.8250  -11.4410 C.ar  501  IS1501      0.0536
      7  CBC       45.7900   -2.9590  -12.9520 C.2   501  IS1501      0.2490
      8  OAB       46.9000   -3.2330  -13.3990 O.2   501  IS1501     -0.2699
      9  NBK       44.7810   -2.7740  -13.7920 N.am  501  IS1501     -0.2761
     10  CAY       45.0280   -2.8730  -15.2500 C.3   501  IS1501      0.0937
     11  CAW       43.8380   -3.4910  -15.9930 C.3   501  IS1501      0.0216
     12  CAX       43.4610   -2.4200  -13.2200 C.3   501  IS1501      0.0937
     13  CAV       42.3230   -3.0650  -14.0070 C.3   501  IS1501      0.0216
     14  CBF       42.8080   -4.0970  -15.0380 C.3   501  IS1501      0.0034
     15  CAU       41.5910   -4.6250  -15.7990 C.3   501  IS1501      0.0002
     16  CAS       41.0340   -5.7060  -14.8710 C.3   501  IS1501      0.0018
     17  CAR       39.6080   -6.1050  -15.2360 C.3   501  IS1501      0.0234
     18  CAT       39.5820   -7.3920  -16.0590 C.3   501  IS1501      0.1155
     19  NAZ       38.1660   -7.7270  -16.2270 N.am  501  IS1501     -0.2017
     20  CBB       37.4670   -8.2690  -15.2300 C.2   501  IS1501      0.2649
     21  OAA       37.9360   -8.5840  -14.1450 O.2   501  IS1501     -0.2684
     22  CAF       36.1280   -8.5150  -15.5180 C.2   501  IS1501      0.0592
     23  CAG       35.3510   -9.1820  -14.5880 C.2   501  IS1501      0.0021
     24  CBD       34.0150   -9.4190  -14.8960 C.2   501  IS1501     -0.0022
     25  CAP       33.2120   -9.9920  -13.9310 C.3   501  IS1501      0.1198
     26  CAL       33.4480   -9.0140  -16.1010 C.2   501  IS1501     -0.0013
     27  CAK       32.0950   -9.1830  -16.3740 C.2   501  IS1501      0.0156
     28  CAO       31.2810   -9.7460  -15.4000 C.2   501  IS1501      0.0633
     29  NBL       31.8480  -10.1240  -14.1860 N.pl3 501  IS1501     -0.2788
     30  C1'       31.0100  -10.3370  -12.9910 C.3   501  IS1501      0.2263
     31  O4'       29.6040  -10.0600  -13.0730 O.3   501  IS1501     -0.3326
     32  C4'       29.1930   -9.8840  -11.8200 C.3   501  IS1501      0.1828
     33  C5'       28.1080   -8.7500  -11.7390 C.3   501  IS1501      0.2142
     34  O5'       27.4220   -8.8430  -10.4830 O.3   501  IS1501     -0.2176
     35  C3'       30.4280  -10.1450  -10.9090 C.3   501  IS1501      0.2159
     36  O3'       30.5370  -11.1930   -9.9940 O.3   501  IS1501     -0.2175
     37  C2'       31.3710   -9.4110  -11.8460 C.3   501  IS1501      0.2309
     38  O2'       32.7460   -9.4970  -11.4470 O.3   501  IS1501     -0.2158
@<TRIPOS>BOND
     1    27    26    1
     2    27    28    2
     3    19    18    1
     4    19    20   am
     5    26    24    2
     6    18    17    1
     7    11    10    1
     8    11    14    1
     9    15    14    1
    10    15    16    1
    11    22    20    1
    12    22    23    2
    13    28    29    1
    14    10     9    1
    15    17    16    1
    16    20    21    2
    17    14    13    1
    18    24    23    1
    19    24    25    1
    20    29    25    1
    21    29    30    1
    22    13    12    1
    23     9    12    1
    24     9     7   am
    25     8     7    2
    26    31    30    1
    27    31    32    1
    28    30    37    1
    29     7     6    1
    30    37    38    1
    31    37    35    1
    32    32    33    1
    33    32    35    1
    34    33    34    1
    35     6     1   ar
    36     6     5   ar
    37    35    36    1
    38     1     2   ar
    39     5     4   ar
    40     2     3   ar
    41     4     3   ar
