@<TRIPOS>MOLECULE
3g8f_III_B_1.pdb
 40 40 0 0 0
SMALL
GASTEIGER

@<TRIPOS>ATOM
      1  C1         7.0080   22.3640  -10.3260 C.2   134  PHQ134      0.4218
      2  O1         6.6140   23.0960   -9.4300 O.2   134  PHQ134     -0.2245
      3  O2         6.3100   21.1110  -10.4790 O.3   134  PHQ134     -0.4285
      4  C2         6.5840   20.1040  -11.4260 C.3   134  PHQ134      0.2368
      5  C3         5.6300   18.9640  -11.2460 C.ar  134  PHQ134      0.0213
      6  C4         4.6120   18.9310  -10.2630 C.ar  134  PHQ134     -0.0007
      7  C5         3.7480   17.8100  -10.1580 C.ar  134  PHQ134     -0.0002
      8  C6         3.8540   16.6850  -11.0030 C.ar  134  PHQ134     -0.0000
      9  C7         4.8610   16.7080  -11.9820 C.ar  134  PHQ134     -0.0002
     10  C8         5.7350   17.8260  -12.1000 C.ar  134  PHQ134     -0.0007
     11  N          8.1130   22.4540  -11.2500 N.am  135  VAL135     -0.1611
     12  CA         8.3740   23.2960  -12.4250 C.3   135  VAL135      0.1760
     13  C          9.5420   24.2840  -12.6800 C.2   135  VAL135      0.2617
     14  O         10.5580   23.9180  -13.2620 O.2   135  VAL135     -0.2715
     15  CB         7.2180   23.1380  -13.4750 C.3   135  VAL135      0.0291
     16  CG1        7.4470   24.0340  -14.6390 C.3   135  VAL135      0.0023
     17  CG2        7.1790   21.6890  -13.9940 C.3   135  VAL135      0.0023
     18  N          9.5660   25.4580  -12.0410 N.am  136  ALA136     -0.1963
     19  CA        10.4890   26.6160  -12.2010 C.3   136  ALA136      0.1728
     20  C         10.8320   27.4040  -10.8470 C.2   136  ALA136      0.2616
     21  O          9.9830   27.6030   -9.9420 O.2   136  ALA136     -0.2715
     22  CB         9.7500   27.5490  -13.2100 C.3   136  ALA136      0.0334
     23  N         12.0800   27.8900  -10.7700 N.am  137  ARG137     -0.1963
     24  CA        12.6120   28.6390   -9.6240 C.3   137  ARG137      0.1729
     25  C         12.6800   27.9190   -8.2810 C.2   137  ARG137      0.2617
     26  O         13.5460   28.1940   -7.4290 O.2   137  ARG137     -0.2715
     27  CB        11.6780   29.8000   -9.2300 C.3   137  ARG137      0.0348
     28  CG        12.3030   30.8160   -8.2920 C.3   137  ARG137      0.0492
     29  CD        13.4600   31.5820   -8.9420 C.3   137  ARG137      0.2205
     30  NE        13.4170   33.0170   -8.6570 N.pl3 137  ARG137     -0.0865
     31  CZ        14.4490   33.8420   -8.8130 C.cat 137  ARG137      0.5346
     32  NH1       15.6140   33.3750   -9.2410 N.pl3 137  ARG137      0.1354
     33  NH2       14.3160   35.1380   -8.5710 N.pl3 137  ARG137      0.1354
     34  N         11.7880   26.9580   -8.1110 N.am  138  SER138     -0.1914
     35  CA        11.4940   26.3530   -6.8320 C.3   138  SER138      0.2304
     36  C         10.0320   26.0330   -6.4820 C.2   138  SER138      0.3869
     37  O          9.7580   25.6610   -5.3310 O.co2 138  SER138     -0.2437
     38  CB        12.4040   26.6620   -5.6230 C.3   138  SER138      0.2152
     39  OG        11.6690   26.4810   -4.4480 O.3   138  SER138     -0.2179
     40  OXT        9.1780   26.1370   -7.3880 O.co2 138  SER138     -0.2437
@<TRIPOS>BOND
     1    16    15    1
     2    17    15    1
     3    15    12    1
     4    14    13    2
     5    22    19    1
     6    13    12    1
     7    13    18   am
     8    12    11    1
     9    19    18    1
    10    19    20    1
    11    10     9   ar
    12    10     5   ar
    13     9     8   ar
    14     4     5    1
    15     4     3    1
    16    11     1   am
    17     5     6   ar
    18     8     7   ar
    19    20    23   am
    20    20    21    2
    21    23    24    1
    22     3     1    1
    23     1     2    2
    24     6     7   ar
    25    24    27    1
    26    24    25    1
    27    32    31    1
    28    27    28    1
    29    29    30    1
    30    29    28    1
    31    31    30    2
    32    31    33    1
    33    25    34   am
    34    25    26    2
    35    34    35    1
    36    40    36   ar
    37    35    36    1
    38    35    38    1
    39    36    37   ar
    40    38    39    1
