@<TRIPOS>MOLECULE
3g8i_RO7_A_1.pdb
 31 34 0 0 0
SMALL
GASTEIGER

@<TRIPOS>ATOM
      1  C25       45.5950   33.3750   37.1100 C.3     1  RO71        0.0549
      2  C7        46.7530   32.4120   37.1250 C.3     1  RO71        0.2161
      3  O3        47.7480   32.5800   38.0350 O.2     1  RO71       -0.4486
      4  C2        48.6300   31.5530   37.7480 C.2     1  RO71        0.2771
      5  C16       49.8280   31.1940   38.3710 C.ar    1  RO71        0.0660
      6  C26       50.5750   30.0860   37.9470 C.ar    1  RO71        0.0058
      7  C29       51.7760   29.7400   38.5810 C.ar    1  RO71        0.0002
      8  C31       52.2240   30.5280   39.6630 C.ar    1  RO71        0.0000
      9  C30       51.4860   31.6320   40.0920 C.ar    1  RO71        0.0002
     10  C27       50.2900   31.9670   39.4470 C.ar    1  RO71        0.0058
     11  N1        48.2380   30.7570   36.7070 N.2     1  RO71       -0.3728
     12  C4        47.0720   31.2530   36.2680 C.2     1  RO71        0.1336
     13  C20       46.1820   30.7880   35.1620 C.3     1  RO71        0.1055
     14  C23       46.4810   31.5270   33.8790 C.3     1  RO71        0.2126
     15  O22       45.6220   32.6470   33.8060 O.3     1  RO71       -0.4750
     16  C13       45.8420   33.6110   32.8740 C.ar    1  RO71        0.1389
     17  C19       46.6850   33.4120   31.7720 C.ar    1  RO71        0.0366
     18  C17       46.8820   34.4300   30.8210 C.ar    1  RO71       -0.0006
     19  C5        45.1200   34.8690   33.0480 C.ar    1  RO71        0.0402
     20  C15       44.2050   35.1840   34.1210 C.ar    1  RO71        0.0105
     21  C12       43.7710   36.4980   33.8890 C.ar    1  RO71        0.0355
     22  C6        45.3020   35.9310   32.0820 C.ar    1  RO71        0.0285
     23  S9        44.4160   37.2470   32.4990 S.2     1  RO71       -0.0866
     24  C8        46.2250   35.6790   30.9340 C.ar    1  RO71       -0.0130
     25  C11       46.5010   36.7250   29.8760 C.3     1  RO71        0.0681
     26  C14       47.7790   37.4680   30.2810 C.3     1  RO71        0.2221
     27  O24       47.4970   38.3590   31.3810 O.3     1  RO71       -0.3421
     28  C28       48.6880   39.0080   31.8670 C.3     1  RO71        0.1748
     29  C10       48.3050   38.1990   29.0840 C.2     1  RO71        0.3917
     30  O21       49.0280   37.5890   28.2940 O.co2   1  RO71       -0.2429
     31  O18       47.9770   39.3710   28.8980 O.co2   1  RO71       -0.2429
@<TRIPOS>BOND
     1    30    29   ar
     2    31    29   ar
     3    29    26    1
     4    25    26    1
     5    25    24    1
     6    26    27    1
     7    18    24   ar
     8    18    17   ar
     9    24    22   ar
    10    27    28    1
    11    17    16   ar
    12    22    23   ar
    13    22    19   ar
    14    23    21   ar
    15    16    19   ar
    16    16    15    1
    17    19    20   ar
    18    15    14    1
    19    14    13    1
    20    21    20   ar
    21    13    12    1
    22    12    11    2
    23    12     2    1
    24    11     4    2
    25     1     2    1
    26     2     3    1
    27     4     3    1
    28     4     5    1
    29     6     5   ar
    30     6     7   ar
    31     5    10   ar
    32     7     8   ar
    33    10     9   ar
    34     8     9   ar
