@<TRIPOS>MOLECULE
3g8m_PLP_A_1.pdb
 15 15 0 0 0
SMALL
GASTEIGER

@<TRIPOS>ATOM
      1  N1       -34.8660   24.7190    7.5040 N.2   418  PLP418     -0.2505
      2  C2       -35.1090   24.1000    6.2890 C.2   418  PLP418      0.0675
      3  C2A      -36.5240   23.7940    5.8870 C.3   418  PLP418      0.0499
      4  C3       -34.0410   23.7690    5.4490 C.3   418  PLP418      0.1913
      5  O3       -34.2750   23.1560    4.2410 O.3   418  PLP418     -0.2167
      6  C4       -32.7310   24.0650    5.8360 C.3   418  PLP418      0.0581
      7  C4A      -31.6550   24.0630    4.7850 C.3   418  PLP418      0.0075
      8  C5       -32.4990   24.6870    7.0680 C.2   418  PLP418      0.0073
      9  C6       -33.5720   25.0130    7.8960 C.2   418  PLP418      0.0921
     10  C5A      -31.0890   25.0180    7.5170 C.3   418  PLP418      0.1776
     11  O4P      -30.7150   24.2440    8.6400 O.3   418  PLP418     -0.2656
     12  P        -30.7170   22.6300    8.6300 P.3   418  PLP418      0.5329
     13  O1P      -30.5070   22.1260    7.2200 O.2   418  PLP418     -0.2224
     14  O2P      -32.0460   22.1390    9.1470 O.3   418  PLP418     -0.1145
     15  O3P      -29.6110   22.1150    9.5210 O.3   418  PLP418     -0.1145
@<TRIPOS>BOND
     1     5     4    1
     2     7     6    1
     3     4     6    1
     4     4     2    1
     5     6     8    1
     6     3     2    1
     7     2     1    2
     8     8    10    1
     9     8     9    2
    10    13    12    2
    11     1     9    1
    12    10    11    1
    13    12    11    1
    14    12    14    1
    15    12    15    1
