@<TRIPOS>MOLECULE
3g8o_30X_A_1.pdb
 25 25 0 0 0
SMALL
GASTEIGER

@<TRIPOS>ATOM
      1  C10       -3.9950   -7.4150   26.4570 C.ar    1  30X1        0.0152
      2  C13       -3.7480   -9.8240   29.3570 C.1     1  30X1        0.1004
      3  C15       -2.1880   -9.4800   27.3460 C.ar    1  30X1        0.0822
      4  C16       -1.9400   -8.7520   26.1500 C.ar    1  30X1        0.0191
      5  C17       -1.1540  -10.5800   27.7410 C.3     1  30X1        0.4192
      6  C24       -3.7970   -5.2590   20.6200 C.3     1  30X1        0.1150
      7  C25       -4.8770   -6.6730   22.4470 C.3     1  30X1        0.1150
      8  C1        -2.0080   -4.6930   25.2740 C.3     1  30X1        0.0314
      9  C2        -2.9840   -5.5600   24.4390 C.3     1  30X1        0.1502
     10  N3        -2.5310   -6.9980   24.4150 N.pl3   1  30X1       -0.2942
     11  C4        -1.0750   -7.1030   24.0600 C.3     1  30X1        0.1956
     12  C5        -0.8690   -8.0270   22.8410 C.3     1  30X1        0.4156
     13  F6        -1.6980   -7.6830   21.8710 F       1  30X1       -0.1682
     14  F7         0.3860   -7.9070   22.4100 F       1  30X1       -0.1682
     15  F8        -1.1090   -9.2930   23.1740 F       1  30X1       -0.1682
     16  C9        -2.8250   -7.7150   25.6830 C.ar    1  30X1        0.0483
     17  C11       -4.2650   -8.1240   27.6570 C.ar    1  30X1        0.0115
     18  C12       -3.3900   -9.1510   28.1190 C.ar    1  30X1        0.0724
     19  N14       -4.0370  -10.3590   30.3370 N.1     1  30X1       -0.1908
     20  F18       -0.7140  -11.1890   26.6510 F       1  30X1       -0.1658
     21  F19       -1.6750  -11.5230   28.5170 F       1  30X1       -0.1658
     22  F20       -0.1210  -10.0170   28.3500 F       1  30X1       -0.1658
     23  C21       -3.0460   -5.0620   22.9740 C.2     1  30X1        0.2438
     24  O22       -2.3330   -4.1130   22.6290 O.2     1  30X1       -0.2731
     25  N23       -3.8770   -5.6470   22.0510 N.am    1  30X1       -0.2747
@<TRIPOS>BOND
     1     6    25    1
     2    13    12    1
     3    25     7    1
     4    25    23   am
     5    14    12    1
     6    24    23    2
     7    12    15    1
     8    12    11    1
     9    23     9    1
    10    11    10    1
    11    10     9    1
    12    10    16    1
    13     9     8    1
    14    16     4   ar
    15    16     1   ar
    16     4     3   ar
    17     1    17   ar
    18    20     5    1
    19     3     5    1
    20     3    18   ar
    21    17    18   ar
    22     5    22    1
    23     5    21    1
    24    18     2    1
    25     2    19    3
