@<TRIPOS>MOLECULE
3g90_J72_X_1.pdb
 25 28 0 0 0
SMALL
GASTEIGER

@<TRIPOS>ATOM
      1  O1        17.5090    8.2080   33.6570 O.2     1  J721       -0.1430
      2  N2        18.0150    7.1540   32.8760 N.2     1  J721       -0.0247
      3  C3        19.1420    7.2980   32.2410 C.2     1  J721        0.1789
      4  C4        19.7520    6.2560   31.3970 C.2     1  J721        0.2741
      5  O5        19.2880    5.1520   31.1940 O.2     1  J721       -0.2678
      6  N6        20.8890    6.7470   30.8990 N.am    1  J721       -0.2494
      7  C7        21.7540    5.9940   29.9990 C.3     1  J721        0.1281
      8  C8        22.6890    5.1150   30.7820 C.ar    1  J721        0.0341
      9  C9        22.2080    4.1770   31.6910 C.ar    1  J721        0.0300
     10  C10       23.0960    3.3710   32.3870 C.ar    1  J721        0.1398
     11  F11       22.6280    2.4550   33.2630 F       1  J721       -0.2042
     12  C12       24.4620    3.5030   32.1870 C.ar    1  J721        0.0308
     13  C13       24.9380    4.4370   31.2860 C.ar    1  J721        0.0434
     14  C14       26.4170    4.5830   31.0720 C.3     1  J721        0.1756
     15  O15       26.6690    5.4070   29.9220 O.3     1  J721       -0.3108
     16  C16       25.8790    6.5990   29.8420 C.3     1  J721        0.3612
     17  O17       24.5180    6.1770   29.6950 O.3     1  J721       -0.4485
     18  C18       24.0570    5.2470   30.5790 C.ar    1  J721        0.1375
     19  C19       21.1260    8.0530   31.3200 C.ar    1  J721        0.0563
     20  C20       22.1780    8.9300   31.0400 C.ar    1  J721        0.0173
     21  C21       22.1940   10.2020   31.5840 C.ar    1  J721        0.0309
     22  C22       21.1500   10.6020   32.4120 C.ar    1  J721        0.1403
     23  F23       21.1610   11.8420   32.9320 F       1  J721       -0.2042
     24  C24       20.0930    9.7450   32.6990 C.ar    1  J721        0.0326
     25  C25       20.0790    8.4570   32.1560 C.ar    1  J721        0.0414
@<TRIPOS>BOND
     1    17    16    1
     2    17    18    1
     3    16    15    1
     4    15    14    1
     5     7     8    1
     6     7     6    1
     7    18     8   ar
     8    18    13   ar
     9     8     9   ar
    10     6    19    1
    11     6     4   am
    12    20    19   ar
    13    20    21   ar
    14    14    13    1
    15     5     4    2
    16    13    12   ar
    17    19    25   ar
    18     4     3    1
    19    21    22   ar
    20     9    10   ar
    21    25     3    1
    22    25    24   ar
    23    12    10   ar
    24     3     2    2
    25    10    11    1
    26    22    24   ar
    27    22    23    1
    28     2     1    1
