@<TRIPOS>MOLECULE
3g93_HEM_A_1.pdb
 43 50 0 0 0
SMALL
GASTEIGER

@<TRIPOS>ATOM
      1  CHA       38.8240    7.1850   37.6940 C.2   500  HEM500      0.0000
      2  CHB       41.5710    6.6320   33.9610 C.2   500  HEM500      0.0000
      3  CHC       38.2950    7.9810   30.9090 C.2   500  HEM500      0.0000
      4  CHD       35.3750    8.3100   34.6310 C.2   500  HEM500      0.0000
      5  C1A       39.8520    6.9440   36.8640 C.ar  500  HEM500      0.0000
      6  C2A       41.1450    6.5300   37.3160 C.ar  500  HEM500      0.0000
      7  C3A       41.8760    6.3760   36.2790 C.ar  500  HEM500      0.0000
      8  C4A       41.0750    6.6990   35.1680 C.ar  500  HEM500      0.0000
      9  CMA       43.3360    5.9500   36.2560 C.3   500  HEM500      0.0000
     10  CAA       41.6100    6.3030   38.7430 C.3   500  HEM500      0.0000
     11  CBA       41.0590    5.0140   39.2540 C.3   500  HEM500      0.0000
     12  CGA       41.9030    4.6590   40.4030 C.2   500  HEM500      0.0000
     13  O1A       41.9240    5.4040   41.3680 O.co2 500  HEM500      0.0000
     14  O2A       42.5560    3.6230   40.3590 O.co2 500  HEM500      0.0000
     15  C1B       40.8730    6.9490   32.8880 C.2   500  HEM500      0.0000
     16  C2B       41.4720    6.7980   31.6250 C.2   500  HEM500      0.0000
     17  C3B       40.6360    7.1530   30.7420 C.2   500  HEM500      0.0000
     18  C4B       39.4350    7.5330   31.4450 C.2   500  HEM500      0.0000
     19  CMB       42.8780    6.3020   31.3410 C.3   500  HEM500      0.0000
     20  CAB       41.0720    7.0760   29.2830 C.2   500  HEM500      0.0000
     21  CBB       40.2840    7.4040   28.2810 C.2   500  HEM500      0.0000
     22  C1C       37.2470    8.1480   31.7410 C.ar  500  HEM500      0.0000
     23  C2C       35.9380    8.4870   31.2880 C.ar  500  HEM500      0.0000
     24  C3C       35.1640    8.5580   32.3010 C.ar  500  HEM500      0.0000
     25  C4C       35.9420    8.2830   33.4410 C.ar  500  HEM500      0.0000
     26  CMC       35.4500    8.7090   29.8730 C.3   500  HEM500      0.0000
     27  CAC       33.6920    8.8960   32.2550 C.2   500  HEM500      0.0000
     28  CBC       32.9700    8.6200   33.3240 C.2   500  HEM500      0.0000
     29  C1D       36.0570    8.0350   35.7460 C.2   500  HEM500      0.0000
     30  C2D       35.4260    8.0530   37.0340 C.2   500  HEM500      0.0000
     31  C3D       36.4940    7.6920   38.0000 C.2   500  HEM500      0.0000
     32  C4D       37.6390    7.5040   37.1780 C.2   500  HEM500      0.0000
     33  CMD       33.9700    8.3640   37.3580 C.3   500  HEM500      0.0000
     34  CAD       36.3070    7.5750   39.5010 C.3   500  HEM500      0.0000
     35  CBD       37.4090    6.7660   40.1230 C.3   500  HEM500      0.0000
     36  CGD       36.9220    6.2600   41.4280 C.2   500  HEM500      0.0000
     37  O1D       35.7950    5.7900   41.4800 O.co2 500  HEM500      0.0000
     38  O2D       37.6630    6.3030   42.4050 O.co2 500  HEM500      0.0000
     39  NA        39.8030    7.0670   35.4880 N.ar  500  HEM500      0.0000
     40  NB        39.5860    7.3930   32.8130 N.2   500  HEM500      0.0000
     41  NC        37.2410    8.0030   33.1200 N.ar  500  HEM500      0.0000
     42  ND        37.3900    7.7000   35.8160 N.2   500  HEM500      0.0000
     43 FE         38.3520    7.3860   34.2640 Fe    500  HEM500      0.0000
@<TRIPOS>BOND
     1    21    20    2
     2    20    17    1
     3    26    23    1
     4    17    18    1
     5    17    16    2
     6     3    18    2
     7     3    22    1
     8    23    22   ar
     9    23    24   ar
    10    19    16    1
    11    18    40    1
    12    16    15    1
    13    22    41   ar
    14    27    24    1
    15    27    28    2
    16    24    25   ar
    17    40    15    2
    18    40    43    1
    19    15     2    1
    20    41    25   ar
    21    41    43    1
    22    25     4    1
    23     2     8    2
    24    43    39    1
    25    43    42    1
    26     4    29    2
    27     8    39   ar
    28     8     7   ar
    29    39     5   ar
    30    29    42    1
    31    29    30    1
    32    42    32    2
    33     9     7    1
    34     7     6   ar
    35     5     6   ar
    36     5     1    2
    37    30    33    1
    38    30    31    2
    39    32     1    1
    40    32    31    1
    41     6    10    1
    42    31    34    1
    43    10    11    1
    44    11    12    1
    45    34    35    1
    46    35    36    1
    47    14    12   ar
    48    12    13   ar
    49    36    37   ar
    50    36    38   ar
