@<TRIPOS>MOLECULE
3g93_PB2_A_1.pdb
 18 20 0 0 0
SMALL
GASTEIGER

@<TRIPOS>ATOM
      1  CDB       45.8260   12.4720   38.9980 C.ar  501  PB2501     -0.0000
      2  CDC       46.6820   12.6010   40.0510 C.ar  501  PB2501      0.0000
      3  CDD       46.2600   13.2720   41.2080 C.ar  501  PB2501      0.0000
      4  CDE       44.9340   13.8100   41.2770 C.ar  501  PB2501      0.0000
      5  CDF       44.0430   13.6700   40.2010 C.ar  501  PB2501     -0.0000
      6  CDA       44.4600   13.0240   39.0870 C.ar  501  PB2501     -0.0000
      7  CCD       43.5180   12.8630   37.9180 C.ar  501  PB2501     -0.0000
      8  CCE       42.6070   13.8390   37.6750 C.ar  501  PB2501     -0.0003
      9  CCF       41.7260   13.7030   36.5890 C.ar  501  PB2501     -0.0024
     10  CCC       43.6300   11.6800   37.0400 C.ar  501  PB2501     -0.0003
     11  CCB       42.7830   11.5610   35.9830 C.ar  501  PB2501     -0.0024
     12  CCA       41.8170   12.5580   35.7380 C.ar  501  PB2501      0.0004
     13  CAA       40.8900   12.4550   34.5390 C.3   501  PB2501      0.1343
     14  NAB       40.0830   11.2600   34.6530 N.ar  501  PB2501     -0.3036
     15  CAF       38.7870   11.2160   34.8210 C.ar  501  PB2501      0.0983
     16  CAE       38.3690    9.8810   34.8540 C.ar  501  PB2501      0.1193
     17  NAD       39.4810    9.1160   34.7030 N.ar  501  PB2501     -0.2223
     18  CAC       40.5440    9.9190   34.5710 C.ar  501  PB2501      0.1789
@<TRIPOS>BOND
     1    13    14    1
     2    13    12    1
     3    18    14   ar
     4    18    17   ar
     5    14    15   ar
     6    17    16   ar
     7    15    16   ar
     8    12    11   ar
     9    12     9   ar
    10    11    10   ar
    11     9     8   ar
    12    10     7   ar
    13     8     7   ar
    14     7     6    1
    15     1     6   ar
    16     1     2   ar
    17     6     5   ar
    18     2     3   ar
    19     5     4   ar
    20     3     4   ar
