@<TRIPOS>MOLECULE
3g9e_RO7_A_1.pdb
 31 34 0 0 0
SMALL
GASTEIGER

@<TRIPOS>ATOM
      1  C25        8.6760   27.4020   16.8050 C.3     1  RO71        0.0549
      2  C7         8.0010   26.0540   16.6370 C.3     1  RO71        0.2161
      3  O3         7.7850   25.6650   15.3460 O.2     1  RO71       -0.4486
      4  C2         7.2280   24.4250   15.4530 C.2     1  RO71        0.2771
      5  C16        6.8410   23.5540   14.2800 C.ar    1  RO71        0.0660
      6  C26        6.1470   22.3510   14.5440 C.ar    1  RO71        0.0058
      7  C29        5.7850   21.5090   13.4830 C.ar    1  RO71        0.0002
      8  C31        6.1150   21.8640   12.1420 C.ar    1  RO71        0.0000
      9  C30        6.8080   23.0710   11.8810 C.ar    1  RO71        0.0002
     10  C27        7.1610   23.9060   12.9700 C.ar    1  RO71        0.0058
     11  N1         7.0920   24.0920   16.7170 N.2     1  RO71       -0.3728
     12  C4         7.5200   25.0790   17.4540 C.2     1  RO71        0.1336
     13  C20        7.3280   24.8050   18.9150 C.3     1  RO71        0.1055
     14  C23        7.3100   25.9360   19.7640 C.3     1  RO71        0.2126
     15  O22        6.4130   26.9610   19.3420 O.3     1  RO71       -0.4750
     16  C13        5.1160   27.2920   19.7290 C.ar    1  RO71        0.1389
     17  C19        4.0430   26.4380   20.0400 C.ar    1  RO71        0.0366
     18  C17        2.7830   26.9990   20.3740 C.ar    1  RO71       -0.0006
     19  C5         4.9770   28.6840   19.7630 C.ar    1  RO71        0.0402
     20  C15        6.0040   29.6560   19.5620 C.ar    1  RO71        0.0105
     21  C12        5.5570   30.9400   19.6120 C.ar    1  RO71        0.0355
     22  C6         3.7380   29.2420   20.0230 C.ar    1  RO71        0.0285
     23  S9         3.8430   30.9980   19.8180 S.2     1  RO71       -0.0866
     24  C8         2.6360   28.3910   20.4070 C.ar    1  RO71       -0.0130
     25  C11        1.3790   29.0180   20.8410 C.3     1  RO71        0.0681
     26  C14        0.4490   29.2260   19.6160 C.3     1  RO71        0.2221
     27  O24        0.9730   30.2260   18.7800 O.3     1  RO71       -0.3421
     28  C28        0.5930   30.0560   17.4000 C.3     1  RO71        0.1748
     29  C10       -0.9340   29.5870   20.0830 C.2     1  RO71        0.3917
     30  O21       -1.3170   30.7370   19.9340 O.co2   1  RO71       -0.2429
     31  O18       -1.6310   28.7040   20.6010 O.co2   1  RO71       -0.2429
@<TRIPOS>BOND
     1     9     8   ar
     2     9    10   ar
     3     8     7   ar
     4    10     5   ar
     5     7     6   ar
     6     5     6   ar
     7     5     4    1
     8     3     4    1
     9     3     2    1
    10     4    11    2
    11     2     1    1
    12     2    12    1
    13    11    12    2
    14    28    27    1
    15    12    13    1
    16    27    26    1
    17    13    14    1
    18    15    16    1
    19    15    14    1
    20    20    21   ar
    21    20    19   ar
    22    21    23   ar
    23    26    29    1
    24    26    25    1
    25    16    19   ar
    26    16    17   ar
    27    19    22   ar
    28    23    22   ar
    29    30    29   ar
    30    22    24   ar
    31    17    18   ar
    32    29    31   ar
    33    18    24   ar
    34    24    25    1
