@<TRIPOS>MOLECULE
3g9k_GLU_S_2.pdb
 10 9 0 0 0
SMALL
GASTEIGER

@<TRIPOS>ATOM
      1  N          9.6370    0.2740   44.1480 N.3     2  GLU2       -0.1208
      2  CA         8.8490    0.7950   43.0390 C.3     2  GLU2        0.1949
      3  C          9.3850    0.3340   41.6680 C.2     2  GLU2        0.3819
      4  O         10.5710    0.5270   41.4020 O.co2   2  GLU2       -0.2441
      5  CB         8.8560    2.3220   43.1430 C.3     2  GLU2        0.0424
      6  CG         8.5150    3.0630   41.8640 C.3     2  GLU2        0.1161
      7  CD         7.0740    2.9330   41.4500 C.2     2  GLU2        0.3649
      8  OE1        6.3910    1.9840   41.8890 O.co2   2  GLU2       -0.2457
      9  OE2        6.6590    3.7920   40.6500 O.co2   2  GLU2       -0.2457
     10  OXT        8.6840   -0.2200   40.7900 O.co2   2  GLU2       -0.2441
@<TRIPOS>BOND
     1     9     7   ar
     2    10     3   ar
     3     4     3   ar
     4     7     6    1
     5     7     8   ar
     6     3     2    1
     7     6     5    1
     8     2     5    1
     9     2     1    1
