@<TRIPOS>MOLECULE
3g9l_J67_X_1.pdb
 32 36 0 0 0
SMALL
GASTEIGER

@<TRIPOS>ATOM
      1  O1        17.9830    6.2560   33.0480 O.2     1  J671       -0.1430
      2  N2        18.7530    7.4310   32.9490 N.2     1  J671       -0.0247
      3  C3        19.7720    7.3550   32.1670 C.2     1  J671        0.1788
      4  C4        20.2170    6.1770   31.3870 C.2     1  J671        0.2741
      5  O5        19.6450    5.1050   31.3070 O.2     1  J671       -0.2678
      6  N6        21.3730    6.4990   30.7980 N.am    1  J671       -0.2494
      7  C7        22.0690    5.5860   29.8960 C.3     1  J671        0.1281
      8  C8        23.0050    4.6740   30.6320 C.ar    1  J671        0.0341
      9  C9        22.5260    3.7480   31.5350 C.ar    1  J671        0.0300
     10  C10       23.4250    2.9250   32.1940 C.ar    1  J671        0.1398
     11  F11       22.9570    2.0100   33.0750 F       1  J671       -0.2042
     12  C12       24.7930    3.0290   31.9410 C.ar    1  J671        0.0308
     13  C13       25.2620    3.9650   31.0260 C.ar    1  J671        0.0434
     14  C14       26.7330    4.1040   30.7210 C.3     1  J671        0.1756
     15  O15       26.8710    4.6480   29.3900 O.3     1  J671       -0.3108
     16  C16       26.1800    5.8900   29.1980 C.3     1  J671        0.3612
     17  O17       24.7740    5.7130   29.4570 O.3     1  J671       -0.4485
     18  C18       24.3620    4.7820   30.3650 C.ar    1  J671        0.1375
     19  C19       21.7240    7.8280   31.0670 C.ar    1  J671        0.0562
     20  C20       22.7800    8.6270   30.6390 C.ar    1  J671        0.0150
     21  C21       22.8600    9.9510   31.0300 C.ar    1  J671        0.0013
     22  C22       21.8970   10.5100   31.8590 C.ar    1  J671        0.0001
     23  C23       20.8110    9.7330   32.2940 C.ar    1  J671        0.0029
     24  C24       19.7460   10.2870   33.1510 C.2     1  J671        0.0001
     25  C25       19.6210   11.6220   33.2210 C.2     1  J671        0.0000
     26  C26       18.5870   12.2930   34.0320 C.ar    1  J671        0.0000
     27  C27       18.1490   11.7400   35.2520 C.ar    1  J671        0.0000
     28  C28       17.1780   12.3910   35.9940 C.ar    1  J671        0.0000
     29  C29       16.6360   13.5860   35.5310 C.ar    1  J671        0.0000
     30  C30       17.0570   14.1440   34.3230 C.ar    1  J671        0.0000
     31  C31       18.0310   13.5050   33.5700 C.ar    1  J671        0.0000
     32  C32       20.7400    8.4020   31.8820 C.ar    1  J671        0.0392
@<TRIPOS>BOND
     1    16    15    1
     2    16    17    1
     3    15    14    1
     4    17    18    1
     5     7     8    1
     6     7     6    1
     7    18     8   ar
     8    18    13   ar
     9     8     9   ar
    10    20    21   ar
    11    20    19   ar
    12    14    13    1
    13     6    19    1
    14     6     4   am
    15    13    12   ar
    16    21    22   ar
    17    19    32   ar
    18     5     4    2
    19     4     3    1
    20     9    10   ar
    21    22    23   ar
    22    32     3    1
    23    32    23   ar
    24    12    10   ar
    25     3     2    2
    26    10    11    1
    27    23    24    1
    28     2     1    1
    29    24    25    2
    30    25    26    1
    31    31    26   ar
    32    31    30   ar
    33    26    27   ar
    34    30    29   ar
    35    27    28   ar
    36    29    28   ar
