@<TRIPOS>MOLECULE
3g9n_J88_A_1.pdb
 30 34 0 0 0
SMALL
GASTEIGER

@<TRIPOS>ATOM
      1  O1        18.0180   29.6100   20.8440 O.2   359  J88359     -0.1430
      2  N2        18.7760   28.4110   20.8220 N.2   359  J88359     -0.0247
      3  C3        19.9320   28.3700   21.4380 C.2   359  J88359      0.1788
      4  C4        20.4830   29.4920   22.2080 C.2   359  J88359      0.2741
      5  O5        19.9650   30.5860   22.2730 O.2   359  J88359     -0.2678
      6  N6        21.5930   29.0600   22.8140 N.am  359  J88359     -0.2494
      7  C7        22.4190   29.8590   23.7080 C.3   359  J88359      0.1281
      8  C8        23.2760   30.8480   22.9880 C.ar  359  J88359      0.0341
      9  C9        22.7090   31.7570   22.1190 C.ar  359  J88359      0.0300
     10  C10       23.5110   32.6720   21.4710 C.ar  359  J88359      0.1398
     11  F11       22.9400   33.5430   20.6200 F     359  J88359     -0.2042
     12  C12       24.8860   32.6860   21.7000 C.ar  359  J88359      0.0308
     13  C13       25.4490   31.7710   22.5800 C.ar  359  J88359      0.0434
     14  C14       26.9300   31.7660   22.8420 C.3   359  J88359      0.1756
     15  O15       27.1540   31.1600   24.1240 O.3   359  J88359     -0.3108
     16  C16       26.5980   29.8390   24.2180 C.3   359  J88359      0.3612
     17  O17       25.1690   29.9360   24.1060 O.3   359  J88359     -0.4485
     18  C18       24.6430   30.8480   23.2330 C.ar  359  J88359      0.1375
     19  C19       21.8800   27.7400   22.5000 C.ar  359  J88359      0.0562
     20  C20       22.9540   26.9210   22.8790 C.ar  359  J88359      0.0150
     21  C21       23.0500   25.6160   22.4170 C.ar  359  J88359      0.0013
     22  C22       22.0790   25.1210   21.5710 C.ar  359  J88359      0.0001
     23  C23       20.9930   25.9130   21.1620 C.ar  359  J88359      0.0029
     24  C24       20.9020   27.2520   21.6200 C.ar  359  J88359      0.0392
     25  C25       19.9810   25.3210   20.2350 C.ar  359  J88359      0.0001
     26  C26       18.9930   26.0990   19.6240 C.ar  359  J88359      0.0000
     27  C27       18.0710   25.5410   18.7630 C.ar  359  J88359      0.0000
     28  C28       18.1240   24.1850   18.4880 C.ar  359  J88359      0.0000
     29  C29       19.0870   23.3860   19.0790 C.ar  359  J88359      0.0000
     30  C30       20.0080   23.9520   19.9450 C.ar  359  J88359      0.0000
@<TRIPOS>BOND
     1    28    27   ar
     2    28    29   ar
     3    27    26   ar
     4    29    30   ar
     5    26    25   ar
     6    30    25   ar
     7    25    23    1
     8    11    10    1
     9     2     1    1
    10     2     3    2
    11    23    22   ar
    12    23    24   ar
    13     3    24    1
    14     3     4    1
    15    10    12   ar
    16    10     9   ar
    17    22    21   ar
    18    24    19   ar
    19    12    13   ar
    20     9     8   ar
    21     4     5    2
    22     4     6   am
    23    21    20   ar
    24    19     6    1
    25    19    20   ar
    26    13    14    1
    27    13    18   ar
    28     6     7    1
    29    14    15    1
    30     8    18   ar
    31     8     7    1
    32    18    17    1
    33    17    16    1
    34    15    16    1
