@<TRIPOS>MOLECULE
3ga5_RGG_A_1.pdb
 17 17 0 0 0
SMALL
GASTEIGER

@<TRIPOS>ATOM
      1  O3'       -1.0070   -5.2180   -2.9310 O.3   400  RGG400     -0.2175
      2  C3'       -0.1820   -4.1040   -2.5580 C.3   400  RGG400      0.2174
      3  C2'        0.6030   -4.4910   -1.3140 C.3   400  RGG400      0.2142
      4  O2'        1.7300   -3.6070   -1.2030 O.3   400  RGG400     -0.2176
      5  C1'       -0.3480   -4.3050   -0.1340 C.3   400  RGG400      0.1803
      6  O1         0.3390   -4.5460    1.0790 O.3   400  RGG400     -0.3257
      7  C1        -0.4170   -4.3050    2.2670 C.3   400  RGG400      0.2695
      8  C2         0.3820   -4.8360    3.4550 C.3   400  RGG400      0.2406
      9  O2         0.3440   -6.2730    3.4080 O.3   400  RGG400     -0.2149
     10  C3        -0.1860   -4.3900    4.7930 C.3   400  RGG400      0.2198
     11  O3         0.7310   -4.7370    5.8490 O.3   400  RGG400     -0.2174
     12  C4        -0.4470   -2.8860    4.7920 C.3   400  RGG400      0.2144
     13  O4         0.7970   -2.1780    4.7100 O.3   400  RGG400     -0.2176
     14  C5        -1.3330   -2.5080    3.6090 C.3   400  RGG400      0.1835
     15  O5        -0.6890   -2.8980    2.3870 O.3   400  RGG400     -0.3256
     16  C6        -1.5660   -0.9960    3.5910 C.3   400  RGG400      0.2142
     17  O6        -2.0770   -0.5720    2.3160 O.3   400  RGG400     -0.2176
@<TRIPOS>BOND
     1     1     2    1
     2     2     3    1
     3     3     4    1
     4     3     5    1
     5     5     6    1
     6     6     7    1
     7     7    15    1
     8     7     8    1
     9    17    16    1
    10    15    14    1
    11     9     8    1
    12     8    10    1
    13    16    14    1
    14    14    12    1
    15    13    12    1
    16    12    10    1
    17    10    11    1
