@<TRIPOS>MOLECULE
3ga9_GLU_S_2.pdb
 10 9 0 0 0
SMALL
GASTEIGER

@<TRIPOS>ATOM
      1  N          7.1630   77.3010   22.7610 N.3     2  GLU2       -0.1208
      2  CA         7.7370   75.9590   22.6830 C.3     2  GLU2        0.1949
      3  C          6.8960   74.9530   21.8370 C.2     2  GLU2        0.3819
      4  O          5.6580   75.0230   21.7410 O.co2   2  GLU2       -0.2441
      5  CB         8.0290   75.4480   24.1170 C.3     2  GLU2        0.0424
      6  CG         8.4410   73.9640   24.2670 C.3     2  GLU2        0.1161
      7  CD         9.6440   73.5460   23.4040 C.2     2  GLU2        0.3649
      8  OE1       10.0910   74.2930   22.5050 O.co2   2  GLU2       -0.2457
      9  OE2       10.1380   72.4290   23.6220 O.co2   2  GLU2       -0.2457
     10  OXT        7.4450   74.0350   21.1970 O.co2   2  GLU2       -0.2441
@<TRIPOS>BOND
     1    10     3   ar
     2     4     3   ar
     3     3     2    1
     4     8     7   ar
     5     2     1    1
     6     2     5    1
     7     7     9   ar
     8     7     6    1
     9     5     6    1
