@<TRIPOS>MOLECULE
3gac_ENO_E_1.pdb
 13 13 0 0 0
SMALL
GASTEIGER

@<TRIPOS>ATOM
      1  O4       -30.3410   -4.6690   21.3180 O.2   122  ENO122     -0.2839
      2  C9       -29.5770   -4.3300   17.8450 C.ar  122  ENO122     -0.0005
      3  C8       -29.2470   -3.1670   17.1450 C.ar  122  ENO122      0.0417
      4  C7       -30.1310   -2.0850   17.1420 C.ar  122  ENO122      0.1957
      5  C6       -31.3410   -2.1660   17.8350 C.ar  122  ENO122      0.0417
      6  C5       -31.6720   -3.3270   18.5300 C.ar  122  ENO122     -0.0005
      7  C4       -30.7860   -4.4050   18.5380 C.ar  122  ENO122     -0.0140
      8  O3       -29.8150   -0.9460   16.4590 O.3   122  ENO122     -0.2866
      9  C3       -31.1610   -5.6850   19.2850 C.3   122  ENO122      0.1025
     10  C2       -30.7150   -5.6960   20.7460 C.2   122  ENO122      0.2564
     11  C1       -30.7560   -7.0340   21.5010 C.2   122  ENO122      0.4222
     12  O2       -31.1420   -8.0460   20.8730 O.co2 122  ENO122     -0.2373
     13  O1       -30.3980   -7.0410   22.6970 O.co2 122  ENO122     -0.2373
@<TRIPOS>BOND
     1     8     4    1
     2     4     3   ar
     3     4     5   ar
     4     3     2   ar
     5     5     6   ar
     6     2     7   ar
     7     6     7   ar
     8     7     9    1
     9     9    10    1
    10    10     1    2
    11    10    11    1
    12    12    11   ar
    13    11    13   ar
