@<TRIPOS>MOLECULE
3gag_FMN_A_1.pdb
 31 33 0 0 0
SMALL
GASTEIGER

@<TRIPOS>ATOM
      1  N1        14.3390    1.2270   53.3560 N.2   500  FMN500     -0.2887
      2  C2        13.2240    1.8510   53.8400 C.1   500  FMN500      0.3669
      3  O2        13.1180    2.2400   55.0490 O.2   500  FMN500     -0.1744
      4  N3        12.1320    1.9790   53.0140 N.2   500  FMN500     -0.2300
      5  C4        12.0910    1.5640   51.7230 C.1   500  FMN500      0.2513
      6  O4        11.0300    1.7840   51.0820 O.2   500  FMN500     -0.2057
      7  C4A       13.2260    0.9120   51.2270 C.2   500  FMN500      0.2703
      8  N5        13.2400    0.4330   49.9070 N.2   500  FMN500     -0.3882
      9  C5A       14.4570    0.1000   49.3650 C.2   500  FMN500      0.1277
     10  C6        14.5580   -0.1120   48.0050 C.3   500  FMN500      0.0820
     11  C7        15.7750   -0.4090   47.4440 C.2   500  FMN500     -0.0408
     12  C7M       15.8090   -0.6330   45.9250 C.3   500  FMN500      0.0265
     13  C8        16.9210   -0.4840   48.2000 C.2   500  FMN500     -0.0280
     14  C8M       18.2570   -0.7370   47.5780 C.3   500  FMN500      0.0304
     15  C9        16.8340   -0.2540   49.5840 C.2   500  FMN500      0.0123
     16  C9A       15.5960    0.0260   50.1570 C.2   500  FMN500      0.0793
     17  N10       15.5120    0.2090   51.5460 N.pl3 500  FMN500     -0.2545
     18  C10       14.3500    0.7810   52.0480 C.2   500  FMN500      0.2449
     19  C1'       16.7250    0.1310   52.4140 C.3   500  FMN500      0.1336
     20  C2'       17.0850   -1.3150   52.7320 C.3   500  FMN500      0.2048
     21  O2'       16.1560   -1.8330   53.6500 O.3   500  FMN500     -0.2185
     22  C3'       18.5020   -1.3990   53.3410 C.3   500  FMN500      0.2165
     23  O3'       19.4420   -0.9850   52.3570 O.3   500  FMN500     -0.2175
     24  C4'       18.9030   -2.7970   53.7360 C.3   500  FMN500      0.2147
     25  O4'       18.0800   -3.2490   54.8050 O.3   500  FMN500     -0.2176
     26  C5'       20.3770   -2.8440   54.1510 C.3   500  FMN500      0.1892
     27  O5'       20.5560   -1.9110   55.1990 O.3   500  FMN500     -0.2674
     28  P         21.7510   -0.8080   55.0450 P.3   500  FMN500      0.5327
     29  O1P       21.4730    0.0860   53.8700 O.2   500  FMN500     -0.2224
     30  O2P       23.0500   -1.5100   54.8900 O.3   500  FMN500     -0.1145
     31  O3P       21.7430   -0.0530   56.3740 O.3   500  FMN500     -0.1145
@<TRIPOS>BOND
     1    12    11    1
     2    11    10    1
     3    11    13    2
     4    14    13    1
     5    10     9    1
     6    13    15    1
     7     9     8    2
     8     9    16    1
     9    15    16    2
    10     8     7    2
    11    16    17    1
    12     6     5    2
    13     7     5    1
    14     7    18    1
    15    17    18    1
    16    17    19    1
    17     5     4    2
    18    18     1    2
    19    23    22    1
    20    19    20    1
    21    20    22    1
    22    20    21    1
    23     4     2    2
    24    22    24    1
    25     1     2    2
    26    24    26    1
    27    24    25    1
    28     2     3    2
    29    29    28    2
    30    26    27    1
    31    30    28    1
    32    28    27    1
    33    28    31    1
