@<TRIPOS>MOLECULE
3gah_ATP_A_1.pdb
 31 33 0 0 0
SMALL
GASTEIGER

@<TRIPOS>ATOM
      1  PG        19.7280   -8.2120  -36.8600 P.3   999  ATP999      0.5373
      2  O1G       20.5390   -9.2510  -36.1160 O.3   999  ATP999     -0.1143
      3  O2G       18.7330   -7.5090  -35.9600 O.3   999  ATP999     -0.1143
      4  O3G       20.5370   -7.2790  -37.7410 O.2   999  ATP999     -0.2221
      5  PB        17.3820   -8.9230  -38.3930 P.3   999  ATP999      0.2277
      6  O1B       16.9340   -7.5350  -38.1240 O.3   999  ATP999     -0.4368
      7  O2B       17.2740   -9.4240  -39.7960 O.2   999  ATP999     -0.5168
      8  O3B       18.8420   -9.1210  -37.8730 O.3   999  ATP999     -0.2258
      9  PA        16.1050   -9.8790  -35.9510 P.3   999  ATP999      0.2189
     10  O1A       15.9950   -8.4380  -35.5480 O.2   999  ATP999     -0.5170
     11  O2A       16.9810  -10.7790  -35.2320 O.3   999  ATP999     -0.4371
     12  O3A       16.4900   -9.9490  -37.5090 O.3   999  ATP999     -0.2700
     13  O5'       14.6170  -10.4270  -35.9930 O.3   999  ATP999     -0.3112
     14  C5'       14.2700  -11.8260  -35.7920 C.3   999  ATP999      0.1813
     15  C4'       13.4100  -12.2640  -36.9880 C.3   999  ATP999      0.1821
     16  O4'       12.2360  -11.4360  -37.0050 O.3   999  ATP999     -0.3135
     17  C3'       14.0450  -12.0710  -38.3580 C.3   999  ATP999      0.2184
     18  O3'       14.7390  -13.2950  -38.6930 O.3   999  ATP999     -0.2174
     19  C2'       12.8290  -11.8100  -39.2530 C.3   999  ATP999      0.2570
     20  O2'       12.1130  -13.0160  -39.5240 O.3   999  ATP999     -0.2130
     21  C1'       11.9330  -10.9820  -38.3320 C.3   999  ATP999      0.3186
     22  N9        12.1160   -9.5210  -38.4200 N.pl3 999  ATP999     -0.1439
     23  C8        13.2640   -8.8060  -38.4300 C.3   999  ATP999      0.3377
     24  N7        13.0340   -7.4920  -38.3520 N.2   999  ATP999     -0.2095
     25  C5        11.6950   -7.3890  -38.2130 C.2   999  ATP999      0.2526
     26  C6        10.8070   -6.3080  -38.0270 C.2   999  ATP999      0.4393
     27  N6        11.2270   -5.0290  -38.0170 N.pl3 999  ATP999      0.2180
     28  N1         9.4930   -6.5540  -37.9470 N.2   999  ATP999      0.0021
     29  C2         9.0620   -7.8380  -37.9280 C.3   999  ATP999      0.5254
     30  N3         9.8170   -8.9500  -38.0730 N.2   999  ATP999     -0.0055
     31  C4        11.1230   -8.6680  -38.2050 C.2   999  ATP999      0.3518
@<TRIPOS>BOND
     1     7     5    2
     2    20    19    1
     3    19    17    1
     4    19    21    1
     5    18    17    1
     6    23    22    1
     7    23    24    1
     8    22    21    1
     9    22    31    1
    10     5     6    1
    11     5     8    1
    12     5    12    1
    13    17    15    1
    14    24    25    2
    15    21    16    1
    16    25    31    1
    17    25    26    1
    18    31    30    2
    19    30    29    1
    20    26    27    1
    21    26    28    2
    22    28    29    1
    23     8     1    1
    24     4     1    2
    25    12     9    1
    26    16    15    1
    27    15    14    1
    28     1     2    1
    29     1     3    1
    30    13     9    1
    31    13    14    1
    32     9    10    2
    33     9    11    1
