@<TRIPOS>MOLECULE
3gai_ATP_A_1.pdb
 31 33 0 0 0
SMALL
GASTEIGER

@<TRIPOS>ATOM
      1  PG        19.8370    8.0890   37.0270 P.3   999  ATP999      0.5373
      2  O1G       20.6920    9.1070   36.2940 O.3   999  ATP999     -0.1143
      3  O2G       18.8470    7.3540   36.1210 O.2   999  ATP999     -0.2221
      4  O3G       20.5890    7.1330   37.9050 O.3   999  ATP999     -0.1143
      5  PB        17.4830    8.8190   38.5490 P.3   999  ATP999      0.2277
      6  O1B       17.0260    7.4120   38.2300 O.2   999  ATP999     -0.5168
      7  O2B       17.3250    9.3450   39.9460 O.3   999  ATP999     -0.4368
      8  O3B       18.9670    8.9920   38.0700 O.3   999  ATP999     -0.2258
      9  PA        16.2420    9.7720   36.0730 P.3   999  ATP999      0.2189
     10  O1A       16.0950    8.3360   35.6380 O.3   999  ATP999     -0.4371
     11  O2A       17.2000   10.6690   35.3720 O.2   999  ATP999     -0.5170
     12  O3A       16.5770    9.8060   37.6430 O.3   999  ATP999     -0.2700
     13  O5'       14.7600   10.3590   36.0720 O.3   999  ATP999     -0.3112
     14  C5'       14.4870   11.7670   35.9490 C.3   999  ATP999      0.1813
     15  C4'       13.5850   12.1800   37.1030 C.3   999  ATP999      0.1821
     16  O4'       12.3940   11.3480   37.0780 O.3   999  ATP999     -0.3135
     17  C3'       14.1520   11.9300   38.4890 C.3   999  ATP999      0.2184
     18  O3'       14.9550   13.0910   38.8370 O.3   999  ATP999     -0.2174
     19  C2'       12.9240   11.6900   39.3640 C.3   999  ATP999      0.2570
     20  O2'       12.2450   12.9240   39.6140 O.3   999  ATP999     -0.2130
     21  C1'       12.0270   10.9270   38.4030 C.3   999  ATP999      0.3186
     22  N9        12.2340    9.4480   38.4520 N.pl3 999  ATP999     -0.1439
     23  C8        13.3610    8.7090   38.4740 C.3   999  ATP999      0.3377
     24  N7        13.1000    7.3720   38.4180 N.2   999  ATP999     -0.2095
     25  C5        11.7620    7.2580   38.3030 C.2   999  ATP999      0.2526
     26  C6        10.8490    6.1630   38.1670 C.2   999  ATP999      0.4393
     27  N6        11.2750    4.8860   38.1620 N.pl3 999  ATP999      0.2180
     28  N1         9.5440    6.4700   38.1040 N.2   999  ATP999      0.0021
     29  C2         9.1060    7.7380   38.1030 C.3   999  ATP999      0.5254
     30  N3         9.8830    8.8310   38.2180 N.2   999  ATP999     -0.0055
     31  C4        11.2170    8.6050   38.3190 C.2   999  ATP999      0.3518
@<TRIPOS>BOND
     1    11     9    2
     2    10     9    1
     3    14    13    1
     4    14    15    1
     5    13     9    1
     6     9    12    1
     7     3     1    2
     8     2     1    1
     9     1     4    1
    10     1     8    1
    11    16    15    1
    12    16    21    1
    13    15    17    1
    14    12     5    1
    15     8     5    1
    16    29    28    1
    17    29    30    1
    18    28    26    2
    19    27    26    1
    20    26    25    1
    21    30    31    2
    22     6     5    2
    23    25    31    1
    24    25    24    2
    25    31    22    1
    26    21    22    1
    27    21    19    1
    28    24    23    1
    29    22    23    1
    30    17    18    1
    31    17    19    1
    32     5     7    1
    33    19    20    1
