@<TRIPOS>MOLECULE
3gaj_ATP_A_1.pdb
 31 33 0 0 0
SMALL
GASTEIGER

@<TRIPOS>ATOM
      1  PG       -27.3860   39.9440   -6.9170 P.3   999  ATP999      0.5373
      2  O1G      -26.4800   40.8890   -6.1710 O.3   999  ATP999     -0.1143
      3  O2G      -28.0280   38.8850   -6.0260 O.3   999  ATP999     -0.1143
      4  O3G      -28.3860   40.5920   -7.8300 O.2   999  ATP999     -0.2221
      5  PB       -26.4610   37.6650   -8.4200 P.3   999  ATP999      0.2277
      6  O1B      -27.8190   37.1270   -8.1240 O.3   999  ATP999     -0.4368
      7  O2B      -25.9710   37.6270   -9.8330 O.2   999  ATP999     -0.5168
      8  O3B      -26.3610   39.1500   -7.8350 O.3   999  ATP999     -0.2258
      9  PA       -25.4070   36.4880   -5.9770 P.3   999  ATP999      0.2189
     10  O1A      -26.8110   36.2950   -5.5410 O.2   999  ATP999     -0.5170
     11  O2A      -24.5490   37.4940   -5.2810 O.3   999  ATP999     -0.4371
     12  O3A      -25.3750   36.8430   -7.5550 O.3   999  ATP999     -0.2700
     13  O5'      -24.6960   35.0710   -6.0050 O.3   999  ATP999     -0.3112
     14  C5'      -23.2800   34.9150   -5.8450 C.3   999  ATP999      0.1813
     15  C4'      -22.7470   34.0130   -6.9390 C.3   999  ATP999      0.1821
     16  O4'      -23.4890   32.7790   -6.9570 O.3   999  ATP999     -0.3135
     17  C3'      -22.9910   34.5780   -8.3230 C.3   999  ATP999      0.2184
     18  O3'      -21.8780   35.3920   -8.6960 O.3   999  ATP999     -0.2174
     19  C2'      -23.1350   33.3600   -9.2030 C.3   999  ATP999      0.2570
     20  O2'      -21.8670   32.7520   -9.4580 O.3   999  ATP999     -0.2130
     21  C1'      -23.8580   32.3990   -8.2880 C.3   999  ATP999      0.3186
     22  N9       -25.3490   32.4860   -8.3300 N.pl3 999  ATP999     -0.1439
     23  C8       -26.1670   33.5650   -8.4330 C.3   999  ATP999      0.3377
     24  N7       -27.4780   33.2280   -8.3680 N.2   999  ATP999     -0.2095
     25  C5       -27.4910   31.8790   -8.2030 C.2   999  ATP999      0.2526
     26  C6       -28.5140   30.8540   -8.0530 C.2   999  ATP999      0.4393
     27  N6       -29.8260   31.1880   -8.0550 N.pl3 999  ATP999      0.2180
     28  N1       -28.1170   29.5710   -7.8960 N.2   999  ATP999      0.0021
     29  C2       -26.8150   29.2430   -7.8700 C.3   999  ATP999      0.5254
     30  N3       -25.7950   30.1140   -7.9990 N.2   999  ATP999     -0.0055
     31  C4       -26.1180   31.4140   -8.1590 C.2   999  ATP999      0.3518
@<TRIPOS>BOND
     1     7     5    2
     2    20    19    1
     3    19    17    1
     4    19    21    1
     5    18    17    1
     6    23    24    1
     7    23    22    1
     8     5     6    1
     9     5     8    1
    10     5    12    1
    11    24    25    2
    12    22    21    1
    13    22    31    1
    14    17    15    1
    15    21    16    1
    16    25    31    1
    17    25    26    1
    18    31    30    2
    19    27    26    1
    20    26    28    2
    21    30    29    1
    22    28    29    1
    23     8     1    1
    24     4     1    2
    25    12     9    1
    26    16    15    1
    27    15    14    1
    28     1     2    1
    29     1     3    1
    30    13     9    1
    31    13    14    1
    32     9    10    2
    33     9    11    1
