@<TRIPOS>MOLECULE
3gal_1GN_A_1.pdb
 12 12 0 0 0
SMALL
GASTEIGER

@<TRIPOS>ATOM
      1  C2         6.6130    7.7580   32.6260 C.3   998  1GN998      0.1836
      2  C3         6.9290    7.4380   31.1450 C.3   998  1GN998      0.2071
      3  C4         5.6290    7.3120   30.3450 C.3   998  1GN998      0.2133
      4  O5         4.5290    8.7890   31.9650 O.3   998  1GN998     -0.3244
      5  C1         5.7610    9.0190   32.6700 C.3   998  1GN998      0.2893
      6  O1         5.4720    9.3420   33.9820 O.3   998  1GN998     -0.1882
      7  N2         7.8250    7.9510   33.4060 N.3   998  1GN998     -0.1247
      8  O3         7.6410    6.2200   31.0460 O.3   998  1GN998     -0.2186
      9  O4         4.9260    6.1460   30.7610 O.3   998  1GN998     -0.2176
     10  C5         4.7580    8.5600   30.5540 C.3   998  1GN998      0.1835
     11  C6         3.4020    8.4690   29.8830 C.3   998  1GN998      0.2142
     12  O6         2.7670    9.7310   29.8970 O.3   998  1GN998     -0.2176
@<TRIPOS>BOND
     1    11    12    1
     2    11    10    1
     3     3    10    1
     4     3     9    1
     5     3     2    1
     6    10     4    1
     7     8     2    1
     8     2     1    1
     9     4     5    1
    10     1     5    1
    11     1     7    1
    12     5     6    1
