@<TRIPOS>MOLECULE
3gam_MXX_A_1.pdb
 17 18 0 0 0
SMALL
GASTEIGER

@<TRIPOS>ATOM
      1  O17       -5.4090  -10.2290  -14.7230 O.2   231  MXX231     -0.2670
      2  C9        -4.7680   -9.2400  -15.1490 C.ar  231  MXX231      0.2608
      3  N10       -5.2530   -7.9670  -14.8360 N.ar  231  MXX231     -0.2907
      4  C16       -6.4690   -7.8800  -14.0230 C.3   231  MXX231      0.1336
      5  C3        -4.5770   -6.8100  -15.2660 C.ar  231  MXX231      0.0992
      6  C4        -5.0680   -5.5740  -14.8970 C.ar  231  MXX231      0.1546
      7  O12       -6.1930   -5.4910  -14.1120 O.3   231  MXX231     -0.4700
      8  C13       -6.5050   -4.1800  -13.6490 C.3   231  MXX231      0.2525
      9  C5        -4.4320   -4.4120  -15.3020 C.ar  231  MXX231      0.0415
     10  C6        -3.2750   -4.5120  -16.0920 C.ar  231  MXX231      0.0401
     11  C1        -2.7890   -5.7620  -16.4480 C.ar  231  MXX231      0.1399
     12  O11       -1.6590   -5.8220  -17.2150 O.3   231  MXX231     -0.4714
     13  C14       -1.2360   -4.5590  -17.7580 C.3   231  MXX231      0.2525
     14  C2        -3.4120   -6.9080  -16.0350 C.ar  231  MXX231      0.0490
     15  C7        -2.9020   -8.2610  -16.3900 C.ar  231  MXX231     -0.0127
     16  C15       -1.6730   -8.4680  -17.2210 C.3   231  MXX231      0.0313
     17  C8        -3.6160   -9.3870  -15.9200 C.ar  231  MXX231      0.0567
@<TRIPOS>BOND
     1    13    12    1
     2    16    15    1
     3    12    11    1
     4    11    10   ar
     5    11    14   ar
     6    15    14   ar
     7    15    17   ar
     8    10     9   ar
     9    14     5   ar
    10    17     2   ar
    11     9     6   ar
    12     5     6   ar
    13     5     3   ar
    14     2     3   ar
    15     2     1    2
    16     6     7    1
    17     3     4    1
    18     7     8    1
