@<TRIPOS>MOLECULE
3gas_HEM_A_1.pdb
 43 50 0 0 0
SMALL
GASTEIGER

@<TRIPOS>ATOM
      1  CHA       13.4790   47.2650   28.5650 C.2   1290  HEM1290     0.0000
      2  CHB       17.2810   49.8790   29.5080 C.2   1290  HEM1290     0.0000
      3  CHC       17.1440   51.8700   25.1490 C.2   1290  HEM1290     0.0000
      4  CHD       13.3240   49.1100   24.1590 C.2   1290  HEM1290     0.0000
      5  C1A       14.5340   47.8130   29.2420 C.2   1290  HEM1290     0.0000
      6  C2A       14.9220   47.4400   30.5530 C.2   1290  HEM1290     0.0000
      7  C3A       16.0110   48.1740   30.8050 C.2   1290  HEM1290     0.0000
      8  C4A       16.2900   49.0190   29.6530 C.2   1290  HEM1290     0.0000
      9  CMA       16.8840   48.1740   32.0740 C.3   1290  HEM1290     0.0000
     10  CAA       14.2660   46.4060   31.4740 C.3   1290  HEM1290     0.0000
     11  CBA       12.9960   46.9750   32.0860 C.3   1290  HEM1290     0.0000
     12  CGA       12.2030   46.0270   32.9840 C.2   1290  HEM1290     0.0000
     13  O1A       12.4080   44.7790   32.9040 O.co2 1290  HEM1290     0.0000
     14  O2A       11.3780   46.5040   33.7290 O.co2 1290  HEM1290     0.0000
     15  C1B       17.5910   50.6810   28.4110 C.ar  1290  HEM1290     0.0000
     16  C2B       18.7450   51.5720   28.3720 C.ar  1290  HEM1290     0.0000
     17  C3B       18.6790   52.1740   27.0810 C.ar  1290  HEM1290     0.0000
     18  C4B       17.5370   51.5960   26.4490 C.ar  1290  HEM1290     0.0000
     19  CMB       19.7510   51.7730   29.4420 C.3   1290  HEM1290     0.0000
     20  CAB       19.6570   53.1420   26.6090 C.2   1290  HEM1290     0.0000
     21  CBB       19.3130   54.3350   26.1570 C.2   1290  HEM1290     0.0000
     22  C1C       16.0670   51.2660   24.5030 C.2   1290  HEM1290     0.0000
     23  C2C       15.7500   51.5410   23.1040 C.2   1290  HEM1290     0.0000
     24  C3C       14.6400   50.7420   22.7690 C.2   1290  HEM1290     0.0000
     25  C4C       14.3360   50.0070   24.0560 C.2   1290  HEM1290     0.0000
     26  CMC       16.5270   52.5070   22.1890 C.3   1290  HEM1290     0.0000
     27  CAC       14.0110   50.6390   21.5780 C.2   1290  HEM1290     0.0000
     28  CBC       14.3150   50.6280   20.3170 C.2   1290  HEM1290     0.0000
     29  C1D       13.0200   48.3780   25.2900 C.ar  1290  HEM1290     0.0000
     30  C2D       11.9050   47.3660   25.3660 C.ar  1290  HEM1290     0.0000
     31  C3D       11.9860   46.8640   26.6220 C.ar  1290  HEM1290     0.0000
     32  C4D       13.0900   47.5420   27.2870 C.ar  1290  HEM1290     0.0000
     33  CMD       10.9520   47.0180   24.2240 C.3   1290  HEM1290     0.0000
     34  CAD       11.1610   45.7890   27.2750 C.3   1290  HEM1290     0.0000
     35  CBD       11.9570   44.4980   27.1590 C.3   1290  HEM1290     0.0000
     36  CGD       11.3830   43.3180   27.8150 C.2   1290  HEM1290     0.0000
     37  O1D       10.5980   42.5450   27.2130 O.co2 1290  HEM1290     0.0000
     38  O2D       11.7520   43.0870   28.9890 O.co2 1290  HEM1290     0.0000
     39  NA        15.3660   48.7850   28.6870 N.2   1290  HEM1290     0.0000
     40  NB        16.8590   50.6750   27.2920 N.ar  1290  HEM1290     0.0000
     41  NC        15.1860   50.3390   25.0240 N.2   1290  HEM1290     0.0000
     42  ND        13.6820   48.4530   26.4490 N.ar  1290  HEM1290     0.0000
     43 FE         15.2110   49.6070   26.8770 Fe    1290  HEM1290     0.0000
@<TRIPOS>BOND
     1    28    27    2
     2    27    24    1
     3    26    23    1
     4    24    23    2
     5    24    25    1
     6    23    22    1
     7    25     4    1
     8    25    41    2
     9     4    29    2
    10    33    30    1
    11    22    41    1
    12    22     3    2
    13    41    43    1
    14     3    18    1
    15    29    30   ar
    16    29    42   ar
    17    30    31   ar
    18    21    20    2
    19    42    43    1
    20    42    32   ar
    21    18    17   ar
    22    18    40   ar
    23    20    17    1
    24    31    34    1
    25    31    32   ar
    26    43    40    1
    27    43    39    1
    28    17    16   ar
    29    35    34    1
    30    35    36    1
    31    37    36   ar
    32    32     1    2
    33    40    15   ar
    34    36    38   ar
    35    16    15   ar
    36    16    19    1
    37    15     2    1
    38     1     5    1
    39    39     5    2
    40    39     8    1
    41     5     6    1
    42     2     8    2
    43     8     7    1
    44     6     7    2
    45     6    10    1
    46     7     9    1
    47    10    11    1
    48    11    12    1
    49    13    12   ar
    50    12    14   ar
