@<TRIPOS>MOLECULE
3gay_P6T_A_1.pdb
 20 19 0 0 0
SMALL
GASTEIGER

@<TRIPOS>ATOM
      1  O1        15.8170   -0.3150   17.9380 O.3   327  P6T327     -0.2621
      2  C1        14.6470   -0.5420   17.1420 C.3   327  P6T327      0.2203
      3  C2        13.3340   -0.2600   17.8750 C.2   327  P6T327      0.2137
      4  C3        12.1070    0.2440   17.1120 C.3   327  P6T327      0.2439
      5  C4        12.1790    1.7500   16.8440 C.3   327  P6T327      0.2220
      6  C5        12.4420    2.0590   15.3680 C.3   327  P6T327      0.2151
      7  C6        12.3300    3.5570   15.0630 C.3   327  P6T327      0.1892
      8  O63       13.4660    5.9540   12.7340 O.3   327  P6T327     -0.1145
      9  P6        12.0390    5.2680   13.0330 P.3   327  P6T327      0.5327
     10  O61       11.3330    5.0040   11.6090 O.2   327  P6T327     -0.2224
     11  O62       11.1900    6.1100   13.9060 O.3   327  P6T327     -0.1145
     12  O6        12.3650    3.8140   13.6520 O.3   327  P6T327     -0.2674
     13  O5        13.7510    1.6000   15.0150 O.3   327  P6T327     -0.2176
     14  O4        13.2110    2.3290   17.6470 O.3   327  P6T327     -0.2171
     15  O3        10.9230   -0.0190   17.8700 O.3   327  P6T327     -0.2122
     16  O2        13.2410   -0.4740   19.0880 O.2   327  P6T327     -0.2906
     17  P1        17.3090   -0.6010   17.3810 P.3   327  P6T327      0.5330
     18  O13       18.0650   -1.4070   18.5470 O.3   327  P6T327     -0.1145
     19  O11       17.1950   -1.5930   16.1220 O.2   327  P6T327     -0.2224
     20  O12       17.9930    0.6680   17.0420 O.3   327  P6T327     -0.1145
@<TRIPOS>BOND
     1    10     9    2
     2     8     9    1
     3     9    12    1
     4     9    11    1
     5    12     7    1
     6    13     6    1
     7     7     6    1
     8     6     5    1
     9    19    17    2
    10     5     4    1
    11     5    14    1
    12    20    17    1
    13     4    15    1
    14     4     3    1
    15     2     3    1
    16     2     1    1
    17    17     1    1
    18    17    18    1
    19     3    16    2
