@<TRIPOS>MOLECULE
3gb2_G3B_A_1.pdb
 24 27 0 0 0
SMALL
GASTEIGER

@<TRIPOS>ATOM
      1  O21       25.2600   15.3140    4.4490 O.2   999  G3B999     -0.2514
      2  S24       26.5780   14.6940    4.7990 S.O   999  G3B999      0.0658
      3  C18       26.7030   13.0690    4.0250 C.3   999  G3B999      0.1110
      4  C14       27.8280   15.8350    4.1750 C.ar  999  G3B999      0.0562
      5  C5        27.4840   16.7070    3.1400 C.ar  999  G3B999      0.0086
      6  C6        29.1080   15.8460    4.7080 C.ar  999  G3B999      0.0086
      7  C3        30.0420   16.7360    4.2050 C.ar  999  G3B999      0.0007
      8  C10       29.6960   17.5970    3.1690 C.ar  999  G3B999      0.0032
      9  C2        28.4170   17.5990    2.6300 C.ar  999  G3B999      0.0007
     10  C12       30.7110   18.5390    2.6470 C.ar  999  G3B999      0.0406
     11  C9        32.0350   18.1740    2.0450 C.ar  999  G3B999      0.0377
     12  C13       32.6450   19.4440    1.7090 C.ar  999  G3B999      0.1454
     13  O22       31.7880   20.4900    2.0660 O.2   999  G3B999     -0.4504
     14  C8        30.5670   19.9290    2.6610 C.ar  999  G3B999      0.1795
     15  C4        33.8830   19.5230    1.1300 C.ar  999  G3B999      0.0376
     16  C7        32.6880   16.9870    1.7830 C.ar  999  G3B999      0.0078
     17  C11       33.9400   17.0860    1.2030 C.ar  999  G3B999      0.0553
     18  C1        34.5070   18.3150    0.8760 C.ar  999  G3B999      0.0078
     19  C15       34.6890   15.8600    0.8600 C.ar  999  G3B999      0.2496
     20  O23       34.4080   14.5910    1.2630 O.2   999  G3B999     -0.4195
     21  C16       35.3360   13.7940    0.6560 C.ar  999  G3B999      0.2270
     22  C17       35.2290   12.3230    0.9530 C.3   999  G3B999      0.0967
     23  N20       36.1750   14.5050   -0.1110 N.ar  999  G3B999     -0.1114
     24  N19       35.7450   15.8300    0.0230 N.ar  999  G3B999     -0.1072
@<TRIPOS>BOND
     1    23    24   ar
     2    23    21   ar
     3    24    19   ar
     4    21    22    1
     5    21    20   ar
     6    19    17    1
     7    19    20   ar
     8    18    15   ar
     9    18    17   ar
    10    15    12   ar
    11    17    16   ar
    12    12    11   ar
    13    12    13   ar
    14    16    11   ar
    15    11    10   ar
    16    13    14   ar
    17     9     5   ar
    18     9     8   ar
    19    10    14   ar
    20    10     8    1
    21     5     4   ar
    22     8     7   ar
    23     3     2    1
    24     4     6   ar
    25     4     2    1
    26     7     6   ar
    27     1     2    2
