@<TRIPOS>MOLECULE
3gb4_D3M_A_1.pdb
 13 13 0 0 0
SMALL
GASTEIGER

@<TRIPOS>ATOM
      1 CL1       -32.8560  -22.4790   52.9790 Cl    601  D3M601     -0.0791
      2 CL2       -38.4160  -20.4150   50.8390 Cl    601  D3M601     -0.0819
      3  C1       -36.6320  -22.4700   51.3950 C.ar  601  D3M601      0.1250
      4  O1       -37.8330  -23.4340   49.6520 O.co2 601  D3M601     -0.2404
      5  C2       -36.9090  -21.0630   51.4080 C.ar  601  D3M601      0.0670
      6  O2       -38.1710  -24.1740   51.7420 O.co2 601  D3M601     -0.2404
      7  C3       -35.9480  -20.1420   51.8890 C.ar  601  D3M601      0.0127
      8  O3       -35.0510  -24.3040   51.8910 O.3   601  D3M601     -0.4703
      9  C4       -34.6980  -20.6000   52.3720 C.ar  601  D3M601      0.0153
     10  C5       -34.3930  -21.9850   52.3750 C.ar  601  D3M601      0.0918
     11  C6       -35.3550  -22.9280   51.8880 C.ar  601  D3M601      0.1563
     12  C7       -37.6320  -23.4420   50.8930 C.2   601  D3M601      0.3915
     13  C8       -34.4160  -24.7050   50.6510 C.3   601  D3M601      0.2525
@<TRIPOS>BOND
     1     4    12   ar
     2    13     8    1
     3     2     5    1
     4    12     3    1
     5    12     6   ar
     6     3     5   ar
     7     3    11   ar
     8     5     7   ar
     9    11     8    1
    10    11    10   ar
    11     7     9   ar
    12     9    10   ar
    13    10     1    1
