@<TRIPOS>MOLECULE
3gb5_FMN_A_1.pdb
 31 33 0 0 0
SMALL
GASTEIGER

@<TRIPOS>ATOM
      1  N1        25.1970   48.7420   15.7770 N.2   301  FMN301     -0.2887
      2  C2        24.7230   49.6680   14.8800 C.1   301  FMN301      0.3669
      3  O2        24.2900   49.2530   13.8080 O.2   301  FMN301     -0.1744
      4  N3        24.7870   51.0020   15.1210 N.2   301  FMN301     -0.2300
      5  C4        25.2980   51.4540   16.3000 C.1   301  FMN301      0.2513
      6  O4        25.4790   52.6740   16.4630 O.2   301  FMN301     -0.2057
      7  C4A       25.7590   50.5000   17.2420 C.2   301  FMN301      0.2706
      8  N5        26.2590   50.9230   18.4570 N.2   301  FMN301     -0.3841
      9  C5A       26.6880   49.9830   19.4050 C.2   301  FMN301      0.1452
     10  C6        27.1860   50.4730   20.6230 C.2   301  FMN301      0.0252
     11  C7        27.5920   49.5900   21.6170 C.2   301  FMN301     -0.0375
     12  C7M       28.0130   50.1730   22.9630 C.3   301  FMN301      0.0268
     13  C8        27.5190   48.2080   21.3640 C.3   301  FMN301      0.0417
     14  C8M       27.5870   47.1580   22.4930 C.3   301  FMN301      0.0091
     15  C9        27.0600   47.7350   20.1190 C.2   301  FMN301     -0.0049
     16  C9A       26.6310   48.6140   19.1330 C.2   301  FMN301      0.0795
     17  N10       26.1400   48.1710   17.9040 N.pl3 301  FMN301     -0.2545
     18  C10       25.6950   49.1380   16.9840 C.2   301  FMN301      0.2449
     19  C1'       26.0460   46.7330   17.5300 C.3   301  FMN301      0.1336
     20  C2'       27.4110   46.1280   17.1520 C.3   301  FMN301      0.2048
     21  O2'       27.8090   46.5180   15.8360 O.3   301  FMN301     -0.2185
     22  C3'       27.3740   44.6260   17.3040 C.3   301  FMN301      0.2165
     23  O3'       27.1800   44.2340   18.6560 O.3   301  FMN301     -0.2175
     24  C4'       28.6480   43.9530   16.7270 C.3   301  FMN301      0.2147
     25  O4'       28.7460   44.1430   15.3160 O.3   301  FMN301     -0.2176
     26  C5'       28.6420   42.4680   17.0110 C.3   301  FMN301      0.1892
     27  O5'       27.5040   41.8220   16.4370 O.3   301  FMN301     -0.2674
     28  P         26.5200   40.9200   17.3340 P.3   301  FMN301      0.5327
     29  O1P       25.4770   40.2800   16.4360 O.2   301  FMN301     -0.2224
     30  O2P       25.8400   41.8700   18.3280 O.3   301  FMN301     -0.1145
     31  O3P       27.2590   39.8350   17.9990 O.3   301  FMN301     -0.1145
@<TRIPOS>BOND
     1     3     2    2
     2     2     4    2
     3     2     1    2
     4     4     5    2
     5    25    24    1
     6     1    18    2
     7    21    20    1
     8     5     6    2
     9     5     7    1
    10    29    28    2
    11    27    26    1
    12    27    28    1
    13    24    26    1
    14    24    22    1
    15    18     7    1
    16    18    17    1
    17    20    22    1
    18    20    19    1
    19     7     8    2
    20    22    23    1
    21    28    31    1
    22    28    30    1
    23    19    17    1
    24    17    16    1
    25     8     9    2
    26    16     9    1
    27    16    15    2
    28     9    10    1
    29    15    13    1
    30    10    11    2
    31    13    11    1
    32    13    14    1
    33    11    12    1
