@<TRIPOS>MOLECULE
3gb6_P6F_A_1.pdb
 20 19 0 0 0
SMALL
GASTEIGER

@<TRIPOS>ATOM
      1  P1        17.5160   -0.0960   17.4080 P.3   327  P6F327      0.5330
      2  O1P       18.2770    1.1200   17.0400 O.3   327  P6F327     -0.1145
      3  O2P       17.3310   -1.0850   16.1540 O.2   327  P6F327     -0.2224
      4  O3P       18.2300   -0.9280   18.5840 O.3   327  P6F327     -0.1145
      5  O1        16.0340    0.2320   17.9590 O.3   327  P6F327     -0.2621
      6  C1        14.8850   -0.2590   17.2710 C.3   327  P6F327      0.2203
      7  C2        13.5960    0.1650   17.9830 C.2   327  P6F327      0.2137
      8  O2        13.5150    0.1120   19.2050 O.2   327  P6F327     -0.2906
      9  C3        12.4160    0.6270   17.1230 C.3   327  P6F327      0.2439
     10  O3        11.1720    0.3320   17.7620 O.3   327  P6F327     -0.2122
     11  C4        12.5480    2.1240   16.8470 C.3   327  P6F327      0.2220
     12  O4        11.4320    2.8090   17.4230 O.3   327  P6F327     -0.2171
     13  C5        12.5720    2.3730   15.3360 C.3   327  P6F327      0.2151
     14  O5        13.7710    1.8090   14.8020 O.3   327  P6F327     -0.2176
     15  C6        12.5210    3.8590   14.9750 C.3   327  P6F327      0.1892
     16  O6        12.3440    4.0010   13.5600 O.3   327  P6F327     -0.2674
     17  P2        11.9140    5.4190   12.9410 P.3   327  P6F327      0.5327
     18  O4P       11.3430    5.1310   11.4650 O.2   327  P6F327     -0.2224
     19  O5P       13.2800    6.2510   12.7690 O.3   327  P6F327     -0.1145
     20  O6P       10.9370    6.1380   13.7890 O.3   327  P6F327     -0.1145
@<TRIPOS>BOND
     1    18    17    2
     2    19    17    1
     3    17    16    1
     4    17    20    1
     5    16    15    1
     6    14    13    1
     7    15    13    1
     8    13    11    1
     9     3     1    2
    10    11     9    1
    11    11    12    1
    12     2     1    1
    13     9    10    1
    14     9     7    1
    15     6     5    1
    16     6     7    1
    17     1     5    1
    18     1     4    1
    19     7     8    2
