@<TRIPOS>MOLECULE
3gb9_A2F_A_1.pdb
 11 12 0 0 0
SMALL
GASTEIGER

@<TRIPOS>ATOM
      1  F        -23.3540    1.3890  -39.0790 F     300  A2F300     -0.0972
      2  C2       -22.4490    1.6540  -40.0100 C.1   300  A2F300      0.3076
      3  N3       -21.5440    2.6410  -39.7880 N.2   300  A2F300     -0.2608
      4  N1       -22.4750    0.9240  -41.1510 N.2   300  A2F300     -0.2959
      5  C6       -21.5670    1.1760  -42.1390 C.2   300  A2F300      0.2612
      6  N6       -21.5460    0.4640  -43.2920 N.pl3 300  A2F300     -0.0897
      7  C5       -20.6300    2.1700  -41.9360 C.2   300  A2F300      0.2005
      8  C4       -20.6240    2.9040  -40.7600 C.1   300  A2F300      0.1211
      9  N7       -19.6200    2.6380  -42.6700 N.2   300  A2F300     -0.2288
     10  C8       -19.0370    3.6040  -42.0120 C.3   300  A2F300      0.2627
     11  N9       -19.6090    3.7730  -40.8720 N.2   300  A2F300     -0.1807
@<TRIPOS>BOND
     1     6     5    1
     2     9    10    1
     3     9     7    2
     4     5     7    1
     5     5     4    2
     6    10    11    1
     7     7     8    1
     8     4     2    2
     9    11     8    2
    10     8     3    2
    11     2     3    2
    12     2     1    1
