@<TRIPOS>MOLECULE
3gba_DYH_A_1.pdb
 21 22 0 0 0
SMALL
GASTEIGER

@<TRIPOS>ATOM
      1  CAA      -12.9450   56.4700   50.2300 C.3   258  DYH258      0.1076
      2  NH       -13.8240   55.3500   49.8840 N.3   258  DYH258     -0.2127
      3  CAH      -14.9600   55.2470   50.8370 C.3   258  DYH258      0.1351
      4  CAG      -15.7400   53.9760   50.5360 C.3   258  DYH258      0.1997
      5  OAC      -16.0210   53.8550   49.1380 O.3   258  DYH258     -0.2189
      6  CAP      -17.0530   53.9740   51.2990 C.3   258  DYH258      0.1764
      7  OAQ      -17.8540   55.0610   50.8870 O.3   258  DYH258     -0.3509
      8  CAR      -17.2750   56.3240   51.2770 C.3   258  DYH258      0.1467
      9  CAS      -18.0060   57.4090   50.5200 C.3   258  DYH258      0.0704
     10  CAI      -15.8580   56.4880   50.7490 C.3   258  DYH258      0.1612
     11  OAJ      -16.0140   56.8060   49.3470 O.3   258  DYH258     -0.3461
     12  CAK      -17.2830   57.4320   49.1600 C.3   258  DYH258      0.1897
     13  CAE      -18.1120   56.6590   48.1350 C.2   258  DYH258      0.3886
     14  OAB      -17.7430   55.5050   47.8190 O.co2 258  DYH258     -0.2431
     15  OAF      -19.1060   57.2420   47.6900 O.co2 258  DYH258     -0.2431
     16  CB       -17.0880   58.8910   48.7430 C.3   258  DYH258      0.0690
     17  CA       -16.4560   59.0990   47.3520 C.3   258  DYH258      0.1972
     18  C        -16.7420   60.5240   46.9100 C.2   258  DYH258      0.3820
     19  OXT      -17.9360   60.8930   46.9840 O.co2 258  DYH258     -0.2440
     20  O        -15.7810   61.2340   46.5310 O.co2 258  DYH258     -0.2440
     21  N        -15.0090   58.8300   47.3170 N.3   258  DYH258     -0.1207
@<TRIPOS>BOND
     1    20    18   ar
     2    18    19   ar
     3    18    17    1
     4    21    17    1
     5    17    16    1
     6    15    13   ar
     7    14    13   ar
     8    13    12    1
     9    16    12    1
    10     5     4    1
    11    12    11    1
    12    12     9    1
    13    11    10    1
    14     2     1    1
    15     2     3    1
    16     9     8    1
    17     4     3    1
    18     4     6    1
    19    10     3    1
    20    10     8    1
    21     7     8    1
    22     7     6    1
