@<TRIPOS>MOLECULE
3gbb_MS8_A_1.pdb
 18 19 0 0 0
SMALL
GASTEIGER

@<TRIPOS>ATOM
      1  O         -0.8170   45.2370   -0.9810 O.co2 258  MS8258     -0.2440
      2  C         -1.0370   44.0780   -0.5690 C.2   258  MS8258      0.3820
      3  OXT       -1.5230   43.1350   -1.2330 O.co2 258  MS8258     -0.2440
      4  CA        -0.6620   43.7910    0.8850 C.3   258  MS8258      0.1972
      5  N         -0.9680   42.3940    1.2250 N.3   258  MS8258     -0.1207
      6  CB         0.8300   44.0870    1.0630 C.3   258  MS8258      0.0690
      7  CAS        1.2030   44.1780    2.5440 C.3   258  MS8258      0.1896
      8  CAJ        2.7070   44.4540    2.6510 C.3   258  MS8258      0.0704
      9  CAN        0.3910   45.2750    3.2340 C.2   258  MS8258      0.3886
     10  OAC       -0.1330   44.9940    4.3340 O.co2 258  MS8258     -0.2431
     11  OAE        0.2960   46.3700    2.6380 O.co2 258  MS8258     -0.2431
     12  OAL        1.0080   42.9110    3.1830 O.3   258  MS8258     -0.3476
     13  CAR        2.1810   42.1810    2.8020 C.3   258  MS8258      0.1428
     14  CAQ        3.2570   43.1570    3.2470 C.3   258  MS8258      0.1451
     15  CAH        2.2610   40.8620    3.5720 C.3   258  MS8258      0.0347
     16  CAP        2.4000   41.1160    5.0730 C.3   258  MS8258      0.0346
     17  CAG        3.5820   42.0530    5.3200 C.3   258  MS8258      0.1422
     18  OAK        3.2970   43.3040    4.6760 O.3   258  MS8258     -0.3537
@<TRIPOS>BOND
     1     3     2   ar
     2     1     2   ar
     3     2     4    1
     4     4     6    1
     5     4     5    1
     6     6     7    1
     7     7     8    1
     8     7    12    1
     9     7     9    1
    10    11     9   ar
    11     8    14    1
    12    13    12    1
    13    13    14    1
    14    13    15    1
    15     9    10   ar
    16    14    18    1
    17    15    16    1
    18    18    17    1
    19    16    17    1
