@<TRIPOS>MOLECULE
3gbe_NOJ_A_1.pdb
 11 11 0 0 0
SMALL
GASTEIGER

@<TRIPOS>ATOM
      1  C1        14.7580   37.5350   43.9990 C.3   8000  NOJ8000     0.1243
      2  C2        13.6700   38.2030   44.8930 C.3   8000  NOJ8000     0.2020
      3  O2        12.9730   37.2300   45.6300 O.3   8000  NOJ8000    -0.2188
      4  C3        12.6850   38.9840   43.9780 C.3   8000  NOJ8000     0.2151
      5  O3        11.6180   39.5710   44.7120 O.3   8000  NOJ8000    -0.2176
      6  C4        13.4910   40.1120   43.2790 C.3   8000  NOJ8000     0.2031
      7  O4        12.6110   40.8870   42.4100 O.3   8000  NOJ8000    -0.2187
      8  C5        14.6860   39.4810   42.4710 C.3   8000  NOJ8000     0.1386
      9  N5        15.5260   38.5940   43.2680 N.3   8000  NOJ8000    -0.2113
     10  C6        15.6330   40.5800   41.8760 C.3   8000  NOJ8000     0.2020
     11  O6        16.2290   41.2760   43.0650 O.3   8000  NOJ8000    -0.2188
@<TRIPOS>BOND
     1    10     8    1
     2    10    11    1
     3     7     6    1
     4     8     9    1
     5     8     6    1
     6     9     1    1
     7     6     4    1
     8     4     5    1
     9     4     2    1
    10     1     2    1
    11     2     3    1
