@<TRIPOS>MOLECULE
3gbg_PAM_A_1.pdb
 18 17 0 0 0
SMALL
GASTEIGER

@<TRIPOS>ATOM
      1  C1        56.1460   48.0320   21.2510 C.2   5975  PAM5975     0.3649
      2  O1        57.1710   47.7770   20.5810 O.co2 5975  PAM5975    -0.2457
      3  O2        55.9580   49.2050   21.6260 O.co2 5975  PAM5975    -0.2457
      4  C2        55.1600   46.9310   21.6030 C.3   5975  PAM5975     0.1141
      5  C3        53.7330   47.3840   21.2730 C.3   5975  PAM5975     0.0118
      6  C4        53.1270   46.5120   20.1840 C.3   5975  PAM5975     0.0006
      7  C5        52.3810   47.3560   19.1550 C.3   5975  PAM5975     0.0000
      8  C6        52.9860   47.1810   17.7650 C.3   5975  PAM5975     0.0003
      9  C7        52.1270   46.2610   16.9020 C.3   5975  PAM5975     0.0047
     10  C8        52.9910   45.3780   16.0140 C.3   5975  PAM5975     0.0257
     11  C9        52.4780   43.9320   16.0190 C.2   5975  PAM5975    -0.0307
     12  C10       53.2140   42.9120   16.4360 C.2   5975  PAM5975    -0.0307
     13  C11       54.6530   43.0860   16.9530 C.3   5975  PAM5975     0.0257
     14  C12       54.6950   43.2110   18.4750 C.3   5975  PAM5975     0.0047
     15  C13       54.8070   41.8500   19.1370 C.3   5975  PAM5975     0.0003
     16  C14       54.6480   41.9720   20.6460 C.3   5975  PAM5975     0.0000
     17  C15       54.7510   40.6070   21.3050 C.3   5975  PAM5975     0.0000
     18  C16       53.3730   40.0840   21.6900 C.3   5975  PAM5975     0.0000
@<TRIPOS>BOND
     1    10    11    1
     2    10     9    1
     3    11    12    2
     4    12    13    1
     5     9     8    1
     6    13    14    1
     7     8     7    1
     8    14    15    1
     9    15    16    1
    10     7     6    1
    11     6     5    1
    12     2     1   ar
    13    16    17    1
    14     1     4    1
    15     1     3   ar
    16     5     4    1
    17    17    18    1
