@<TRIPOS>MOLECULE
3gbh_FMN_A_1.pdb
 31 33 0 0 0
SMALL
GASTEIGER

@<TRIPOS>ATOM
      1  N1         1.4450   71.5010   40.3480 N.2   300  FMN300     -0.2890
      2  C2         1.1030   70.3610   41.0470 C.1   300  FMN300      0.3669
      3  O2         0.3560   69.5190   40.5120 O.2   300  FMN300     -0.1744
      4  N3         1.5820   70.1720   42.3370 N.2   300  FMN300     -0.2300
      5  C4         2.4090   71.1010   42.9500 C.1   300  FMN300      0.2513
      6  O4         2.8070   70.8590   44.1050 O.2   300  FMN300     -0.2057
      7  C4A        2.7540   72.2800   42.2500 C.2   300  FMN300      0.2700
      8  N5         3.5440   73.2690   42.8250 N.2   300  FMN300     -0.3878
      9  C5A        4.0900   74.2500   42.0100 C.2   300  FMN300      0.1320
     10  C6         5.1280   75.0530   42.4800 C.2   300  FMN300      0.0250
     11  C7         5.7100   76.0170   41.6980 C.2   300  FMN300     -0.0238
     12  C7M        6.8440   76.8580   42.2260 C.3   300  FMN300      0.0308
     13  C8         5.2480   76.2030   40.4080 C.2   300  FMN300     -0.0280
     14  C8M        5.8990   77.2390   39.5480 C.3   300  FMN300      0.0304
     15  C9         4.2220   75.4160   39.9140 C.2   300  FMN300     -0.0041
     16  C9A        3.6150   74.4300   40.7090 C.3   300  FMN300      0.1497
     17  N10        2.5790   73.6180   40.2420 N.pl3 300  FMN300     -0.2691
     18  C10        2.2460   72.4790   40.9510 C.2   300  FMN300      0.2416
     19  C1'        2.0790   73.7580   38.8090 C.3   300  FMN300      0.1294
     20  C2'        1.1770   74.9800   38.7160 C.3   300  FMN300      0.2044
     21  O2'       -0.1350   74.6820   39.1750 O.3   300  FMN300     -0.2185
     22  C3'        1.0830   75.4080   37.2600 C.3   300  FMN300      0.2164
     23  O3'        2.3550   75.7710   36.7930 O.3   300  FMN300     -0.2175
     24  C4'        0.0910   76.5390   37.0390 C.3   300  FMN300      0.2147
     25  O4'       -1.1840   75.9860   37.3320 O.3   300  FMN300     -0.2176
     26  C5'        0.1860   77.0420   35.5990 C.3   300  FMN300      0.1892
     27  O5'       -0.1260   76.0030   34.6530 O.3   300  FMN300     -0.2674
     28  P          0.9380   75.5820   33.5290 P.3   300  FMN300      0.5327
     29  O1P        0.3680   74.4240   32.7170 O.3   300  FMN300     -0.1145
     30  O2P        2.2200   75.1640   34.2070 O.3   300  FMN300     -0.1145
     31  O3P        1.2930   76.7060   32.6310 O.2   300  FMN300     -0.2224
@<TRIPOS>BOND
     1    31    28    2
     2    29    28    1
     3    28    30    1
     4    28    27    1
     5    27    26    1
     6    26    24    1
     7    23    22    1
     8    24    22    1
     9    24    25    1
    10    22    20    1
    11    20    19    1
    12    20    21    1
    13    19    17    1
    14    14    13    1
    15    15    13    2
    16    15    16    1
    17    17    16    1
    18    17    18    1
    19     1    18    2
    20     1     2    2
    21    13    11    1
    22     3     2    2
    23    16     9    1
    24    18     7    1
    25     2     4    2
    26    11    12    1
    27    11    10    2
    28     9    10    1
    29     9     8    2
    30     7     8    2
    31     7     5    1
    32     4     5    2
    33     5     6    2
