@<TRIPOS>MOLECULE
3gbj_ADP_A_1.pdb
 27 29 0 0 0
SMALL
GASTEIGER

@<TRIPOS>ATOM
      1  PB       -19.1830  -24.7770    7.4380 P.3   2001  ADP2001     0.5373
      2  O1B      -18.5670  -23.9270    6.3620 O.2   2001  ADP2001    -0.2221
      3  O2B      -18.7200  -24.3990    8.8290 O.3   2001  ADP2001    -0.1143
      4  O3B      -20.6860  -24.8900    7.3050 O.3   2001  ADP2001    -0.1143
      5  PA       -17.6770  -26.7490    6.0520 P.3   2001  ADP2001     0.2231
      6  O1A      -16.3030  -26.2780    6.4400 O.3   2001  ADP2001    -0.4370
      7  O2A      -18.2860  -26.3300    4.7400 O.2   2001  ADP2001    -0.5169
      8  O3A      -18.6860  -26.2880    7.2160 O.3   2001  ADP2001    -0.2261
      9  O5'      -17.6960  -28.3490    6.1560 O.3   2001  ADP2001    -0.3111
     10  C5'      -17.4150  -29.0320    7.3820 C.3   2001  ADP2001     0.1813
     11  C4'      -16.5290  -30.2170    7.0240 C.3   2001  ADP2001     0.1821
     12  O4'      -17.3070  -31.2320    6.3880 O.3   2001  ADP2001    -0.3135
     13  C3'      -15.4850  -29.7690    6.0150 C.3   2001  ADP2001     0.2184
     14  O3'      -14.2670  -30.4930    6.2350 O.3   2001  ADP2001    -0.2174
     15  C2'      -16.0620  -30.1720    4.6770 C.3   2001  ADP2001     0.2570
     16  O2'      -15.0180  -30.5060    3.7650 O.3   2001  ADP2001    -0.2130
     17  C1'      -16.9360  -31.3670    5.0080 C.3   2001  ADP2001     0.3186
     18  N9       -18.1730  -31.3730    4.1780 N.pl3 2001  ADP2001    -0.1439
     19  C8       -19.1810  -30.4750    4.2570 C.3   2001  ADP2001     0.3377
     20  N7       -20.1670  -30.7730    3.3750 N.2   2001  ADP2001    -0.2095
     21  C5       -19.7830  -31.8740    2.7010 C.2   2001  ADP2001     0.2526
     22  C6       -20.3480  -32.7140    1.6270 C.2   2001  ADP2001     0.4393
     23  N6       -21.5530  -32.4130    1.0760 N.pl3 2001  ADP2001     0.2180
     24  N1       -19.6290  -33.7800    1.2150 N.2   2001  ADP2001     0.0021
     25  C2       -18.4310  -34.0840    1.7490 C.3   2001  ADP2001     0.5254
     26  N3       -17.8520  -33.3640    2.7270 N.2   2001  ADP2001    -0.0055
     27  C4       -18.4710  -32.2690    3.2380 C.2   2001  ADP2001     0.3518
@<TRIPOS>BOND
     1    23    22    1
     2    24    22    2
     3    24    25    1
     4    22    21    1
     5    25    26    1
     6    21    27    1
     7    21    20    2
     8    26    27    2
     9    27    18    1
    10    20    19    1
    11    16    15    1
    12    18    19    1
    13    18    17    1
    14    15    17    1
    15    15    13    1
    16     7     5    2
    17    17    12    1
    18    13    14    1
    19    13    11    1
    20     5     9    1
    21     5     6    1
    22     5     8    1
    23     9    10    1
    24     2     1    2
    25    12    11    1
    26    11    10    1
    27     8     1    1
    28     4     1    1
    29     1     3    1
