@<TRIPOS>MOLECULE
3gbk_2PQ_A_1.pdb
 44 48 0 0 0
SMALL
GASTEIGER

@<TRIPOS>ATOM
      1  CAB       32.9110   -5.3960   47.1060 C.ar  1385  2PQ1385     0.0000
      2  CAC       32.7770   -5.9450   48.3720 C.ar  1385  2PQ1385     0.0000
      3  CAD       32.9560   -7.3170   48.5270 C.ar  1385  2PQ1385     0.0000
      4  CAE       33.2710   -8.1340   47.4370 C.ar  1385  2PQ1385     0.0000
      5  CAF       33.3990   -7.5920   46.1650 C.ar  1385  2PQ1385     0.0000
      6  CAA       33.2180   -6.2250   46.0130 C.ar  1385  2PQ1385     0.0000
      7  CAJ       33.3520   -5.6580   44.7550 C.ar  1385  2PQ1385     0.0000
      8  CAK       34.5440   -5.8380   44.0460 C.ar  1385  2PQ1385     0.0001
      9  CAL       34.7020   -5.2780   42.7880 C.ar  1385  2PQ1385     0.0032
     10  CAI       32.2850   -4.9050   44.2380 C.ar  1385  2PQ1385     0.0001
     11  CAH       32.4410   -4.3300   42.9850 C.ar  1385  2PQ1385     0.0032
     12  CAG       33.6410   -4.5160   42.2670 C.ar  1385  2PQ1385     0.0390
     13  CBP       33.7310   -3.8710   40.8940 C.2   1385  2PQ1385     0.1955
     14  OBQ       32.6850   -3.7050   40.2850 O.2   1385  2PQ1385    -0.2866
     15  CAP       35.0750   -3.4840   40.2820 C.ar  1385  2PQ1385     0.0388
     16  CAO       35.2060   -3.4710   38.8870 C.ar  1385  2PQ1385     0.0019
     17  CAN       36.4380   -3.1600   38.2940 C.ar  1385  2PQ1385     0.0119
     18  CBM       36.5310   -3.1360   36.7610 C.3   1385  2PQ1385     0.0294
     19  CBN       35.5060   -3.9630   36.0070 C.3   1385  2PQ1385     0.0048
     20  CBO       35.5370   -3.5540   34.5440 C.3   1385  2PQ1385     0.0004
     21  CAQ       36.1900   -3.1820   41.0890 C.ar  1385  2PQ1385     0.0063
     22  CAR       37.4320   -2.8570   40.5130 C.ar  1385  2PQ1385     0.0367
     23  CAM       37.5560   -2.8550   39.1150 C.ar  1385  2PQ1385     0.1345
     24  OBL       38.7350   -2.5330   38.4810 O.3   1385  2PQ1385    -0.4757
     25  CBK       40.0690   -2.5700   39.0790 C.3   1385  2PQ1385     0.2072
     26  CBJ       41.0530   -3.1080   38.0380 C.3   1385  2PQ1385     0.0687
     27  CBI       40.2890   -3.6540   36.8220 C.3   1385  2PQ1385     0.0946
     28  NAX       40.3710   -5.1630   36.6130 N.pl3 1385  2PQ1385    -0.3075
     29  CAY       41.3180   -5.9980   37.4080 C.3   1385  2PQ1385     0.0911
     30  CAZ       40.6600   -7.3280   37.8340 C.3   1385  2PQ1385     0.0262
     31  CBA       40.1720   -8.1230   36.6340 C.3   1385  2PQ1385     0.0324
     32  CAV       39.4570   -7.2160   35.6070 C.ar  1385  2PQ1385     0.0251
     33  CAW       39.5770   -5.8030   35.6160 C.ar  1385  2PQ1385     0.0467
     34  CBH       38.8970   -5.0230   34.6640 C.ar  1385  2PQ1385     0.0144
     35  CAT       38.1230   -5.6190   33.6840 C.ar  1385  2PQ1385     0.0044
     36  CAS       38.0250   -7.0100   33.6440 C.ar  1385  2PQ1385     0.0367
     37  CAU       38.6740   -7.8170   34.6110 C.ar  1385  2PQ1385     0.1361
     38  OBE       38.6440   -9.2090   34.6390 O.3   1385  2PQ1385    -0.4721
     39  CBD       37.6670  -10.0970   34.0900 C.3   1385  2PQ1385     0.2253
     40  CBF       38.0450  -11.5480   34.4480 C.3   1385  2PQ1385     0.0554
     41  CBG       36.3070   -9.7640   34.6900 C.3   1385  2PQ1385     0.0554
     42  CBB       37.6120   -9.9710   32.5500 C.2   1385  2PQ1385     0.4000
     43  OBR       38.5740  -10.4020   31.8750 O.co2 1385  2PQ1385    -0.2418
     44  OBC       36.5950   -9.4200   32.0750 O.co2 1385  2PQ1385    -0.2418
@<TRIPOS>BOND
     1    43    42   ar
     2    44    42   ar
     3    42    39    1
     4    36    35   ar
     5    36    37   ar
     6    35    34   ar
     7    39    40    1
     8    39    38    1
     9    39    41    1
    10    20    19    1
    11    37    38    1
    12    37    32   ar
    13    34    33   ar
    14    32    33   ar
    15    32    31    1
    16    33    28    1
    17    19    18    1
    18    28    27    1
    19    28    29    1
    20    31    30    1
    21    18    17    1
    22    27    26    1
    23    29    30    1
    24    26    25    1
    25    17    16   ar
    26    17    23   ar
    27    24    25    1
    28    24    23    1
    29    16    15   ar
    30    23    22   ar
    31    15    13    1
    32    15    21   ar
    33    14    13    2
    34    22    21   ar
    35    13    12    1
    36    12     9   ar
    37    12    11   ar
    38     9     8   ar
    39    11    10   ar
    40     8     7   ar
    41    10     7   ar
    42     7     6    1
    43     6     5   ar
    44     6     1   ar
    45     5     4   ar
    46     1     2   ar
    47     4     3   ar
    48     2     3   ar
