@<TRIPOS>MOLECULE
3gbp_BGC_A_1.pdb
 24 24 0 0 0
SMALL
GASTEIGER

@<TRIPOS>ATOM
      1  C2        81.3950   28.0050   85.8940 C.3   308  BGC308      0.1339
      2  C3        81.7550   28.2720   87.3510 C.3   308  BGC308      0.1141
      3  C4        83.2690   28.0810   87.4680 C.3   308  BGC308      0.1119
      4  C5        83.9820   29.1710   86.6790 C.3   308  BGC308      0.1130
      5  C6        85.5220   29.0800   86.7860 C.3   308  BGC308      0.0730
      6  C1        82.1600   29.0290   85.0110 C.3   308  BGC308      0.1854
      7  O1        81.9280   28.7050   83.6740 O.3   308  BGC308     -0.3649
      8  O2        79.9850   28.0550   85.7400 O.3   308  BGC308     -0.3841
      9  O3        81.0430   27.4680   88.2710 O.3   308  BGC308     -0.3864
     10  O4        83.5380   28.1880   88.8090 O.3   308  BGC308     -0.3865
     11  O5        83.5680   29.0420   85.2890 O.3   308  BGC308     -0.3407
     12  O6        86.1410   30.0800   85.9990 O.3   308  BGC308     -0.3924
     13  H2        81.7170   26.9930   85.6060 H     308  BGC308      0.0671
     14  H3        81.4930   29.3170   87.5490 H     308  BGC308      0.0648
     15  H4        83.5870   27.0900   87.1020 H     308  BGC308      0.0647
     16  H5        83.6820   30.1660   87.0380 H     308  BGC308      0.0647
     17 H6C1       85.8670   28.0840   86.4630 H     308  BGC308      0.0584
     18 H6C2       85.8250   29.1890   87.8380 H     308  BGC308      0.0584
     19  H1        81.7910   30.0540   85.1750 H     308  BGC308      0.0935
     20  HA        82.7470   28.6720   83.1620 H     308  BGC308      0.2126
     21  HB        79.6570   28.9100   86.0290 H     308  BGC308      0.2101
     22  HC        80.2370   27.1990   87.7940 H     308  BGC308      0.2100
     23  HD        82.7720   28.5760   89.2490 H     308  BGC308      0.2100
     24  H6        86.9420   29.6820   85.6060 H     308  BGC308      0.2095
@<TRIPOS>BOND
     1    20     7    1
     2     7     6    1
     3     6    19    1
     4     6    11    1
     5     6     1    1
     6    11     4    1
     7    13     1    1
     8    24    12    1
     9     8     1    1
    10     8    21    1
    11     1     2    1
    12    12     5    1
    13    17     5    1
    14     4     5    1
    15     4    16    1
    16     4     3    1
    17     5    18    1
    18    15     3    1
    19     2     3    1
    20     2    14    1
    21     2     9    1
    22     3    10    1
    23    22     9    1
    24    10    23    1
