@<TRIPOS>MOLECULE
3gbr_PRP_A_1.pdb
 22 22 0 0 0
SMALL
GASTEIGER

@<TRIPOS>ATOM
      1  C1        31.7940   -4.3510   12.6670 C.3   401  PRP401      0.2742
      2  C2        32.5490   -5.5700   12.3600 C.3   401  PRP401      0.2408
      3  C3        31.6040   -6.6580   12.0960 C.3   401  PRP401      0.2167
      4  C4        30.2790   -6.1190   12.6260 C.3   401  PRP401      0.1808
      5  C5        29.6970   -6.9510   13.7570 C.3   401  PRP401      0.1859
      6  O1        31.5750   -3.7500   11.4060 O.3   401  PRP401     -0.2857
      7  O2        33.8550   -5.5580   11.8450 O.3   401  PRP401     -0.2149
      8  O3        31.5360   -6.8300   10.6770 O.3   401  PRP401     -0.2175
      9  O4        30.5300   -4.8070   13.1380 O.3   401  PRP401     -0.3255
     10  O5        30.6530   -7.0360   14.8130 O.3   401  PRP401     -0.2675
     11  P         30.6240   -8.2260   15.9020 P.3   401  PRP401      0.5327
     12  O1P       29.3480   -8.0660   16.6950 O.3   401  PRP401     -0.1145
     13  O2P       30.6910   -9.4810   15.0570 O.2   401  PRP401     -0.2224
     14  O3P       31.8500   -7.9610   16.7420 O.3   401  PRP401     -0.1145
     15  PA        31.7580   -2.2110   11.0700 P.3   401  PRP401      0.2249
     16  O1A       31.9500   -1.4100   12.3370 O.3   401  PRP401     -0.4370
     17  O2A       30.6380   -1.9020   10.1130 O.2   401  PRP401     -0.5169
     18  O3A       33.1620   -2.2290   10.3050 O.3   401  PRP401     -0.2260
     19  PB        33.3480   -2.7990    8.8210 P.3   401  PRP401      0.5373
     20  O1B       31.9400   -2.7590    8.1950 O.2   401  PRP401     -0.2221
     21  O2B       34.0480   -4.0990    9.1540 O.3   401  PRP401     -0.1143
     22  O3B       34.4080   -1.8540    8.2770 O.3   401  PRP401     -0.1143
@<TRIPOS>BOND
     1    20    19    2
     2    22    19    1
     3    19    21    1
     4    19    18    1
     5    17    15    2
     6    18    15    1
     7     8     3    1
     8    15     6    1
     9    15    16    1
    10     6     1    1
    11     7     2    1
    12     3     2    1
    13     3     4    1
    14     2     1    1
    15     4     9    1
    16     4     5    1
    17     1     9    1
    18     5    10    1
    19    10    11    1
    20    13    11    2
    21    11    12    1
    22    11    14    1
