@<TRIPOS>MOLECULE
3gbu_ATP_A_1.pdb
 31 33 0 0 0
SMALL
GASTEIGER

@<TRIPOS>ATOM
      1  PG        12.4920   13.4980   22.9960 P.3   900  ATP900      0.5373
      2  O1G       11.1110   13.1270   22.5370 O.3   900  ATP900     -0.1143
      3  O2G       13.0400   12.5110   24.0080 O.3   900  ATP900     -0.1143
      4  O3G       13.4370   13.7340   21.8200 O.2   900  ATP900     -0.2221
      5  PB        13.1780   16.2660   23.7170 P.3   900  ATP900      0.2277
      6  O1B       13.0280   17.0990   24.9720 O.3   900  ATP900     -0.4368
      7  O2B       14.5160   15.7730   23.2830 O.2   900  ATP900     -0.5168
      8  O3B       12.2770   14.9100   23.7530 O.3   900  ATP900     -0.2258
      9  PA        13.3340   18.0000   21.3800 P.3   900  ATP900      0.2189
     10  O1A       14.5520   17.2630   20.8550 O.3   900  ATP900     -0.4371
     11  O2A       12.3230   18.4900   20.3930 O.2   900  ATP900     -0.5170
     12  O3A       12.5300   17.1130   22.5000 O.3   900  ATP900     -0.2700
     13  O5'       13.7920   19.2370   22.3070 O.3   900  ATP900     -0.3112
     14  C5'       15.1460   19.4600   22.7120 C.3   900  ATP900      0.1813
     15  C4'       15.4000   20.9660   22.6130 C.3   900  ATP900      0.1821
     16  O4'       16.3690   21.1430   21.5710 O.3   900  ATP900     -0.3135
     17  C3'       14.2060   21.8010   22.1440 C.3   900  ATP900      0.2184
     18  O3'       13.3910   22.2580   23.2020 O.3   900  ATP900     -0.2174
     19  C2'       14.8350   22.9140   21.3740 C.3   900  ATP900      0.2570
     20  O2'       15.1510   24.0480   22.1860 O.3   900  ATP900     -0.2130
     21  C1'       16.0750   22.2950   20.7800 C.3   900  ATP900      0.3186
     22  N9        15.7370   21.9600   19.3540 N.pl3 900  ATP900     -0.1439
     23  C8        15.2070   20.8170   18.8340 C.3   900  ATP900      0.3377
     24  N7        15.0470   20.9070   17.4850 N.2   900  ATP900     -0.2095
     25  C5        15.4810   22.1240   17.1180 C.2   900  ATP900      0.2526
     26  C6        15.6110   22.9000   15.8600 C.2   900  ATP900      0.4393
     27  N6        15.2280   22.3640   14.6920 N.pl3 900  ATP900      0.2180
     28  N1        16.1270   24.1720   15.9250 N.2   900  ATP900      0.0021
     29  C2        16.5270   24.7490   17.0970 C.3   900  ATP900      0.5254
     30  N3        16.4370   24.1000   18.2800 N.2   900  ATP900     -0.0055
     31  C4        15.9390   22.8160   18.3510 C.2   900  ATP900      0.3518
@<TRIPOS>BOND
     1    27    26    1
     2    26    28    2
     3    26    25    1
     4    28    29    1
     5    29    30    1
     6    25    24    2
     7    25    31    1
     8    24    23    1
     9    30    31    2
    10    31    22    1
    11    23    22    1
    12    22    21    1
    13    11     9    2
    14    21    19    1
    15    21    16    1
    16    10     9    1
    17    19    17    1
    18    19    20    1
    19     9    13    1
    20     9    12    1
    21    16    15    1
    22     4     1    2
    23    17    15    1
    24    17    18    1
    25    13    14    1
    26    12     5    1
    27     2     1    1
    28    15    14    1
    29     1     8    1
    30     1     3    1
    31     7     5    2
    32     5     8    1
    33     5     6    1
