@<TRIPOS>MOLECULE
3gc0_AMP_A_1.pdb
 23 25 0 0 0
SMALL
GASTEIGER

@<TRIPOS>ATOM
      1  P         -0.9740    5.0280   -3.3090 P.3   309  AMP309      0.5327
      2  O1P       -1.1470    3.5530   -3.5830 O.3   309  AMP309     -0.1145
      3  O2P       -1.8150    6.0000   -4.0940 O.2   309  AMP309     -0.2224
      4  O3P       -0.9660    5.3550   -1.8200 O.3   309  AMP309     -0.1145
      5  O5'        0.4840    5.3810   -3.8900 O.3   309  AMP309     -0.2675
      6  C5'        1.6020    5.6890   -3.0710 C.3   309  AMP309      0.1860
      7  C4'        2.5070    6.6570   -3.8270 C.3   309  AMP309      0.1823
      8  O4'        2.9120    6.1410   -5.1060 O.3   309  AMP309     -0.3135
      9  C3'        1.8060    7.9630   -4.1430 C.3   309  AMP309      0.2184
     10  O3'        2.7810    9.0020   -4.1120 O.3   309  AMP309     -0.2174
     11  C2'        1.3200    7.8470   -5.5720 C.3   309  AMP309      0.2570
     12  O2'        1.3740    9.1270   -6.2290 O.3   309  AMP309     -0.2130
     13  C1'        2.3780    6.9320   -6.1700 C.3   309  AMP309      0.3186
     14  N9         1.9570    5.9540   -7.2190 N.pl3 309  AMP309     -0.1439
     15  C8         1.1430    4.8680   -7.0920 C.3   309  AMP309      0.3377
     16  N7         1.0690    4.1950   -8.2720 N.2   309  AMP309     -0.2095
     17  C5         1.8540    4.8580   -9.1610 C.2   309  AMP309      0.2526
     18  C6         2.2260    4.7190  -10.5850 C.2   309  AMP309      0.4393
     19  N6         1.7600    3.6890  -11.3250 N.pl3 309  AMP309      0.2180
     20  N1         3.0520    5.6400  -11.1300 N.2   309  AMP309      0.0021
     21  C2         3.5180    6.6750  -10.4100 C.3   309  AMP309      0.5254
     22  N3         3.2210    6.8840   -9.1130 N.2   309  AMP309     -0.0055
     23  C4         2.4220    6.0140   -8.4600 C.2   309  AMP309      0.3518
@<TRIPOS>BOND
     1    19    18    1
     2    20    18    2
     3    20    21    1
     4    18    17    1
     5    21    22    1
     6    17    23    1
     7    17    16    2
     8    22    23    2
     9    23    14    1
    10    16    15    1
    11    14    15    1
    12    14    13    1
    13    12    11    1
    14    13    11    1
    15    13     8    1
    16    11     9    1
    17     8     7    1
    18     9    10    1
    19     9     7    1
    20     3     1    2
    21     5     1    1
    22     5     6    1
    23     7     6    1
    24     2     1    1
    25     1     4    1
