@<TRIPOS>MOLECULE
3gc1_HEM_A_1.pdb
 43 49 0 0 0
SMALL
GASTEIGER

@<TRIPOS>ATOM
      1  CHA        8.9940    0.1180   28.2470 C.2   605  HEM605      0.0000
      2  CHB        9.7380    4.8210   28.4470 C.2   605  HEM605      0.0000
      3  CHC       10.7650    4.6510   23.7300 C.2   605  HEM605      0.0000
      4  CHD       10.4110   -0.0310   23.4810 C.2   605  HEM605      0.0000
      5  C1A        9.0440    1.3510   28.7350 C.2   605  HEM605      0.0000
      6  C2A        8.8330    1.7210   30.2050 C.2   605  HEM605      0.0000
      7  C3A        9.0630    3.0490   30.2920 C.2   605  HEM605      0.0000
      8  C4A        9.4080    3.4970   28.9090 C.2   605  HEM605      0.0000
      9  CMA        8.9670    3.8890   31.6610 C.3   605  HEM605      0.0000
     10  CAA        8.4420    0.8750   31.4190 C.3   605  HEM605      0.0000
     11  CBA        8.9060   -0.5540   31.3950 C.3   605  HEM605      0.0000
     12  CGA        9.1560   -0.9630   32.8270 C.2   605  HEM605      0.0000
     13  O1A        8.8310   -0.2110   33.7570 O.co2 605  HEM605      0.0000
     14  O2A        9.6810   -2.0580   32.9810 O.co2 605  HEM605      0.0000
     15  C1B       10.0140    5.1950   27.1340 C.ar  605  HEM605      0.0000
     16  C2B       10.1440    6.5760   26.5790 C.ar  605  HEM605      0.0000
     17  C3B       10.4130    6.4700   25.2140 C.ar  605  HEM605      0.0000
     18  C4B       10.4740    5.0560   24.9570 C.ar  605  HEM605      0.0000
     19  CMB       10.0170    7.9800   27.3130 C.3   605  HEM605      0.0000
     20  CAB       10.6460    7.6000   24.0830 C.3   605  HEM605      0.0000
     21  CBB       10.8830    8.9420   24.3030 C.3   605  HEM605      0.0000
     22  C1C       10.7750    3.3980   23.3080 C.1   605  HEM605      0.0000
     23  C2C       11.1540    3.1250   21.9400 C.2   605  HEM605      0.0000
     24  C3C       11.1000    1.7830   21.8070 C.2   605  HEM605      0.0000
     25  C4C       10.6520    1.3010   23.0920 C.2   605  HEM605      0.0000
     26  CMC       11.5350    4.2790   20.9310 C.3   605  HEM605      0.0000
     27  CAC       11.3910    0.8700   20.5670 C.2   605  HEM605      0.0000
     28  CBC       12.1730    1.1560   19.5080 C.2   605  HEM605      0.0000
     29  C1D        9.9620   -0.3450   24.8280 C.ar  605  HEM605      0.0000
     30  C2D        9.6660   -1.6960   25.1740 C.ar  605  HEM605      0.0000
     31  C3D        9.1960   -1.6370   26.6070 C.ar  605  HEM605      0.0000
     32  C4D        9.2940   -0.2270   26.9790 C.ar  605  HEM605      0.0000
     33  CMD        9.7730   -2.9490   24.2570 C.3   605  HEM605      0.0000
     34  CAD        8.7040   -2.8840   27.4660 C.3   605  HEM605      0.0000
     35  CBD        7.2210   -2.9540   26.9750 C.3   605  HEM605      0.0000
     36  CGD        6.5040   -4.2160   27.5640 C.2   605  HEM605      0.0000
     37  O1D        6.3370   -5.1590   26.7470 O.co2 605  HEM605      0.0000
     38  O2D        6.0720   -4.2320   28.7530 O.co2 605  HEM605      0.0000
     39  NA         9.3920    2.4280   28.0550 N.2   605  HEM605      0.0000
     40  NB        10.2180    4.2580   26.1250 N.ar  605  HEM605      0.0000
     41  NC        10.4730    2.3000   23.9620 N.2   605  HEM605      0.0000
     42  ND         9.7670    0.5280   25.9240 N.ar  605  HEM605      0.0000
     43 FE         10.4740    2.4240   26.4600 Fe    605  HEM605      0.0000
@<TRIPOS>BOND
     1    28    27    2
     2    27    24    1
     3    26    23    1
     4    24    23    2
     5    24    25    1
     6    23    22    1
     7    25     4    1
     8    25    41    2
     9    22     3    2
    10    22    41    2
    11     4    29    2
    12     3    18    1
    13    20    21    1
    14    20    17    1
    15    33    30    1
    16    29    30   ar
    17    29    42   ar
    18    18    17   ar
    19    18    40   ar
    20    30    31   ar
    21    17    16   ar
    22    42    43    1
    23    42    32   ar
    24    40    43    1
    25    40    15   ar
    26    43    39    1
    27    16    15   ar
    28    16    19    1
    29    31    32   ar
    30    31    34    1
    31    37    36   ar
    32    35    34    1
    33    35    36    1
    34    32     1    2
    35    15     2    1
    36    36    38   ar
    37    39     5    2
    38    39     8    1
    39     1     5    1
    40     2     8    2
    41     5     6    1
    42     8     7    1
    43     6     7    2
    44     6    10    1
    45     7     9    1
    46    11    10    1
    47    11    12    1
    48    12    14   ar
    49    12    13   ar
