@<TRIPOS>MOLECULE
3gc4_AAQ_A_1.pdb
 27 30 0 0 0
SMALL
GASTEIGER

@<TRIPOS>ATOM
      1  N1        19.1940   17.7830   18.0840 N.2   395  AAQ395     -0.3247
      2  C3        18.4630   17.4240   19.1900 C.2   395  AAQ395      0.1724
      3  C2        18.7390   17.4460   20.5560 C.2   395  AAQ395      0.0504
      4  C4        17.6900   17.0930   21.4020 C.2   395  AAQ395      0.1247
      5  C5        16.4550   16.6170   20.9130 C.2   395  AAQ395      0.1410
      6  C6        16.2410   16.5210   19.5190 C.3   395  AAQ395      0.1114
      7  C7        14.9170   16.1430   18.8990 C.3   395  AAQ395      0.0331
      8  C8        15.0480   14.7270   18.3610 C.3   395  AAQ395      0.0899
      9  N2        14.1730   14.5010   17.1950 N.3   395  AAQ395     -0.2133
     10  C9        12.7390   14.3210   17.5730 C.3   395  AAQ395      0.1150
     11  C10       11.9520   15.4770   17.0370 C.ar  395  AAQ395     -0.0048
     12  C11       11.7080   16.5890   17.8340 C.ar  395  AAQ395     -0.0029
     13  C12       10.9800   17.6800   17.3630 C.ar  395  AAQ395     -0.0003
     14  C13       10.4960   17.6270   16.0620 C.ar  395  AAQ395     -0.0000
     15  C14       10.7350   16.5180   15.2530 C.ar  395  AAQ395     -0.0003
     16  C15       11.4640   15.4320   15.7310 C.ar  395  AAQ395     -0.0029
     17  C16       17.2660   16.9660   18.6650 C.2   395  AAQ395      0.1592
     18  N3        17.2590   17.0560   17.2950 N.2   395  AAQ395     -0.3284
     19  C17       18.3810   17.6530   16.9790 C.1   395  AAQ395      0.2200
     20  N4        18.9100   17.8630   15.7620 N.pl3 395  AAQ395     -0.1499
     21  C1        18.0740   17.7240   14.5990 C.3   395  AAQ395      0.1504
     22  N5        15.4210   16.3180   21.8320 N.2   395  AAQ395     -0.3286
     23  C18       15.5640   16.5040   23.1180 C.1   395  AAQ395      0.2515
     24  N6        14.6120   16.0810   24.0300 N.pl3 395  AAQ395     -0.0226
     25  N7        16.7650   16.9430   23.6460 N.2   395  AAQ395     -0.2501
     26  C19       17.8760   17.2060   22.8550 C.1   395  AAQ395      0.2180
     27  O1        18.9780   17.5150   23.3130 O.2   395  AAQ395     -0.2085
@<TRIPOS>BOND
     1    21    20    1
     2    15    16   ar
     3    15    14   ar
     4    16    11   ar
     5    20    19    1
     6    14    13   ar
     7    19    18    2
     8    19     1    2
     9    11    10    1
    10    11    12   ar
    11     9    10    1
    12     9     8    1
    13    18    17    2
    14    13    12   ar
    15     1     2    2
    16     8     7    1
    17    17     2    1
    18    17     6    1
    19     7     6    1
    20     2     3    1
    21     6     5    1
    22     3     4    2
    23     5     4    1
    24     5    22    2
    25     4    26    1
    26    22    23    2
    27    26    27    2
    28    26    25    2
    29    23    25    2
    30    23    24    1
