@<TRIPOS>MOLECULE
3gc5_2MQ_A_1.pdb
 20 22 0 0 0
SMALL
GASTEIGER

@<TRIPOS>ATOM
      1  C2        17.7530   17.0200   23.2150 C.1   400  2MQ400      0.2180
      2  O19       18.8610   17.3540   23.6670 O.2   400  2MQ400     -0.2085
      3  N3        16.7300   16.6860   23.9790 N.2   400  2MQ400     -0.2501
      4  C4        15.5830   16.2690   23.4620 C.1   400  2MQ400      0.2515
      5  N20       14.5810   15.9940   24.2690 N.pl3 400  2MQ400     -0.0226
      6  N5        15.4180   16.1260   22.1830 N.2   400  2MQ400     -0.3286
      7  C6        16.3800   16.4370   21.2420 C.2   400  2MQ400      0.1410
      8  C10       16.1120   16.4660   19.8640 C.3   400  2MQ400      0.1114
      9  C16       14.7760   16.0480   19.2000 C.3   400  2MQ400      0.0348
     10  C17       14.9090   14.5750   18.6350 C.3   400  2MQ400      0.1102
     11  N18       13.8940   14.3930   17.5800 N.3   400  2MQ400     -0.1314
     12  C9        17.1210   16.9270   19.0120 C.2   400  2MQ400      0.1592
     13  N11       17.1880   17.0350   17.6650 N.2   400  2MQ400     -0.3284
     14  C12       18.3380   17.5260   17.3620 C.1   400  2MQ400      0.2200
     15  N14       18.7880   17.7640   16.1430 N.pl3 400  2MQ400     -0.1499
     16  C15       18.0510   17.6040   14.9130 C.3   400  2MQ400      0.1504
     17  N13       19.1160   17.6320   18.4150 N.2   400  2MQ400     -0.3247
     18  C8        18.3990   17.2280   19.4760 C.2   400  2MQ400      0.1724
     19  C7        18.6570   17.2870   20.8440 C.2   400  2MQ400      0.0504
     20  C1        17.6060   16.9260   21.7080 C.2   400  2MQ400      0.1247
@<TRIPOS>BOND
     1    16    15    1
     2    15    14    1
     3    14    13    2
     4    14    17    2
     5    11    10    1
     6    13    12    2
     7    17    18    2
     8    10     9    1
     9    12    18    1
    10    12     8    1
    11     9     8    1
    12    18    19    1
    13     8     7    1
    14    19    20    2
    15     7    20    1
    16     7     6    2
    17    20     1    1
    18     6     4    2
    19     1     2    2
    20     1     3    2
    21     4     3    2
    22     4     5    1
