@<TRIPOS>MOLECULE
3gc7_B45_A_1.pdb
 36 40 0 0 0
SMALL
GASTEIGER

@<TRIPOS>ATOM
      1  C6        26.7000   10.6920   33.0660 C.ar  361  B45361      0.0018
      2  C21       17.9970   13.7020   30.2660 C.ar  361  B45361      0.0031
      3  C22       16.6440   13.6790   30.0000 C.ar  361  B45361      0.0297
      4  C1        25.6380   10.2580   33.8250 C.ar  361  B45361      0.0127
      5  C5        26.4910   11.1720   31.7910 C.ar  361  B45361      0.0127
      6  C17       20.5570   14.2810   32.1190 C.ar  361  B45361     -0.0044
      7  C19       22.6580   13.1610   32.1710 C.ar  361  B45361      0.0114
      8  C24       16.2430   12.4860   32.0330 C.ar  361  B45361      0.0410
      9  C20       18.4980   13.1210   31.4160 C.ar  361  B45361      0.0105
     10  C16       19.9340   13.1320   31.6670 C.ar  361  B45361     -0.0003
     11  C18       21.9150   14.3100   32.3720 C.ar  361  B45361     -0.0212
     12  C13       20.7020   11.9930   31.4640 C.ar  361  B45361      0.0176
     13  C14       22.0620   12.0010   31.7230 C.ar  361  B45361      0.0642
     14  C3        24.1370   10.7870   32.0420 C.ar  361  B45361      0.0876
     15  C23       15.7740   13.0700   30.8790 C.ar  361  B45361      0.1410
     16  C2        24.3600   10.3100   33.3120 C.ar  361  B45361      0.0731
     17  C4        25.2080   11.2100   31.2890 C.ar  361  B45361      0.0731
     18  C25       17.5960   12.5240   32.2800 C.ar  361  B45361      0.0599
     19  C10       22.2840    9.6250   31.0730 C.1   361  B45361      0.2191
     20  C12       20.0510   10.7410   30.9680 C.3   361  B45361      0.1667
     21  C29       23.2340   16.1420   31.5880 C.3   361  B45361      0.0217
     22  C33       21.7900   16.6160   33.5240 C.3   361  B45361      0.0217
     23  C30       24.1040   17.3380   31.8980 C.3   361  B45361      0.0724
     24  C32       22.6200   17.8770   33.7850 C.3   361  B45361      0.0724
     25  C28       22.6360   15.5490   32.8430 C.3   361  B45361      0.0251
     26  C35       23.2630   20.6440   33.5090 C.3   361  B45361      0.0173
     27  C36       23.9290   20.3170   31.2060 C.3   361  B45361      0.0173
     28  C34       23.9550   19.6850   32.5770 C.3   361  B45361      0.0576
     29  N11       20.9360    9.6190   30.7580 N.2   361  B45361     -0.1846
     30  N9        22.8270   10.8250   31.5100 N.am  361  B45361     -0.1928
     31  N31       23.2240   18.3720   32.5070 N.3   361  B45361     -0.2739
     32  O15       22.9440    8.5980   30.9530 O.2   361  B45361     -0.2057
     33  F27       14.4540   13.0350   30.6270 F     361  B45361     -0.2041
     34 CL8        23.0230    9.7770   34.2620 Cl    361  B45361     -0.0809
     35 CL7        24.9330   11.8040   29.7070 Cl    361  B45361     -0.0809
     36 CL26       18.1030   11.7680   33.7350 Cl    361  B45361     -0.0822
@<TRIPOS>BOND
     1    35    17    1
     2     3     2   ar
     3     3    15   ar
     4     2     9   ar
     5    33    15    1
     6    29    20    1
     7    29    19    2
     8    15     8   ar
     9    32    19    2
    10    20    12    1
    11    19    30   am
    12    27    28    1
    13    17     5   ar
    14    17    14   ar
    15     9    10    1
    16     9    18   ar
    17    12    10   ar
    18    12    13   ar
    19    30    13    1
    20    30    14    1
    21    21    23    1
    22    21    25    1
    23    10     6   ar
    24    13     7   ar
    25     5     1   ar
    26    23    31    1
    27     8    18   ar
    28    14    16   ar
    29     6    11   ar
    30     7    11   ar
    31    18    36    1
    32    11    25    1
    33    31    28    1
    34    31    24    1
    35    28    26    1
    36    25    22    1
    37     1     4   ar
    38    16     4   ar
    39    16    34    1
    40    22    24    1
