@<TRIPOS>MOLECULE
3gc8_B45_A_1.pdb
 36 40 0 0 0
SMALL
GASTEIGER

@<TRIPOS>ATOM
      1  C6        27.9940   -7.8890   41.3780 C.ar  365  B45365      0.0018
      2  C21       26.3440   -9.2850   31.9340 C.ar  365  B45365      0.0031
      3  C22       26.3270   -9.9260   30.7160 C.ar  365  B45365      0.0297
      4  C1        27.6840   -9.1560   40.9310 C.ar  365  B45365      0.0127
      5  C5        28.4560   -6.9610   40.4760 C.ar  365  B45365      0.0127
      6  C17       25.2630   -8.3410   34.6890 C.ar  365  B45365     -0.0044
      7  C19       26.3590   -7.7950   36.7290 C.ar  365  B45365      0.0114
      8  C24       25.9750  -11.9990   31.8380 C.ar  365  B45365      0.0410
      9  C20       26.1720   -9.9800   33.1140 C.ar  365  B45365      0.0105
     10  C16       26.2490   -9.2400   34.3550 C.ar  365  B45365     -0.0003
     11  C18       25.3040   -7.6180   35.8610 C.ar  365  B45365     -0.0212
     12  C13       27.3100   -9.3970   35.2330 C.ar  365  B45365      0.0176
     13  C14       27.3700   -8.6890   36.4220 C.ar  365  B45365      0.0642
     14  C3        28.2900   -8.5920   38.6840 C.ar  365  B45365      0.0876
     15  C23       26.1430  -11.2830   30.6810 C.ar  365  B45365      0.1410
     16  C2        27.8280   -9.5020   39.6020 C.ar  365  B45365      0.0731
     17  C4        28.5950   -7.3410   39.1570 C.ar  365  B45365      0.0731
     18  C25       25.9870  -11.3450   33.0480 C.ar  365  B45365      0.0599
     19  C10       29.5640   -9.6770   36.9240 C.1   365  B45365      0.2191
     20  C12       28.3980  -10.3470   34.8950 C.3   365  B45365      0.1667
     21  C29       24.5920   -5.3560   35.4820 C.3   365  B45365      0.0217
     22  C33       22.8630   -7.0580   35.6220 C.3   365  B45365      0.0217
     23  C30       23.6480   -4.2440   35.8670 C.3   365  B45365      0.0724
     24  C32       21.8230   -5.9810   35.9060 C.3   365  B45365      0.0724
     25  C28       24.2130   -6.6480   36.1730 C.3   365  B45365      0.0251
     26  C35       21.8250   -2.2200   34.9800 C.3   365  B45365      0.0173
     27  C36       20.7780   -3.2820   36.9540 C.3   365  B45365      0.0173
     28  C34       21.2570   -3.5170   35.5310 C.3   365  B45365      0.0576
     29  N11       29.5900   -9.9920   35.5940 N.2   365  B45365     -0.1846
     30  N9        28.4770   -8.8920   37.3020 N.am  365  B45365     -0.1928
     31  N31       22.2740   -4.6230   35.4520 N.3   365  B45365     -0.2739
     32  O15       30.4470  -10.0690   37.6730 O.2   365  B45365     -0.2057
     33  F27       26.1340  -11.9130   29.5060 F     365  B45365     -0.2041
     34 CL8        27.4300  -11.0800   39.0790 Cl    365  B45365     -0.0809
     35 CL7        29.1700   -6.2610   37.9900 Cl    365  B45365     -0.0809
     36 CL26       25.7600  -12.3100   34.4610 Cl    365  B45365     -0.0822
@<TRIPOS>BOND
     1    33    15    1
     2    15     3   ar
     3    15     8   ar
     4     3     2   ar
     5     8    18   ar
     6     2     9   ar
     7    18     9   ar
     8    18    36    1
     9     9    10    1
    10    10     6   ar
    11    10    12   ar
    12     6    11   ar
    13    20    12    1
    14    20    29    1
    15    26    28    1
    16    12    13   ar
    17    31    28    1
    18    31    23    1
    19    31    24    1
    20    21    23    1
    21    21    25    1
    22    28    27    1
    23    29    19    2
    24    22    24    1
    25    22    25    1
    26    11    25    1
    27    11     7   ar
    28    13     7   ar
    29    13    30    1
    30    19    30   am
    31    19    32    2
    32    30    14    1
    33    35    17    1
    34    14    17   ar
    35    14    16   ar
    36    34    16    1
    37    17     5   ar
    38    16     4   ar
    39     5     1   ar
    40     4     1   ar
