@<TRIPOS>MOLECULE
3gc9_B45_A_1.pdb
 36 40 0 0 0
SMALL
GASTEIGER

@<TRIPOS>ATOM
      1  C6        28.0990   -8.1100   41.5270 C.ar  365  B45365      0.0018
      2  C21       26.5270   -9.3980   32.0790 C.ar  365  B45365      0.0031
      3  C22       26.4740  -10.0220   30.8510 C.ar  365  B45365      0.0297
      4  C1        27.7280   -9.3630   41.0870 C.ar  365  B45365      0.0127
      5  C5        28.6380   -7.2100   40.6340 C.ar  365  B45365      0.0127
      6  C17       25.4120   -8.5970   34.8990 C.ar  365  B45365     -0.0044
      7  C19       26.4790   -8.1350   36.9740 C.ar  365  B45365      0.0114
      8  C24       26.0830  -12.1200   31.9160 C.ar  365  B45365      0.0410
      9  C20       26.3640  -10.1220   33.2410 C.ar  365  B45365      0.0105
     10  C16       26.4380   -9.4340   34.5180 C.ar  365  B45365     -0.0003
     11  C18       25.4180   -7.9410   36.1150 C.ar  365  B45365     -0.0212
     12  C13       27.4990   -9.6010   35.3890 C.ar  365  B45365      0.0176
     13  C14       27.5210   -8.9630   36.6170 C.ar  365  B45365      0.0642
     14  C3        28.4250   -8.8290   38.8620 C.ar  365  B45365      0.0876
     15  C23       26.2480  -11.3770   30.7780 C.ar  365  B45365      0.1410
     16  C2        27.8880   -9.7240   39.7650 C.ar  365  B45365      0.0731
     17  C4        28.7950   -7.5860   39.3170 C.ar  365  B45365      0.0731
     18  C25       26.1410  -11.4870   33.1340 C.ar  365  B45365      0.0599
     19  C10       29.6470  -10.0310   37.2220 C.1   365  B45365      0.2191
     20  C12       28.6300  -10.4860   34.9960 C.3   365  B45365      0.1667
     21  C29       24.6630   -5.6450   36.0550 C.3   365  B45365      0.0217
     22  C33       22.9420   -7.4300   35.9600 C.3   365  B45365      0.0217
     23  C30       23.6170   -4.6520   36.5070 C.3   365  B45365      0.0724
     24  C32       21.8580   -6.4000   36.2510 C.3   365  B45365      0.0724
     25  C28       24.2970   -7.0360   36.5260 C.3   365  B45365      0.0251
     26  C35       21.8480   -2.6610   35.3200 C.3   365  B45365      0.0173
     27  C36       20.6710   -3.7290   37.2040 C.3   365  B45365      0.0173
     28  C34       21.2720   -3.9640   35.8340 C.3   365  B45365      0.0576
     29  N11       29.6050  -10.6900   36.0230 N.2   365  B45365     -0.1846
     30  N9        28.6160   -9.1580   37.4970 N.am  365  B45365     -0.1928
     31  N31       22.3300   -5.0320   35.8620 N.3   365  B45365     -0.2739
     32  O15       30.5630  -10.2210   38.0030 O.2   365  B45365     -0.2057
     33  F27       26.1960  -11.9920   29.5930 F     365  B45365     -0.2041
     34 CL8        27.4160  -11.2970   39.2450 Cl    365  B45365     -0.0809
     35 CL7        29.4610   -6.5030   38.1820 Cl    365  B45365     -0.0809
     36 CL26       25.9240  -12.5110   34.5110 Cl    365  B45365     -0.0822
@<TRIPOS>BOND
     1    33    15    1
     2    15     3   ar
     3    15     8   ar
     4     3     2   ar
     5     8    18   ar
     6     2     9   ar
     7    18     9   ar
     8    18    36    1
     9     9    10    1
    10    10     6   ar
    11    10    12   ar
    12     6    11   ar
    13    20    12    1
    14    20    29    1
    15    26    28    1
    16    12    13   ar
    17    28    31    1
    18    28    27    1
    19    31    24    1
    20    31    23    1
    21    22    24    1
    22    22    25    1
    23    29    19    2
    24    21    23    1
    25    21    25    1
    26    11    25    1
    27    11     7   ar
    28    13     7   ar
    29    13    30    1
    30    19    30   am
    31    19    32    2
    32    30    14    1
    33    35    17    1
    34    14    17   ar
    35    14    16   ar
    36    34    16    1
    37    17     5   ar
    38    16     4   ar
    39     5     1   ar
    40     4     1   ar
