@<TRIPOS>MOLECULE
3gcd_IHP_A_1.pdb
 36 36 0 0 0
SMALL
GASTEIGER

@<TRIPOS>ATOM
      1  C1       -17.0580   11.4280  -67.5530 C.3   214  IHP214      0.1863
      2  C2       -15.9420   12.0030  -68.4170 C.3   214  IHP214      0.1863
      3  C3       -16.0260   13.5240  -68.4780 C.3   214  IHP214      0.1863
      4  C4       -16.0050   14.1300  -67.0800 C.3   214  IHP214      0.1863
      5  C5       -17.1210   13.5530  -66.2170 C.3   214  IHP214      0.1863
      6  C6       -17.0310   12.0330  -66.1540 C.3   214  IHP214      0.1863
      7  O11      -16.9070   10.0130  -67.4610 O.3   214  IHP214     -0.2675
      8  P1       -17.9400    9.0310  -68.2110 P.3   214  IHP214      0.5327
      9  O21      -17.9780    7.8040  -67.3330 O.3   214  IHP214     -0.1145
     10  O31      -17.3120    8.8090  -69.5660 O.2   214  IHP214     -0.2224
     11  O41      -19.2300    9.8160  -68.2430 O.3   214  IHP214     -0.1145
     12  O12      -14.6780   11.6190  -67.8790 O.3   214  IHP214     -0.2675
     13  P2       -13.8380   10.4170  -68.5450 P.3   214  IHP214      0.5327
     14  O22      -13.1680    9.7460  -67.3700 O.3   214  IHP214     -0.1145
     15  O32      -14.8880    9.5740  -69.2290 O.3   214  IHP214     -0.1145
     16  O42      -12.8890   11.1170  -69.4890 O.2   214  IHP214     -0.2224
     17  O13      -14.9270   14.0300  -69.2330 O.3   214  IHP214     -0.2675
     18  P3       -15.1780   15.0190  -70.4780 P.3   214  IHP214      0.5327
     19  O23      -14.2530   16.1830  -70.2110 O.3   214  IHP214     -0.1145
     20  O33      -16.6470   15.3560  -70.3860 O.3   214  IHP214     -0.1145
     21  O43      -14.8030   14.1890  -71.6820 O.2   214  IHP214     -0.2224
     22  O14      -16.1590   15.5450  -67.1730 O.3   214  IHP214     -0.2675
     23  P4       -14.9610   16.5280  -66.7360 P.3   214  IHP214      0.5327
     24  O24      -13.9080   16.3120  -67.7970 O.2   214  IHP214     -0.2224
     25  O34      -15.5910   17.9000  -66.7540 O.3   214  IHP214     -0.1145
     26  O44      -14.5710   16.0390  -65.3620 O.3   214  IHP214     -0.1145
     27  O15      -17.0290   14.0900  -64.8990 O.3   214  IHP214     -0.2675
     28  P5       -18.2670   14.8940  -64.2560 P.3   214  IHP214      0.5327
     29  O25      -19.1670   15.1780  -65.4350 O.2   214  IHP214     -0.2224
     30  O35      -18.8450   13.9280  -63.2490 O.3   214  IHP214     -0.1145
     31  O45      -17.6290   16.1200  -63.6490 O.3   214  IHP214     -0.1145
     32  O16      -18.1250   11.5230  -65.3940 O.3   214  IHP214     -0.2675
     33  P6       -17.8650   10.7560  -64.0030 P.3   214  IHP214      0.5327
     34  O26      -17.8830   11.8570  -62.9710 O.3   214  IHP214     -0.1145
     35  O36      -19.0190    9.7870  -63.9010 O.3   214  IHP214     -0.1145
     36  O46      -16.5170   10.1020  -64.1940 O.2   214  IHP214     -0.2224
@<TRIPOS>BOND
     1    21    18    2
     2    18    20    1
     3    18    19    1
     4    18    17    1
     5    10     8    2
     6    16    13    2
     7    17     3    1
     8    15    13    1
     9    13    12    1
    10    13    14    1
    11     3     2    1
    12     3     4    1
    13     2    12    1
    14     2     1    1
    15    11     8    1
    16     8     7    1
    17     8     9    1
    18    24    23    2
    19     1     7    1
    20     1     6    1
    21    22     4    1
    22    22    23    1
    23     4     5    1
    24    25    23    1
    25    23    26    1
    26     5     6    1
    27     5    27    1
    28     6    32    1
    29    29    28    2
    30    32    33    1
    31    27    28    1
    32    28    31    1
    33    28    30    1
    34    36    33    2
    35    33    35    1
    36    33    34    1
