@<TRIPOS>MOLECULE
3gcd_AZ0_A_1.pdb
 42 42 0 0 0
SMALL
GASTEIGER

@<TRIPOS>ATOM
      1  C11      -15.7570   10.9500  -50.4270 C.2   213  AZ0213      0.4218
      2  O11      -15.9850   11.1110  -49.0500 O.2   213  AZ0213     -0.2245
      3  O2       -16.6160   10.3610  -51.1150 O.3   213  AZ0213     -0.4285
      4  C2       -17.9890   10.7470  -51.0430 C.3   213  AZ0213      0.2368
      5  C3       -18.8100    9.7670  -51.8560 C.ar  213  AZ0213      0.0213
      6  C4       -19.8920   10.2230  -52.6210 C.ar  213  AZ0213     -0.0007
      7  C5       -20.6380    9.3130  -53.3670 C.ar  213  AZ0213     -0.0002
      8  C6       -20.3260    7.9450  -53.3410 C.ar  213  AZ0213     -0.0000
      9  C7       -19.2470    7.4860  -52.5720 C.ar  213  AZ0213     -0.0002
     10  C8       -18.4920    8.3980  -51.8330 C.ar  213  AZ0213     -0.0007
     11  N        -14.7360   10.9790  -51.2240 N.am  213  AZ0213     -0.1611
     12  CA       -13.6520   11.9610  -50.9140 C.3   213  AZ0213      0.1761
     13  C        -14.1460   13.4030  -51.1440 C.2   213  AZ0213      0.2617
     14  O        -14.3020   13.8500  -52.2910 O.2   213  AZ0213     -0.2715
     15  CB       -12.3960   11.6380  -51.7420 C.3   213  AZ0213      0.0312
     16  CG       -11.8790   10.2140  -51.4820 C.3   213  AZ0213      0.0022
     17  CD1      -11.1930    9.5640  -52.7000 C.3   213  AZ0213      0.0001
     18  CD2      -10.9530   10.2340  -50.2870 C.3   213  AZ0213      0.0001
     19  N1       -14.4160   14.1170  -50.0490 N.am  213  AZ0213     -0.1963
     20  CA1      -14.9730   15.4680  -50.1280 C.3   213  AZ0213      0.1744
     21  C1       -13.9070   16.4990  -50.5150 C.2   213  AZ0213      0.2792
     22  O1       -12.9120   16.6940  -49.7980 O.2   213  AZ0213     -0.2698
     23  CB1      -15.6130   15.8470  -48.7960 C.3   213  AZ0213      0.0312
     24  CG1      -15.9660   17.3220  -48.5640 C.3   213  AZ0213      0.0022
     25 CD11      -17.0010   17.8050  -49.5770 C.3   213  AZ0213      0.0001
     26 CD21      -16.4640   17.5020  -47.1410 C.3   213  AZ0213      0.0001
     27  OAE      -15.8540   23.1060  -49.7170 O.2   213  AZ0213     -0.2473
     28  CAD      -15.5350   21.9890  -49.3160 C.2   213  AZ0213      0.3482
     29  OAC      -16.3750   21.3440  -48.3070 O.3   213  AZ0213     -0.4468
     30  CAB      -16.0970   21.4970  -46.9060 C.3   213  AZ0213      0.2086
     31  CAA      -17.3890   21.3230  -46.1160 C.3   213  AZ0213      0.0513
     32  CAF      -14.3130   21.3000  -49.8710 C.3   213  AZ0213      0.2587
     33  OAJ      -13.5790   20.7280  -48.7850 O.3   213  AZ0213     -0.2105
     34  CAG      -14.7120   20.2320  -50.9170 C.3   213  AZ0213      0.1313
     35  CAH      -13.4850   19.8110  -51.7230 C.2   213  AZ0213      0.2459
     36  OAI      -12.7400   20.6820  -52.1800 O.2   213  AZ0213     -0.2732
     37  NAK      -13.2540   18.4880  -51.8970 N.am  213  AZ0213     -0.1873
     38  NAL      -14.1030   17.6050  -51.3740 N.am  213  AZ0213     -0.1061
     39  CAN      -12.0660   17.9870  -52.6070 C.3   213  AZ0213      0.1168
     40  CAO      -12.3120   16.9070  -53.6420 C.3   213  AZ0213      0.0218
     41  CAP      -13.2210   17.4140  -54.7560 C.3   213  AZ0213      0.0018
     42  CAM      -10.9570   16.4820  -54.2030 C.3   213  AZ0213      0.0018
@<TRIPOS>BOND
     1    41    40    1
     2    42    40    1
     3    40    39    1
     4     7     8   ar
     5     7     6   ar
     6     8     9   ar
     7    17    16    1
     8     6     5   ar
     9    39    37    1
    10     9    10   ar
    11    14    13    2
    12    36    35    2
    13    37    35   am
    14    37    38    1
    15     5    10   ar
    16     5     4    1
    17    15    16    1
    18    15    12    1
    19    35    34    1
    20    16    18    1
    21    38    21   am
    22    11    12    1
    23    11     1   am
    24    13    12    1
    25    13    19   am
    26     3     4    1
    27     3     1    1
    28    34    32    1
    29    21    20    1
    30    21    22    2
    31     1     2    2
    32    20    19    1
    33    20    23    1
    34    32    28    1
    35    32    33    1
    36    27    28    2
    37    25    24    1
    38    28    29    1
    39    23    24    1
    40    24    26    1
    41    29    30    1
    42    30    31    1
