@<TRIPOS>MOLECULE
3gch_OAC_C_1.pdb
 12 12 0 0 0
SMALL
GASTEIGER

@<TRIPOS>ATOM
      1  O         36.7220   76.6530   84.0180 O.2   246  OAC246     -0.2838
      2  C         37.3070   76.9220   85.2060 C.2   246  OAC246      0.2260
      3  CA        36.8030   76.8580   86.7130 C.2   246  OAC246      0.0027
      4  CB1       37.7910   77.2600   87.8150 C.3   246  OAC246      0.0549
      5  CB2       35.4090   76.4340   86.5830 C.3   246  OAC246      0.0301
      6  CG        37.6790   77.2420   89.3730 C.ar  246  OAC246      0.0209
      7  CD1       36.4650   76.8840   90.0230 C.ar  246  OAC246     -0.0008
      8  CE1       36.3300   76.8650   91.3620 C.ar  246  OAC246     -0.0001
      9  CZ        37.3580   77.2820   92.1730 C.ar  246  OAC246      0.0033
     10  CE2       38.6610   77.6980   91.6110 C.ar  246  OAC246      0.0417
     11  CD2       38.8110   77.6480   90.0900 C.ar  246  OAC246      0.1920
     12  OH        40.1010   78.0450   89.5820 O.3   246  OAC246     -0.2869
@<TRIPOS>BOND
     1     1     2    1
     2     2     3    2
     3     5     3    1
     4     3     4    1
     5     4     6    1
     6     6     7   ar
     7     6    11   ar
     8    12    11    1
     9     7     8   ar
    10    11    10   ar
    11     8     9   ar
    12    10     9   ar
