@<TRIPOS>MOLECULE
3gci_III_P_1.pdb
 43 42 0 0 0
SMALL
GASTEIGER

@<TRIPOS>ATOM
      1  N        -15.6300    6.1800  -14.6940 N.3     1  VAL1       -0.1231
      2  CA       -15.7060    6.6910  -13.2910 C.3     1  VAL1        0.1692
      3  C        -16.1380    8.1660  -13.2540 C.2     1  VAL1        0.2593
      4  O        -17.3270    8.4590  -13.0810 O.2     1  VAL1       -0.2718
      5  CB       -14.3730    6.4640  -12.5130 C.3     1  VAL1        0.0266
      6  CG1      -14.4900    6.9570  -11.0700 C.3     1  VAL1        0.0020
      7  CG2      -13.9680    4.9860  -12.5470 C.3     1  VAL1        0.0020
      8  N        -15.1790    9.0790  -13.4210 N.am    2  GLY2       -0.1942
      9  CA       -15.4480   10.5210  -13.4050 C.3     2  GLY2        0.2014
     10  C        -15.2120   11.1890  -12.0590 C.2     2  GLY2        0.2639
     11  O        -16.1290   11.7830  -11.4860 O.2     2  GLY2       -0.2714
     12  N        -13.9790   11.0930  -11.5610 N.am    3  GLY3       -0.1939
     13  CA       -13.5890   11.7170  -10.2900 C.3     3  GLY3        0.2014
     14  C        -12.0790   11.8290  -10.1250 C.2     3  GLY3        0.2639
     15  O        -11.3300   11.7430  -11.1080 O.2     3  GLY3       -0.2714
     16  N        -11.6320   12.0260   -8.8510 N.am    4  VAL4       -0.1963
     17  CA       -10.1640   12.0830   -8.5670 C.3     4  VAL4        0.1727
     18  C         -9.7020   10.7500   -7.9610 C.2     4  VAL4        0.2616
     19  O         -9.2820    9.8700   -8.7170 O.2     4  VAL4       -0.2715
     20  CB        -9.8210   13.3430   -7.7440 C.3     4  VAL4        0.0290
     21  CG1       -8.4620   13.1740   -7.0830 C.3     4  VAL4        0.0023
     22  CG2       -9.8280   14.5850   -8.6160 C.3     4  VAL4        0.0023
     23  N         -9.7650   10.5920   -6.6320 N.am    5  VAL5       -0.1963
     24  CA        -9.4090    9.3190   -5.9560 C.3     5  VAL5        0.1727
     25  C        -10.0400    9.1360   -4.5630 C.2     5  VAL5        0.2616
     26  O         -9.9340   10.0160   -3.7010 O.2     5  VAL5       -0.2715
     27  CB        -7.8600    9.0760   -5.8370 C.3     5  VAL5        0.0290
     28  CG1       -7.3160    8.3330   -7.0650 C.3     5  VAL5        0.0023
     29  CG2       -7.0870   10.3760   -5.5660 C.3     5  VAL5        0.0023
     30  N        -10.6810    7.9830   -4.3590 N.am    6  ILE6       -0.1963
     31  CA       -11.2550    7.5930   -3.0580 C.3     6  ILE6        0.1727
     32  C        -10.4010    6.5080   -2.3950 C.2     6  ILE6        0.2617
     33  O        -10.3430    6.4130   -1.1610 O.2     6  ILE6       -0.2715
     34  CB       -12.7020    7.0270   -3.1810 C.3     6  ILE6        0.0290
     35  CG1      -13.3210    7.3570   -4.5460 C.3     6  ILE6        0.0022
     36  CG2      -13.5680    7.4970   -2.0060 C.3     6  ILE6        0.0023
     37  CD1      -14.4720    6.4510   -4.9430 C.3     6  ILE6        0.0001
     38  N         -9.7540    5.6910   -3.2270 N.am    7  ALA7       -0.1942
     39  CA        -8.9380    4.5670   -2.7690 C.3     7  ALA7        0.1979
     40  C         -7.5000    4.9860   -2.4630 C.2     7  ALA7        0.3842
     41  O         -7.1510    5.2170   -1.3020 O.co2   7  ALA7       -0.2437
     42  CB        -8.9620    3.4480   -3.7990 C.3     7  ALA7        0.0356
     43  OXT       -6.6530    5.1020   -3.3550 O.co2   7  ALA7       -0.2437
@<TRIPOS>BOND
     1     1     2    1
     2     8     9    1
     3     8     3   am
     4     9    10    1
     5     2     3    1
     6     2     5    1
     7     3     4    2
     8     7     5    1
     9     5     6    1
    10    10    12   am
    11    10    11    2
    12    12    13    1
    13    15    14    2
    14    13    14    1
    15    14    16   am
    16    16    17    1
    17    19    18    2
    18    22    20    1
    19    17    18    1
    20    17    20    1
    21    18    23   am
    22    20    21    1
    23    28    27    1
    24    23    24    1
    25    24    27    1
    26    24    25    1
    27    27    29    1
    28    37    35    1
    29    25    30   am
    30    25    26    2
    31    35    34    1
    32    30    31    1
    33    42    39    1
    34    43    40   ar
    35    38    39    1
    36    38    32   am
    37    34    31    1
    38    34    36    1
    39    31    32    1
    40    39    40    1
    41    40    41   ar
    42    32    33    2
