@<TRIPOS>MOLECULE
3gcj_NAG_A_1.pdb
 14 14 0 0 0
SMALL
GASTEIGER

@<TRIPOS>ATOM
      1  C1        23.4460    4.7050    6.6960 C.3   596  NAG596      0.1665
      2  C2        24.6910    4.3760    5.8600 C.3   596  NAG596      0.1576
      3  C3        24.3380    3.7470    4.4960 C.3   596  NAG596      0.2069
      4  C4        23.2460    2.6740    4.6080 C.3   596  NAG596      0.2134
      5  C5        22.0770    3.2160    5.4350 C.3   596  NAG596      0.1809
      6  C6        20.9570    2.2110    5.6290 C.3   596  NAG596      0.2141
      7  C7        26.6780    5.7390    6.0610 C.2   596  NAG596      0.2420
      8  C8        27.3600    7.0640    5.7590 C.3   596  NAG596      0.0964
      9  N2        25.4290    5.6030    5.6260 N.am  596  NAG596     -0.2019
     10  O3        25.5070    3.1580    3.9470 O.3   596  NAG596     -0.2184
     11  O4        22.7870    2.2900    3.2900 O.3   596  NAG596     -0.2176
     12  O5        22.5500    3.5900    6.7440 O.3   596  NAG596     -0.3489
     13  O6        21.2650    1.2990    6.6710 O.3   596  NAG596     -0.2176
     14  O7        27.2820    4.8570    6.6820 O.2   596  NAG596     -0.2733
@<TRIPOS>BOND
     1    11     4    1
     2    10     3    1
     3     3     4    1
     4     3     2    1
     5     4     5    1
     6     5     6    1
     7     5    12    1
     8     9     2    1
     9     9     7   am
    10     6    13    1
    11     8     7    1
    12     2     1    1
    13     7    14    2
    14     1    12    1
