@<TRIPOS>MOLECULE
3gcj_SHA_A_1.pdb
 11 11 0 0 0
SMALL
GASTEIGER

@<TRIPOS>ATOM
      1  C1         5.2440    3.1680   29.3020 C.ar  617  SHA617      0.0616
      2  C2         4.6850    4.2410   29.8620 C.ar  617  SHA617      0.0051
      3  C3         3.8880    4.1190   31.1170 C.ar  617  SHA617      0.0003
      4  C4         3.7110    2.8630   31.7410 C.ar  617  SHA617      0.0033
      5  C5         4.3370    1.7590   31.0990 C.ar  617  SHA617      0.0421
      6  C6         5.0840    1.8910   29.9110 C.ar  617  SHA617      0.1975
      7  O6         5.6770    0.7630   29.3070 O.3   617  SHA617     -0.2865
      8  C7         5.9890    3.3450   28.0860 C.2   617  SHA617      0.1132
      9  O7         6.1050    4.4900   27.5780 O.2   617  SHA617     -0.5359
     10  N8         6.5530    2.2810   27.4820 N.am  617  SHA617     -0.1983
     11  O9         7.2950    2.4520   26.2300 O.3   617  SHA617     -0.4024
@<TRIPOS>BOND
     1    11    10    1
     2    10     8   am
     3     9     8    2
     4     8     1    1
     5     1     2   ar
     6     1     6   ar
     7     7     6    1
     8     2     3   ar
     9     6     5   ar
    10     5     4   ar
    11     3     4   ar
