@<TRIPOS>MOLECULE
3gcj_HEM_A_1.pdb
 43 50 0 0 0
SMALL
GASTEIGER

@<TRIPOS>ATOM
      1  CHA        8.8830    0.0370   29.1320 C.2   605  HEM605      0.0000
      2  CHB        9.2490    4.8210   28.9330 C.2   605  HEM605      0.0000
      3  CHC       11.1690    4.4140   24.4590 C.2   605  HEM605      0.0000
      4  CHD       10.9000   -0.3780   24.6360 C.2   605  HEM605      0.0000
      5  C1A        8.8320    1.3700   29.5460 C.2   605  HEM605      0.0000
      6  C2A        8.3310    1.8480   30.8630 C.2   605  HEM605      0.0000
      7  C3A        8.4220    3.1960   30.7990 C.2   605  HEM605      0.0000
      8  C4A        8.9780    3.5580   29.4690 C.2   605  HEM605      0.0000
      9  CMA        8.0260    4.0840   31.8540 C.3   605  HEM605      0.0000
     10  CAA        7.8040    0.9570   32.0280 C.3   605  HEM605      0.0000
     11  CBA        8.9820    0.2220   32.7290 C.3   605  HEM605      0.0000
     12  CGA        8.7310   -0.6540   33.7900 C.2   605  HEM605      0.0000
     13  O1A        9.3150   -1.7500   33.8560 O.co2 605  HEM605      0.0000
     14  O2A        7.8720   -0.3160   34.6640 O.co2 605  HEM605      0.0000
     15  C1B        9.7770    5.1490   27.6730 C.ar  605  HEM605      0.0000
     16  C2B       10.0520    6.5280   27.1610 C.ar  605  HEM605      0.0000
     17  C3B       10.5820    6.3900   25.9050 C.ar  605  HEM605      0.0000
     18  C4B       10.6430    4.9470   25.6410 C.ar  605  HEM605      0.0000
     19  CMB        9.8130    7.8700   27.8950 C.3   605  HEM605      0.0000
     20  CAB       11.0620    7.5010   24.9020 C.2   605  HEM605      0.0000
     21  CBB       11.0240    8.8480   25.1720 C.2   605  HEM605      0.0000
     22  C1C       11.2900    3.1070   24.1090 C.2   605  HEM605      0.0000
     23  C2C       11.8780    2.6330   22.8880 C.2   605  HEM605      0.0000
     24  C3C       11.8010    1.2190   22.9170 C.2   605  HEM605      0.0000
     25  C4C       11.1770    0.8730   24.1720 C.2   605  HEM605      0.0000
     26  CMC       12.4880    3.5850   21.7610 C.3   605  HEM605      0.0000
     27  CAC       12.3020    0.1850   21.8230 C.3   605  HEM605      0.0000
     28  CBC       12.9340    0.5450   20.6390 C.3   605  HEM605      0.0000
     29  C1D       10.2860   -0.6650   25.8870 C.ar  605  HEM605      0.0000
     30  C2D        9.8930   -2.0540   26.2770 C.ar  605  HEM605      0.0000
     31  C3D        9.2570   -1.9170   27.6240 C.ar  605  HEM605      0.0000
     32  C4D        9.3460   -0.4690   27.9630 C.ar  605  HEM605      0.0000
     33  CMD       10.0620   -3.3380   25.4960 C.3   605  HEM605      0.0000
     34  CAD        8.6320   -3.0990   28.4600 C.3   605  HEM605      0.0000
     35  CBD        7.1390   -3.2010   27.9510 C.3   605  HEM605      0.0000
     36  CGD        6.2800   -4.2590   28.5840 C.2   605  HEM605      0.0000
     37  O1D        5.5710   -4.0660   29.6180 O.co2 605  HEM605      0.0000
     38  O2D        6.3230   -5.3520   27.9750 O.co2 605  HEM605      0.0000
     39  NA         9.2140    2.4250   28.7600 N.2   605  HEM605      0.0000
     40  NB        10.1440    4.2170   26.7190 N.ar  605  HEM605      0.0000
     41  NC        10.8760    2.0400   24.8810 N.2   605  HEM605      0.0000
     42  ND         9.9220    0.2350   26.9340 N.ar  605  HEM605      0.0000
     43 FE         10.1740    2.2510   26.9470 Fe    605  HEM605      0.0000
@<TRIPOS>BOND
     1    28    27    1
     2    26    23    1
     3    27    24    1
     4    23    24    2
     5    23    22    1
     6    24    25    1
     7    22     3    2
     8    22    41    1
     9    25     4    1
    10    25    41    2
    11     3    18    1
    12     4    29    2
    13    41    43    1
    14    20    21    2
    15    20    17    1
    16    33    30    1
    17    18    17   ar
    18    18    40   ar
    19    29    30   ar
    20    29    42   ar
    21    17    16   ar
    22    30    31   ar
    23    40    43    1
    24    40    15   ar
    25    42    43    1
    26    42    32   ar
    27    43    39    1
    28    16    15   ar
    29    16    19    1
    30    31    32   ar
    31    31    34    1
    32    15     2    1
    33    35    34    1
    34    35    36    1
    35    32     1    2
    36    38    36   ar
    37    36    37   ar
    38    39     8    1
    39    39     5    2
    40     2     8    2
    41     1     5    1
    42     8     7    1
    43     5     6    1
    44     7     6    2
    45     7     9    1
    46     6    10    1
    47    10    11    1
    48    11    12    1
    49    12    13   ar
    50    12    14   ar
