@<TRIPOS>MOLECULE
3gck_NDG_A_1.pdb
 14 14 0 0 0
SMALL
GASTEIGER

@<TRIPOS>ATOM
      1  C1       -11.7070    9.7750    9.1100 C.3   599  NDG599      0.1665
      2  C2       -11.7980   10.7590   10.2840 C.3   599  NDG599      0.1576
      3  C3       -12.9230   11.7900   10.0640 C.3   599  NDG599      0.2069
      4  C4       -13.1930   11.9800    8.5630 C.3   599  NDG599      0.2134
      5  C5       -13.6010   10.6460    7.8920 C.3   599  NDG599      0.1809
      6  C6       -13.1340   10.5940    6.4500 C.3   599  NDG599      0.2141
      7  C7       -11.3300   10.3770   12.6110 C.2   599  NDG599      0.2420
      8  C8       -11.5860    9.5760   13.8800 C.3   599  NDG599      0.0964
      9  O        -13.0120    9.4960    8.5720 O.3   599  NDG599     -0.3489
     10  O3       -12.5420   13.0330   10.6420 O.3   599  NDG599     -0.2184
     11  O4       -14.2170   12.9780    8.3480 O.3   599  NDG599     -0.2176
     12  O6       -12.2230   11.6530    6.1680 O.3   599  NDG599     -0.2176
     13  O7       -10.5320   11.3080   12.6250 O.2   599  NDG599     -0.2733
     14  N2       -12.0110   10.0350   11.5230 N.am  599  NDG599     -0.2019
@<TRIPOS>BOND
     1    12     6    1
     2     6     5    1
     3     5     4    1
     4     5     9    1
     5    11     4    1
     6     4     3    1
     7     9     1    1
     8     1     2    1
     9     3     2    1
    10     3    10    1
    11     2    14    1
    12    14     7   am
    13     7    13    2
    14     7     8    1
