@<TRIPOS>MOLECULE
3gck_NAG_A_1.pdb
 14 14 0 0 0
SMALL
GASTEIGER

@<TRIPOS>ATOM
      1  C1         6.3930   25.4230   26.6560 C.3   601  NAG601      0.1665
      2  C2         7.7450   26.1480   26.7140 C.3   601  NAG601      0.1576
      3  C3         7.6110   27.6290   26.3100 C.3   601  NAG601      0.2069
      4  C4         6.6310   27.8820   25.1490 C.3   601  NAG601      0.2134
      5  C5         5.3620   27.0530   25.3260 C.3   601  NAG601      0.1809
      6  C6         4.3610   27.1780   24.1910 C.3   601  NAG601      0.2141
      7  C7         9.0650   25.1440   28.4860 C.2   601  NAG601      0.2420
      8  C8         9.5020   25.1950   29.9410 C.3   601  NAG601      0.0964
      9  N2         8.2350   26.1020   28.0810 N.am  601  NAG601     -0.2019
     10  O3         8.8910   28.1290   25.9480 O.3   601  NAG601     -0.2184
     11  O4         6.2890   29.2830   25.1120 O.3   601  NAG601     -0.2176
     12  O5         5.7240   25.6770   25.4310 O.3   601  NAG601     -0.3489
     13  O6         3.8000   25.9180   23.8460 O.3   601  NAG601     -0.2176
     14  O7         9.4820   24.2520   27.7500 O.2   601  NAG601     -0.2733
@<TRIPOS>BOND
     1    13     6    1
     2     6     5    1
     3    11     4    1
     4     4     5    1
     5     4     3    1
     6     5    12    1
     7    12     1    1
     8    10     3    1
     9     3     2    1
    10     1     2    1
    11     2     9    1
    12    14     7    2
    13     9     7   am
    14     7     8    1
