@<TRIPOS>MOLECULE
3gck_HEM_A_1.pdb
 43 50 0 0 0
SMALL
GASTEIGER

@<TRIPOS>ATOM
      1  CHA       14.8120    0.3850   25.3560 C.2   605  HEM605      0.0000
      2  CHB       15.3060    5.1020   24.9230 C.2   605  HEM605      0.0000
      3  CHC       17.1860    4.4360   20.5340 C.2   605  HEM605      0.0000
      4  CHD       16.8520   -0.4390   20.9480 C.2   605  HEM605      0.0000
      5  C1A       14.7670    1.7210   25.6920 C.2   605  HEM605      0.0000
      6  C2A       14.2590    2.1800   26.9880 C.2   605  HEM605      0.0000
      7  C3A       14.3900    3.5290   26.8800 C.2   605  HEM605      0.0000
      8  C4A       14.9850    3.8440   25.5270 C.2   605  HEM605      0.0000
      9  CMA       14.0180    4.4470   27.9620 C.3   605  HEM605      0.0000
     10  CAA       13.6840    1.2690   28.1700 C.3   605  HEM605      0.0000
     11  CBA       14.8690    0.3130   28.7690 C.3   605  HEM605      0.0000
     12  CGA       14.6870   -0.6010   29.8530 C.2   605  HEM605      0.0000
     13  O1A       15.2780   -1.6680   29.9520 O.co2 605  HEM605      0.0000
     14  O2A       13.8910   -0.2480   30.7730 O.co2 605  HEM605      0.0000
     15  C1B       15.8670    5.3980   23.6340 C.ar  605  HEM605      0.0000
     16  C2B       16.2000    6.7420   23.0090 C.ar  605  HEM605      0.0000
     17  C3B       16.7500    6.5040   21.7480 C.ar  605  HEM605      0.0000
     18  C4B       16.7110    5.0600   21.6120 C.ar  605  HEM605      0.0000
     19  CMB       16.0250    8.1740   23.6340 C.3   605  HEM605      0.0000
     20  CAB       17.3000    7.5170   20.6150 C.3   605  HEM605      0.0000
     21  CBB       17.3670    8.9080   20.6820 C.3   605  HEM605      0.0000
     22  C1C       17.2610    3.0730   20.2390 C.2   605  HEM605      0.0000
     23  C2C       17.7980    2.5750   19.0620 C.2   605  HEM605      0.0000
     24  C3C       17.7290    1.1400   19.1570 C.2   605  HEM605      0.0000
     25  C4C       17.1370    0.8120   20.4250 C.2   605  HEM605      0.0000
     26  CMC       18.3250    3.5950   17.9240 C.3   605  HEM605      0.0000
     27  CAC       18.2230    0.1050   18.1200 C.3   605  HEM605      0.0000
     28  CBC       18.8280    0.3600   16.8850 C.3   605  HEM605      0.0000
     29  C1D       16.2420   -0.6350   22.2050 C.ar  605  HEM605      0.0000
     30  C2D       15.9130   -1.9790   22.7440 C.ar  605  HEM605      0.0000
     31  C3D       15.2350   -1.7060   24.1090 C.ar  605  HEM605      0.0000
     32  C4D       15.3010   -0.2140   24.2370 C.ar  605  HEM605      0.0000
     33  CMD       16.1440   -3.3440   22.1220 C.3   605  HEM605      0.0000
     34  CAD       14.6500   -2.7610   25.1380 C.3   605  HEM605      0.0000
     35  CBD       13.3260   -3.0530   24.3740 C.3   605  HEM605      0.0000
     36  CGD       12.2390   -4.0160   24.7970 C.2   605  HEM605      0.0000
     37  O1D       11.1850   -3.6880   25.3870 O.co2 605  HEM605      0.0000
     38  O2D       12.4420   -5.1950   24.4680 O.co2 605  HEM605      0.0000
     39  NA        15.1750    2.7200   24.8880 N.2   605  HEM605      0.0000
     40  NB        16.2040    4.4540   22.7340 N.ar  605  HEM605      0.0000
     41  NC        16.8600    2.0020   21.0740 N.2   605  HEM605      0.0000
     42  ND        15.8460    0.3300   23.1460 N.ar  605  HEM605      0.0000
     43 FE         15.9950    2.3040   23.0840 Fe    605  HEM605      0.0000
@<TRIPOS>BOND
     1    28    27    1
     2    26    23    1
     3    27    24    1
     4    23    24    2
     5    23    22    1
     6    24    25    1
     7    22     3    2
     8    22    41    1
     9    25     4    1
    10    25    41    2
    11     3    18    1
    12    20    21    1
    13    20    17    1
    14     4    29    2
    15    41    43    1
    16    18    17   ar
    17    18    40   ar
    18    17    16   ar
    19    33    30    1
    20    29    30   ar
    21    29    42   ar
    22    40    43    1
    23    40    15   ar
    24    30    31   ar
    25    16    15   ar
    26    16    19    1
    27    43    42    1
    28    43    39    1
    29    42    32   ar
    30    15     2    1
    31    31    32   ar
    32    31    34    1
    33    32     1    2
    34    35    36    1
    35    35    34    1
    36    38    36   ar
    37    36    37   ar
    38    39     8    1
    39    39     5    2
    40     2     8    2
    41     1     5    1
    42     8     7    1
    43     5     6    1
    44     7     6    2
    45     7     9    1
    46     6    10    1
    47    10    11    1
    48    11    12    1
    49    12    13   ar
    50    12    14   ar
