@<TRIPOS>MOLECULE
3gck_BHO_A_1.pdb
 10 10 0 0 0
SMALL
GASTEIGER

@<TRIPOS>ATOM
      1  C1        10.8090    3.6520   26.1490 C.ar  800  BHO800      0.0227
      2  C2        10.7760    5.0670   26.1540 C.ar  800  BHO800      0.0019
      3  C3        10.1020    5.6820   27.3250 C.ar  800  BHO800      0.0001
      4  C4         9.4980    4.9260   28.4210 C.ar  800  BHO800      0.0000
      5  C5         9.5320    3.5470   28.4080 C.ar  800  BHO800      0.0001
      6  C6        10.1880    2.9650   27.2670 C.ar  800  BHO800      0.0019
      7  C         11.4490    2.7850   25.0660 C.2   800  BHO800      0.1101
      8  O1        11.2630    1.5680   25.4490 O.2   800  BHO800     -0.5359
      9  N         12.1010    3.0910   23.9340 N.am  800  BHO800     -0.1984
     10  O2        12.7220    2.1410   22.9310 O.3   800  BHO800     -0.4024
@<TRIPOS>BOND
     1    10     9    1
     2     9     7   am
     3     7     8    2
     4     7     1    1
     5     1     2   ar
     6     1     6   ar
     7     2     3   ar
     8     6     5   ar
     9     3     4   ar
    10     5     4   ar
