@<TRIPOS>MOLECULE
3gcl_HEM_A_1.pdb
 43 50 0 0 0
SMALL
GASTEIGER

@<TRIPOS>ATOM
      1  CHA        8.6890    0.1370   29.2590 C.2   605  HEM605      0.0000
      2  CHB        9.2440    4.8570   29.1700 C.2   605  HEM605      0.0000
      3  CHC       11.0580    4.4600   24.6670 C.2   605  HEM605      0.0000
      4  CHD       10.7070   -0.3300   24.8060 C.2   605  HEM605      0.0000
      5  C1A        8.6710    1.4070   29.6700 C.2   605  HEM605      0.0000
      6  C2A        8.2230    1.8230   30.9520 C.2   605  HEM605      0.0000
      7  C3A        8.3790    3.1500   30.9760 C.2   605  HEM605      0.0000
      8  C4A        8.9220    3.5780   29.6480 C.2   605  HEM605      0.0000
      9  CMA        8.0400    3.9970   32.2000 C.3   605  HEM605      0.0000
     10  CAA        7.7030    0.8970   32.0750 C.2   605  HEM605      0.0000
     11  CBA        8.7780    0.2690   32.9820 C.2   605  HEM605      0.0000
     12  CGA        8.3330   -0.5640   33.9840 C.2   605  HEM605      0.0000
     13  O1A        8.8420   -1.6940   34.1050 O.co2 605  HEM605      0.0000
     14  O2A        7.4490   -0.1480   34.8010 O.co2 605  HEM605      0.0000
     15  C1B        9.7720    5.2040   27.8960 C.ar  605  HEM605      0.0000
     16  C2B       10.1060    6.5780   27.3970 C.ar  605  HEM605      0.0000
     17  C3B       10.5980    6.4370   26.1090 C.ar  605  HEM605      0.0000
     18  C4B       10.6050    4.9920   25.8460 C.ar  605  HEM605      0.0000
     19  CMB        9.9310    7.9170   28.1500 C.3   605  HEM605      0.0000
     20  CAB       11.1270    7.5380   25.1050 C.2   605  HEM605      0.0000
     21  CBB       11.1460    8.8790   25.3860 C.2   605  HEM605      0.0000
     22  C1C       11.1370    3.1640   24.3300 C.2   605  HEM605      0.0000
     23  C2C       11.6910    2.7100   23.1050 C.2   605  HEM605      0.0000
     24  C3C       11.6300    1.2970   23.1300 C.2   605  HEM605      0.0000
     25  C4C       11.0000    0.9330   24.3690 C.2   605  HEM605      0.0000
     26  CMC       12.2650    3.7060   21.9870 C.3   605  HEM605      0.0000
     27  CAC       12.1380    0.2710   22.0580 C.3   605  HEM605      0.0000
     28  CBC       12.7800    0.6200   20.8780 C.3   605  HEM605      0.0000
     29  C1D       10.1100   -0.6030   26.0310 C.ar  605  HEM605      0.0000
     30  C2D        9.7440   -1.9960   26.4290 C.ar  605  HEM605      0.0000
     31  C3D        9.0900   -1.8530   27.8040 C.ar  605  HEM605      0.0000
     32  C4D        9.1490   -0.3840   28.1000 C.ar  605  HEM605      0.0000
     33  CMD        9.9820   -3.2690   25.6450 C.3   605  HEM605      0.0000
     34  CAD        8.4980   -3.0100   28.6880 C.3   605  HEM605      0.0000
     35  CBD        7.0490   -3.2360   28.1510 C.3   605  HEM605      0.0000
     36  CGD        6.1880   -4.3120   28.7850 C.2   605  HEM605      0.0000
     37  O1D        5.4800   -4.1780   29.8340 O.co2 605  HEM605      0.0000
     38  O2D        6.2010   -5.3650   28.1170 O.co2 605  HEM605      0.0000
     39  NA         9.0920    2.4830   28.8870 N.2   605  HEM605      0.0000
     40  NB        10.0890    4.2750   26.9120 N.ar  605  HEM605      0.0000
     41  NC        10.7050    2.0970   25.0990 N.2   605  HEM605      0.0000
     42  ND         9.7250    0.3110   27.0520 N.ar  605  HEM605      0.0000
     43 FE         10.0120    2.3030   27.0740 Fe    605  HEM605      0.0000
@<TRIPOS>BOND
     1    28    27    1
     2    26    23    1
     3    27    24    1
     4    23    24    2
     5    23    22    1
     6    24    25    1
     7    22     3    2
     8    22    41    1
     9    25     4    1
    10    25    41    2
    11     3    18    1
    12     4    29    2
    13    41    43    1
    14    20    21    2
    15    20    17    1
    16    33    30    1
    17    18    17   ar
    18    18    40   ar
    19    29    30   ar
    20    29    42   ar
    21    17    16   ar
    22    30    31   ar
    23    40    43    1
    24    40    15   ar
    25    42    43    1
    26    42    32   ar
    27    43    39    1
    28    16    15   ar
    29    16    19    1
    30    31    32   ar
    31    31    34    1
    32    15     2    1
    33    32     1    2
    34    38    36   ar
    35    35    34    1
    36    35    36    1
    37    36    37   ar
    38    39     8    1
    39    39     5    2
    40     2     8    2
    41     1     5    1
    42     8     7    1
    43     5     6    1
    44     6     7    2
    45     6    10    1
    46     7     9    1
    47    10    11    2
    48    11    12    1
    49    12    13   ar
    50    12    14   ar
