@<TRIPOS>MOLECULE
3gcl_NAG_A_1.pdb
 14 14 0 0 0
SMALL
GASTEIGER

@<TRIPOS>ATOM
      1  C1        23.4370    4.7560    6.8780 C.3   596  NAG596      0.1665
      2  C2        24.7190    4.3880    6.1320 C.3   596  NAG596      0.1576
      3  C3        24.3920    3.8720    4.7300 C.3   596  NAG596      0.2069
      4  C4        23.3690    2.7330    4.7730 C.3   596  NAG596      0.2134
      5  C5        22.1650    3.0870    5.6790 C.3   596  NAG596      0.1809
      6  C6        21.3380    1.8530    5.9860 C.3   596  NAG596      0.2141
      7  C7        26.8800    5.4100    6.3750 C.2   596  NAG596      0.2420
      8  C8        27.7510    6.6480    6.2480 C.3   596  NAG596      0.0964
      9  N2        25.6000    5.5350    6.0390 N.am  596  NAG596     -0.2019
     10  O3        25.5830    3.4040    4.1140 O.3   596  NAG596     -0.2184
     11  O4        22.9070    2.4740    3.4250 O.3   596  NAG596     -0.2176
     12  O5        22.5990    3.5980    6.9650 O.3   596  NAG596     -0.3489
     13  O6        21.9540    1.0720    7.0020 O.3   596  NAG596     -0.2176
     14  O7        27.3660    4.3510    6.7800 O.2   596  NAG596     -0.2733
@<TRIPOS>BOND
     1    11     4    1
     2    10     3    1
     3     3     4    1
     4     3     2    1
     5     4     5    1
     6     5     6    1
     7     5    12    1
     8     6    13    1
     9     9     2    1
    10     9     7   am
    11     2     1    1
    12     8     7    1
    13     7    14    2
    14     1    12    1
