@<TRIPOS>MOLECULE
3gcl_AIN_A_1.pdb
 13 13 0 0 0
SMALL
GASTEIGER

@<TRIPOS>ATOM
      1  O1         5.5700    6.7610   31.9400 O.co2 609  AIN609     -0.2404
      2  C7         5.0200    5.5750   32.2360 C.2   609  AIN609      0.3907
      3  O2         5.4860    4.9640   33.1780 O.co2 609  AIN609     -0.2404
      4  C3         3.6960    5.1050   31.6200 C.ar  609  AIN609      0.1143
      5  C4         2.3660    5.6020   32.1480 C.ar  609  AIN609      0.0097
      6  C5         1.1530    5.0970   31.6500 C.ar  609  AIN609      0.0004
      7  C6         1.1360    4.1230   30.6660 C.ar  609  AIN609      0.0031
      8  C1         2.3300    3.6200   30.1320 C.ar  609  AIN609      0.0378
      9  C2         3.6120    4.0580   30.5470 C.ar  609  AIN609      0.1547
     10  O3         4.7580    3.5910   30.0330 O.3   609  AIN609     -0.4239
     11  C8         5.4040    2.9330   28.8910 C.2   609  AIN609      0.3220
     12  O4         5.6180    1.8260   28.4190 O.2   609  AIN609     -0.2497
     13  C9         5.6900    4.1100   28.1940 C.3   609  AIN609      0.1216
@<TRIPOS>BOND
     1    13    11    1
     2    12    11    2
     3    11    10    1
     4    10     9    1
     5     8     9   ar
     6     8     7   ar
     7     9     4   ar
     8     7     6   ar
     9     4     5   ar
    10     4     2    1
    11     6     5   ar
    12     1     2   ar
    13     2     3   ar
