@<TRIPOS>MOLECULE
3gcm_5GP_B_1.pdb
 20 22 0 0 0
SMALL
GASTEIGER

@<TRIPOS>ATOM
      1  O5'      -29.0190  -14.7820   16.3670 O.3   551  5GP551     -0.2176
      2  C5'      -28.6920  -16.1540   16.5570 C.3   551  5GP551      0.2142
      3  C4'      -29.4710  -16.7410   17.7270 C.3   551  5GP551      0.1828
      4  O4'      -29.4810  -18.1880   17.6470 O.3   551  5GP551     -0.3325
      5  C3'      -28.9280  -16.4330   19.1170 C.3   551  5GP551      0.2159
      6  O3'      -30.0050  -16.3640   20.0480 O.3   551  5GP551     -0.2175
      7  C2'      -27.9890  -17.6060   19.4060 C.3   551  5GP551      0.2310
      8  O2'      -27.9840  -17.9840   20.7710 O.3   551  5GP551     -0.2158
      9  C1'      -28.5390  -18.7490   18.5470 C.3   551  5GP551      0.2293
     10  N9       -27.5470  -19.4940   17.7570 N.pl3 551  5GP551     -0.2354
     11  C8       -27.7580  -20.0230   16.5040 C.3   551  5GP551      0.2246
     12  N7       -26.7270  -20.6450   16.0060 N.2   551  5GP551     -0.2322
     13  C5       -25.7580  -20.5300   16.9910 C.2   551  5GP551      0.2182
     14  C6       -24.4240  -21.0150   17.0120 C.1   551  5GP551      0.2372
     15  O6       -23.8310  -21.6580   16.1340 O.2   551  5GP551     -0.2069
     16  N1       -23.7620  -20.6890   18.1980 N.2   551  5GP551     -0.2485
     17  C2       -24.3260  -19.9800   19.2350 C.1   551  5GP551      0.2531
     18  N2       -23.5440  -19.7560   20.3000 N.pl3 551  5GP551     -0.0226
     19  N3       -25.5750  -19.5230   19.2260 N.2   551  5GP551     -0.3074
     20  C4       -26.2410  -19.8280   18.0780 C.2   551  5GP551      0.2300
@<TRIPOS>BOND
     1    12    11    1
     2    12    13    2
     3    15    14    2
     4     1     2    1
     5    11    10    1
     6     2     3    1
     7    13    14    1
     8    13    20    1
     9    14    16    2
    10     4     3    1
    11     4     9    1
    12     3     5    1
    13    10    20    1
    14    10     9    1
    15    20    19    2
    16    16    17    2
    17     9     7    1
    18     5     7    1
    19     5     6    1
    20    19    17    2
    21    17    18    1
    22     7     8    1
