@<TRIPOS>MOLECULE
3gcn_III_B_1.pdb
 33 34 0 0 0
SMALL
GASTEIGER

@<TRIPOS>ATOM
      1  N          2.3160  -32.0350   10.2370 N.3   408  TYR408     -0.1227
      2  CA         1.0830  -32.7360   10.5760 C.3   408  TYR408      0.1736
      3  C          1.0340  -33.0890   12.0600 C.2   408  TYR408      0.2595
      4  O          2.0580  -33.3890   12.6700 O.2   408  TYR408     -0.2718
      5  CB         0.9370  -34.0060    9.7350 C.3   408  TYR408      0.0548
      6  CG         0.9440  -33.7620    8.2420 C.ar  408  TYR408     -0.0200
      7  CD1       -0.2290  -33.4650    7.5620 C.ar  408  TYR408     -0.0009
      8  CD2        2.1240  -33.8320    7.5140 C.ar  408  TYR408     -0.0009
      9  CE1       -0.2270  -33.2420    6.1970 C.ar  408  TYR408      0.0417
     10  CE2        2.1360  -33.6110    6.1490 C.ar  408  TYR408      0.0417
     11  CZ         0.9580  -33.3160    5.4960 C.ar  408  TYR408      0.1957
     12  OH         0.9650  -33.0950    4.1380 O.3   408  TYR408     -0.2866
     13  N         -0.1640  -33.0470   12.6330 N.am  409  GLN409     -0.1965
     14  CA        -0.3610  -33.4050   14.0330 C.3   409  GLN409      0.1733
     15  C         -1.7180  -34.0600   14.2320 C.2   409  GLN409      0.2617
     16  O         -2.7000  -33.3870   14.5430 O.2   409  GLN409     -0.2715
     17  CB        -0.2550  -32.1710   14.9310 C.3   409  GLN409      0.0408
     18  CG         1.1510  -31.6290   15.0980 C.3   409  GLN409      0.0908
     19  CD         1.2360  -30.5700   16.1790 C.2   409  GLN409      0.2608
     20  OE1        0.3320  -30.4340   17.0040 O.2   409  GLN409     -0.2717
     21  NE2        2.3280  -29.8150   16.1830 N.am  409  GLN409     -0.0878
     22  N         -1.7690  -35.3760   14.0530 N.am  410  PHE410     -0.1938
     23  CA        -3.0100  -36.1200   14.2330 C.3   410  PHE410      0.2021
     24  C         -2.9070  -37.1070   15.3940 C.2   410  PHE410      0.3845
     25  O         -3.9120  -37.6150   15.8930 O.co2 410  PHE410     -0.2437
     26  CB        -3.3920  -36.8490   12.9430 C.3   410  PHE410      0.0596
     27  CG        -2.4140  -37.9100   12.5340 C.ar  410  PHE410     -0.0199
     28  CD1       -1.2870  -37.5860   11.7960 C.ar  410  PHE410     -0.0042
     29  CD2       -2.6240  -39.2330   12.8820 C.ar  410  PHE410     -0.0042
     30  CE1       -0.3870  -38.5610   11.4170 C.ar  410  PHE410     -0.0003
     31  CE2       -1.7280  -40.2130   12.5050 C.ar  410  PHE410     -0.0003
     32  CZ        -0.6080  -39.8760   11.7720 C.ar  410  PHE410     -0.0000
     33  OXT       -1.8130  -37.4170   15.8630 O.co2 410  PHE410     -0.2437
@<TRIPOS>BOND
     1    12    11    1
     2    11    10   ar
     3    11     9   ar
     4    10     8   ar
     5     9     7   ar
     6     8     6   ar
     7     7     6   ar
     8     6     5    1
     9     5     2    1
    10     1     2    1
    11     2     3    1
    12    30    32   ar
    13    30    28   ar
    14    32    31   ar
    15    28    27   ar
    16     3    13   am
    17     3     4    2
    18    31    29   ar
    19    27    29   ar
    20    27    26    1
    21    13    14    1
    22    26    23    1
    23    14    15    1
    24    14    17    1
    25    22    15   am
    26    22    23    1
    27    15    16    2
    28    23    24    1
    29    17    18    1
    30    18    19    1
    31    24    33   ar
    32    24    25   ar
    33    19    21   am
    34    19    20    2
