@<TRIPOS>MOLECULE
3gco_III_B_1.pdb
 40 41 0 0 0
SMALL
GASTEIGER

@<TRIPOS>ATOM
      1  N          5.0680  -32.7780   10.3840 N.3   407  VAL407     -0.1231
      2  CA         4.3070  -31.5560   10.1520 C.3   407  VAL407      0.1692
      3  C          2.8100  -31.7750   10.3600 C.2   407  VAL407      0.2592
      4  O          2.0860  -30.8510   10.7320 O.2   407  VAL407     -0.2718
      5  CB         4.5590  -30.9900    8.7380 C.3   407  VAL407      0.0266
      6  CG1        5.9210  -30.3140    8.6700 C.3   407  VAL407      0.0020
      7  CG2        4.4520  -32.0930    7.6970 C.3   407  VAL407      0.0020
      8  N          2.3530  -33.0010   10.1230 N.am  408  TYR408     -0.1962
      9  CA         0.9460  -33.3460   10.3060 C.3   408  TYR408      0.1771
     10  C          0.6980  -33.9340   11.6910 C.2   408  TYR408      0.2619
     11  O          1.3430  -34.9050   12.0830 O.2   408  TYR408     -0.2715
     12  CB         0.4940  -34.3490    9.2430 C.3   408  TYR408      0.0574
     13  CG         0.7370  -33.9050    7.8190 C.ar  408  TYR408     -0.0198
     14  CD1       -0.2020  -33.1430    7.1390 C.ar  408  TYR408     -0.0009
     15  CD2        1.9030  -34.2570    7.1520 C.ar  408  TYR408     -0.0009
     16  CE1        0.0150  -32.7370    5.8350 C.ar  408  TYR408      0.0417
     17  CE2        2.1300  -33.8560    5.8490 C.ar  408  TYR408      0.0417
     18  CZ         1.1830  -33.0980    5.1960 C.ar  408  TYR408      0.1957
     19  OH         1.4050  -32.6970    3.8980 O.3   408  TYR408     -0.2866
     20  N         -0.2400  -33.3480   12.4270 N.am  409  GLN409     -0.1963
     21  CA        -0.5930  -33.8510   13.7510 C.3   409  GLN409      0.1733
     22  C         -1.9640  -34.5210   13.7510 C.2   409  GLN409      0.2617
     23  O         -2.9370  -33.9650   13.2440 O.2   409  GLN409     -0.2715
     24  CB        -0.5590  -32.7270   14.7870 C.3   409  GLN409      0.0408
     25  CG         0.8390  -32.2970   15.1960 C.3   409  GLN409      0.0908
     26  CD         0.8270  -31.2360   16.2780 C.2   409  GLN409      0.2608
     27  OE1       -0.2250  -30.6970   16.6230 O.2   409  GLN409     -0.2717
     28  NE2        1.9990  -30.9300   16.8190 N.am  409  GLN409     -0.0878
     29  N         -2.0310  -35.7170   14.3260 N.am  410  PHE410     -0.1938
     30  CA        -3.2860  -36.4560   14.4230 C.3   410  PHE410      0.2021
     31  C         -3.2500  -37.4620   15.5690 C.2   410  PHE410      0.3845
     32  O         -4.2360  -38.1440   15.8510 O.co2 410  PHE410     -0.2437
     33  CB        -3.5980  -37.1680   13.1050 C.3   410  PHE410      0.0596
     34  CG        -2.5030  -38.0820   12.6360 C.ar  410  PHE410     -0.0199
     35  CD1       -1.5460  -37.6340   11.7430 C.ar  410  PHE410     -0.0042
     36  CD2       -2.4320  -39.3900   13.0860 C.ar  410  PHE410     -0.0042
     37  CE1       -0.5380  -38.4700   11.3050 C.ar  410  PHE410     -0.0003
     38  CE2       -1.4250  -40.2330   12.6530 C.ar  410  PHE410     -0.0003
     39  CZ        -0.4780  -39.7730   11.7600 C.ar  410  PHE410     -0.0000
     40  OXT       -2.2300  -37.6190   16.2390 O.co2 410  PHE410     -0.2437
@<TRIPOS>BOND
     1    19    18    1
     2    18    16   ar
     3    18    17   ar
     4    16    14   ar
     5    17    15   ar
     6    14    13   ar
     7    15    13   ar
     8     7     5    1
     9    13    12    1
    10     6     5    1
    11     5     2    1
    12    12     9    1
    13     8     9    1
    14     8     3   am
    15     2     3    1
    16     2     1    1
    17     9    10    1
    18     3     4    2
    19    37    35   ar
    20    37    39   ar
    21    10    11    2
    22    10    20   am
    23    35    34   ar
    24    39    38   ar
    25    20    21    1
    26    34    36   ar
    27    34    33    1
    28    38    36   ar
    29    33    30    1
    30    23    22    2
    31    21    22    1
    32    21    24    1
    33    22    29   am
    34    29    30    1
    35    30    31    1
    36    24    25    1
    37    25    26    1
    38    31    32   ar
    39    31    40   ar
    40    26    27    2
    41    26    28   am
