@<TRIPOS>MOLECULE
3gcp_SB2_A_1.pdb
 27 30 0 0 0
SMALL
GASTEIGER

@<TRIPOS>ATOM
      1  O2        19.3390    4.0460  -13.4130 O.2   361  SB2361     -0.2514
      2  C1        20.2060    1.9050  -12.0000 C.3   361  SB2361      0.1110
      3  S1        20.5580    3.2320  -13.1370 S.O   361  SB2361      0.0658
      4  CA1       21.4260    2.7990  -17.0840 C.ar  361  SB2361      0.0126
      5  CA2       21.0220    3.3170  -15.8530 C.ar  361  SB2361      0.0094
      6  CA3       21.0720    2.5350  -14.7110 C.ar  361  SB2361      0.0562
      7  CA4       21.5290    1.2260  -14.8150 C.ar  361  SB2361      0.0094
      8  CA5       21.9370    0.7070  -16.0390 C.ar  361  SB2361      0.0126
      9  CA6       21.9050    1.4960  -17.1810 C.ar  361  SB2361      0.0856
     10  NB1       22.4740    1.5140  -24.6930 N.ar  361  SB2361     -0.2423
     11  CB2       22.4030    0.2610  -24.2660 C.ar  361  SB2361      0.0990
     12  CB3       22.4440   -0.0750  -22.9160 C.ar  361  SB2361      0.0233
     13  CB4       22.5770    0.9370  -21.9590 C.ar  361  SB2361      0.0362
     14  CB5       22.6180    2.2640  -22.4340 C.ar  361  SB2361      0.0233
     15  CB6       22.5780    2.5160  -23.8210 C.ar  361  SB2361      0.0990
     16  NC1       22.1540    1.5120  -19.6180 N.2   361  SB2361     -0.3372
     17  CC2       22.2950    0.9530  -18.4150 C.1   361  SB2361      0.1379
     18  NC3       22.8190   -0.2610  -18.5790 N.2   361  SB2361     -0.3372
     19  CC4       23.0190   -0.4900  -19.8700 C.2   361  SB2361      0.1740
     20  CC5       22.5990    0.6720  -20.5620 C.2   361  SB2361      0.1741
     21  CD1       23.0390   -2.9120  -19.8660 C.ar  361  SB2361      0.0050
     22  CD2       23.6090   -4.1200  -20.2720 C.ar  361  SB2361      0.0297
     23  CD3       24.7380   -4.1050  -21.1080 C.ar  361  SB2361      0.1401
     24  CD4       25.2770   -2.8960  -21.5390 C.ar  361  SB2361      0.0297
     25  CD5       24.7130   -1.6920  -21.1400 C.ar  361  SB2361      0.0050
     26  CD6       23.5770   -1.6900  -20.3240 C.ar  361  SB2361      0.0333
     27  FD3       25.3210   -5.2670  -21.5230 F     361  SB2361     -0.2042
@<TRIPOS>BOND
     1    10    11   ar
     2    10    15   ar
     3    11    12   ar
     4    15    14   ar
     5    12    13   ar
     6    14    13   ar
     7    13    20    1
     8    24    25   ar
     9    24    23   ar
    10    27    23    1
    11    25    26   ar
    12    23    22   ar
    13    20    19    1
    14    20    16    2
    15    26    19    1
    16    26    21   ar
    17    22    21   ar
    18    19    18    2
    19    16    17    2
    20    18    17    2
    21    17     9    1
    22     9     4   ar
    23     9     8   ar
    24     4     5   ar
    25     8     7   ar
    26     5     6   ar
    27     7     6   ar
    28     6     3    1
    29     1     3    2
    30     3     2    1
