@<TRIPOS>MOLECULE
3gcq_1BU_A_1.pdb
 38 42 0 0 0
SMALL
GASTEIGER

@<TRIPOS>ATOM
      1  C4        -4.3180    0.6490  -23.6540 C.2   401  1BU401      0.0699
      2  C5        -4.3510   -0.6200  -23.0690 C.2   401  1BU401      0.1008
      3  C6        -4.2130   -0.7050  -21.6570 C.2   401  1BU401      0.3642
      4  N1        -4.0790    0.4360  -20.9570 N.2   401  1BU401     -0.0327
      5  N3        -4.1680    1.7500  -22.8780 N.2   401  1BU401     -0.2225
      6  CAA       -1.3250   -9.1450  -15.2800 C.3   401  1BU401      0.0311
      7  CBA       -0.7520   -8.4740  -14.0430 C.ar  401  1BU401     -0.0204
      8  CAQ       -0.1860   -7.1980  -14.1680 C.ar  401  1BU401      0.0149
      9  CAI       -0.7960   -9.1210  -12.8080 C.ar  401  1BU401     -0.0042
     10  CAG       -0.2610   -8.4870  -11.6840 C.ar  401  1BU401      0.0012
     11  CAJ        0.2850   -7.1980  -11.8060 C.ar  401  1BU401      0.0192
     12  CBE        0.3380   -6.5580  -13.0440 C.ar  401  1BU401      0.0839
     13  NBK        0.8780   -5.3450  -13.1050 N.ar  401  1BU401     -0.2145
     14  NAV        1.9490   -5.0460  -12.5350 N.ar  401  1BU401     -0.1683
     15  CBF        2.2370   -3.7650  -12.7480 C.ar  401  1BU401      0.0811
     16  CBL        3.4900   -3.0330  -12.1500 C.3   401  1BU401      0.0372
     17  CAC        4.1820   -2.1630  -13.2290 C.3   401  1BU401      0.0060
     18  CAD        4.5120   -3.9770  -11.4990 C.3   401  1BU401      0.0060
     19  CAB        2.9340   -2.1760  -11.0100 C.3   401  1BU401      0.0060
     20  CAR        1.2560   -3.2410  -13.5170 C.ar  401  1BU401      0.0527
     21  CBG        0.3850   -4.2690  -13.7420 C.ar  401  1BU401      0.1587
     22  NAX       -0.7620   -4.2580  -14.4600 N.am  401  1BU401     -0.1418
     23  CAZ       -0.9930   -3.5400  -15.6000 C.2   401  1BU401      0.3491
     24  OAF       -0.1680   -2.7520  -16.0890 O.2   401  1BU401     -0.2484
     25  NAW       -2.2160   -3.6550  -16.1250 N.am  401  1BU401     -0.1606
     26  CBC       -2.7220   -3.1480  -17.2640 C.ar  401  1BU401      0.0752
     27  CAL       -1.8950   -2.9900  -18.3740 C.ar  401  1BU401      0.0203
     28  CAN       -2.3930   -2.5600  -19.6120 C.ar  401  1BU401      0.0457
     29  CAK       -4.0940   -2.9160  -17.4410 C.ar  401  1BU401      0.0203
     30  CAM       -4.5910   -2.4750  -18.6960 C.ar  401  1BU401      0.0457
     31  CBD       -3.7550   -2.2800  -19.7950 C.ar  401  1BU401      0.1835
     32  NAY       -4.2440   -1.9020  -21.0370 N.pl3 401  1BU401     -0.0060
     33  CAS       -4.5070   -1.7670  -23.8810 C.2   401  1BU401      0.0264
     34  CBB       -4.6370   -1.6200  -25.2780 C.2   401  1BU401      0.0855
     35  NAE       -4.7840   -2.6930  -26.0800 N.pl3 401  1BU401     -0.1284
     36  CAO       -4.6040   -0.3460  -25.8450 C.2   401  1BU401     -0.0018
     37  CAP       -4.4480    0.7900  -25.0450 C.3   401  1BU401      0.0731
     38  C2        -4.0390    1.6240  -21.5650 C.3   401  1BU401      0.3917
@<TRIPOS>BOND
     1    35    34    1
     2    36    34    2
     3    36    37    1
     4    34    33    1
     5    37     1    1
     6    33     2    2
     7     1     2    1
     8     1     5    2
     9     2     3    1
    10     5    38    1
    11     3    32    1
    12     3     4    2
    13    38     4    1
    14    32    31    1
    15    31    28   ar
    16    31    30   ar
    17    28    27   ar
    18    30    29   ar
    19    27    26   ar
    20    29    26   ar
    21    26    25    1
    22    25    23   am
    23    24    23    2
    24    23    22   am
    25     6     7    1
    26    22    21    1
    27     8     7   ar
    28     8    12   ar
    29     7     9   ar
    30    21    20   ar
    31    21    13   ar
    32    20    15   ar
    33    17    16    1
    34    13    12    1
    35    13    14   ar
    36    12    11   ar
    37     9    10   ar
    38    15    14   ar
    39    15    16    1
    40    16    18    1
    41    16    19    1
    42    11    10   ar
