@<TRIPOS>MOLECULE
3gcs_BAX_A_1.pdb
 32 34 0 0 0
SMALL
GASTEIGER

@<TRIPOS>ATOM
      1  C1       -16.3690   -7.3230   17.9900 C.ar  401  BAX401      0.0214
      2  C2       -17.1540   -7.0030   16.8680 C.ar  401  BAX401      0.0750
      3  C3       -16.6900   -7.3370   15.5950 C.ar  401  BAX401      0.0175
      4  C4       -15.4600   -7.9590   15.4230 C.ar  401  BAX401      0.0127
      5  C13      -18.7080   -5.4950   17.9310 C.2   401  BAX401      0.3477
      6  C16      -20.5500   -4.1300   18.6720 C.ar  401  BAX401      0.0752
      7  C17      -19.8220   -3.1080   19.2760 C.ar  401  BAX401      0.0198
      8  C18      -20.4350   -2.1950   20.1410 C.ar  401  BAX401      0.0388
      9  C19      -21.8190   -2.2870   20.3470 C.ar  401  BAX401      0.1454
     10  C20      -22.5540   -3.2970   19.7490 C.ar  401  BAX401      0.0388
     11  C21      -21.9300   -4.2150   18.9150 C.ar  401  BAX401      0.0198
     12  O22      -22.4910   -1.4470   21.2080 O.3   401  BAX401     -0.4534
     13  C24      -22.1850    0.5610   19.9760 C.ar  401  BAX401      0.0582
     14  C25      -22.0690    1.9530   20.0280 C.ar  401  BAX401      0.1021
     15  C27      -22.2950    1.9430   22.3740 C.ar  401  BAX401      0.1392
     16  C28      -22.4250    0.5550   22.3790 C.ar  401  BAX401      0.0613
     17  N30      -22.3710    4.0680   23.5530 N.am  401  BAX401     -0.1985
     18  C31      -22.4200    4.8910   24.7720 C.3   401  BAX401      0.1389
     19  C5       -14.6740   -8.2420   16.5630 C.ar  401  BAX401      0.0616
     20  C6       -15.1120   -7.9330   17.8450 C.ar  401  BAX401      0.0833
     21  C7       -14.2580   -8.2750   19.0990 C.3   401  BAX401      0.4194
     22  F8       -14.9290   -7.8860   20.1380 F     401  BAX401     -0.1658
     23  F9       -14.0260   -9.5830   19.2090 F     401  BAX401     -0.1658
     24  F10      -13.1090   -7.6340   19.1850 F     401  BAX401     -0.1658
     25 CL11      -13.1510   -9.0000   16.3780 Cl    401  BAX401     -0.0823
     26  N12      -18.3750   -6.4010   16.9870 N.am  401  BAX401     -0.1607
     27  N14      -19.9700   -5.0250   17.8550 N.am  401  BAX401     -0.1607
     28  O15      -17.9230   -5.1310   18.8240 O.2   401  BAX401     -0.2484
     29  C23      -22.3470   -0.1230   21.1720 C.ar  401  BAX401      0.1485
     30  N26      -22.1190    2.5800   21.2000 N.ar  401  BAX401     -0.2390
     31  C29      -22.3510    2.7400   23.6900 C.2   401  BAX401      0.2827
     32  O32      -22.3790    2.1590   24.7710 O.2   401  BAX401     -0.2667
@<TRIPOS>BOND
     1     4     3   ar
     2     4    19   ar
     3     3     2   ar
     4    25    19    1
     5    19    20   ar
     6     2    26    1
     7     2     1   ar
     8    26     5   am
     9    20     1   ar
    10    20    21    1
    11    27     5   am
    12    27     6    1
    13     5    28    2
    14     6    11   ar
    15     6     7   ar
    16    11    10   ar
    17    21    24    1
    18    21    23    1
    19    21    22    1
    20     7     8   ar
    21    10     9   ar
    22    13    14   ar
    23    13    29   ar
    24    14    30   ar
    25     8     9   ar
    26     9    12    1
    27    29    12    1
    28    29    16   ar
    29    30    15   ar
    30    15    16   ar
    31    15    31    1
    32    17    31   am
    33    17    18    1
    34    31    32    2
