@<TRIPOS>MOLECULE
3gct_III_B_1.pdb
 28 29 0 0 0
SMALL
GASTEIGER

@<TRIPOS>ATOM
      1  N         33.6030    2.6170   47.6200 N.3   501  PRO501     -0.2102
      2  CA        33.4820    3.3250   46.2770 C.3   501  PRO501      0.1504
      3  C         33.5340    2.6170   44.8580 C.2   501  PRO501      0.2576
      4  O         34.3990    2.9910   43.9810 O.2   501  PRO501     -0.2718
      5  CB        34.6760    4.2770   46.2230 C.3   501  PRO501      0.0282
      6  CG        35.6730    3.7950   47.2830 C.3   501  PRO501      0.0208
      7  CD        34.8860    2.9760   48.3150 C.3   501  PRO501      0.0893
      8  N         32.5970    1.6600   44.5890 N.am  502  GLY502     -0.1943
      9  CA        32.4930    0.8920   43.3350 C.3   502  GLY502      0.2014
     10  C         31.8890    1.6400   42.1210 C.2   502  GLY502      0.2639
     11  O         31.0410    2.5260   42.2870 O.2   502  GLY502     -0.2714
     12  N         32.2970    1.3100   40.8740 N.am  503  ALA503     -0.1963
     13  CA        31.6690    1.9910   39.7380 C.3   503  ALA503      0.1728
     14  C         30.2280    1.4190   39.5700 C.2   503  ALA503      0.2616
     15  O         29.9640    0.3260   40.0750 O.2   503  ALA503     -0.2715
     16  CB        32.5640    2.1140   38.4960 C.3   503  ALA503      0.0334
     17  N         29.2640    2.1090   38.9370 N.am  504  TYR504     -0.1974
     18  CA        27.8920    1.5900   38.8050 C.3   504  TYR504      0.1639
     19  C         27.5090    1.0610   37.4090 C.2   504  TYR504      0.2290
     20  O         27.2750   -0.1330   37.1650 O.2   504  TYR504     -0.2864
     21  CB        26.9040    2.6730   39.1850 C.3   504  TYR504      0.0560
     22  CG        26.8440    2.9360   40.6460 C.ar  504  TYR504     -0.0198
     23  CD1       27.2560    2.0160   41.6180 C.ar  504  TYR504     -0.0009
     24  CD2       26.3820    4.1950   41.0050 C.ar  504  TYR504     -0.0009
     25  CE1       27.1810    2.3440   42.9770 C.ar  504  TYR504      0.0417
     26  CE2       26.2470    4.5160   42.3460 C.ar  504  TYR504      0.0417
     27  CZ        26.6270    3.5900   43.3130 C.ar  504  TYR504      0.1957
     28  OH        26.4590    3.9940   44.6180 O.3   504  TYR504     -0.2866
@<TRIPOS>BOND
     1    20    19    2
     2    19    18    1
     3    16    13    1
     4    18    17    1
     5    18    21    1
     6    17    14   am
     7    21    22    1
     8    14    13    1
     9    14    15    2
    10    13    12    1
    11    22    24   ar
    12    22    23   ar
    13    12    10   am
    14    24    26   ar
    15    23    25   ar
    16    10    11    2
    17    10     9    1
    18    26    27   ar
    19    25    27   ar
    20    27    28    1
    21     9     8    1
    22     4     3    2
    23     8     3   am
    24     3     2    1
    25     5     2    1
    26     5     6    1
    27     2     1    1
    28     6     7    1
    29     1     7    1
