@<TRIPOS>MOLECULE
3gcu_R48_A_1.pdb
 38 42 0 0 0
SMALL
GASTEIGER

@<TRIPOS>ATOM
      1  C5        12.0610    1.4800    3.3380 C.2   401  R48401      0.1008
      2  C1S       12.0070    2.3380    2.2090 C.2   401  R48401      0.0264
      3  C2B       11.8720    3.7320    2.3700 C.2   401  R48401      0.0855
      4  N1E       11.8240    4.5870    1.2970 N.pl3 401  R48401     -0.1284
      5  C1M       11.8020    4.2330    3.6680 C.2   401  R48401     -0.0018
      6  C1P       11.8560    3.3990    4.8000 C.3   401  R48401      0.0731
      7  C4        11.9780    2.0200    4.6330 C.2   401  R48401      0.0699
      8  N3        12.0290    1.2170    5.7020 N.2   401  R48401     -0.2225
      9  C2        12.1450   -0.1200    5.5590 C.3   401  R48401      0.3917
     10  N1        12.2280   -0.6770    4.3440 N.2   401  R48401     -0.0327
     11  C6        12.1770    0.0800    3.2080 C.2   401  R48401      0.3642
     12  N1Y       12.2660   -0.4790    1.9810 N.pl3 401  R48401     -0.0059
     13  C2D       12.0430   -1.8130    1.7190 C.ar  401  R48401      0.1847
     14  C1Q       12.9910   -2.5650    0.9780 C.ar  401  R48401      0.0610
     15  C1J       10.8580   -2.4440    2.1280 C.ar  401  R48401      0.0445
     16  C1G       10.6260   -3.7960    1.8160 C.ar  401  R48401      0.0050
     17  C1I       11.5770   -4.5270    1.0960 C.ar  401  R48401      0.0169
     18  C2C       12.7690   -3.9180    0.6790 C.ar  401  R48401      0.0785
     19  N1W       13.6160   -4.7000   -0.0190 N.am  401  R48401     -0.1605
     20  C1Z       14.9170   -4.9360    0.1640 C.2   401  R48401      0.3491
     21  O1F       15.5560   -4.4140    1.0730 O.2   401  R48401     -0.2484
     22  N1X       15.4700   -5.7740   -0.7320 N.am  401  R48401     -0.1418
     23  C2G       16.7290   -6.3000   -0.7260 C.ar  401  R48401      0.1587
     24  C1R       17.5120   -6.5020    0.3640 C.ar  401  R48401      0.0527
     25  C2F       18.6130   -7.1730   -0.0660 C.ar  401  R48401      0.0811
     26  C2L       19.8240   -7.6190    0.8090 C.3   401  R48401      0.0372
     27  C1C       19.3350   -8.8180    1.6190 C.3   401  R48401      0.0060
     28  C1D       21.0840   -8.0740    0.0650 C.3   401  R48401      0.0060
     29  C1B       20.2420   -6.5170    1.7550 C.3   401  R48401      0.0060
     30  N1V       18.4510   -7.4100   -1.3650 N.ar  401  R48401     -0.1683
     31  N2K       17.3430   -6.9310   -1.7330 N.ar  401  R48401     -0.2145
     32  C2E       16.8790   -7.0260   -2.9950 C.ar  401  R48401      0.0842
     33  C1N       16.9710   -8.2910   -3.5790 C.ar  401  R48401      0.0189
     34  C1K       16.5220   -8.5200   -4.8690 C.ar  401  R48401     -0.0027
     35  C2A       15.9620   -7.4810   -5.5880 C.ar  401  R48401     -0.0218
     36  C1A       15.5020   -7.7570   -7.0240 C.3   401  R48401      0.0310
     37  C1L       15.8650   -6.2040   -5.0370 C.ar  401  R48401     -0.0027
     38  C1O       16.3140   -5.9630   -3.7230 C.ar  401  R48401      0.0189
@<TRIPOS>BOND
     1    36    35    1
     2    35    37   ar
     3    35    34   ar
     4    37    38   ar
     5    34    33   ar
     6    38    32   ar
     7    33    32   ar
     8    32    31    1
     9    31    30   ar
    10    31    23   ar
    11    30    25   ar
    12    22    23    1
    13    22    20   am
    14    23    24   ar
    15    25    24   ar
    16    25    26    1
    17    19    20   am
    18    19    18    1
    19    28    26    1
    20    20    21    2
    21    18    14   ar
    22    18    17   ar
    23    26    27    1
    24    26    29    1
    25    14    13   ar
    26    17    16   ar
    27     4     3    1
    28    13    12    1
    29    13    15   ar
    30    16    15   ar
    31    12    11    1
    32     2     3    1
    33     2     1    2
    34     3     5    2
    35    11     1    1
    36    11    10    2
    37     1     7    1
    38     5     6    1
    39    10     9    1
    40     7     6    1
    41     7     8    2
    42     9     8    1
