@<TRIPOS>MOLECULE
3gcv_SS6_A_1.pdb
 38 42 0 0 0
SMALL
GASTEIGER

@<TRIPOS>ATOM
      1  C4        -3.1550    3.6610  -19.6340 C.2   361  SS6361      0.0738
      2  C5        -3.0540    2.3410  -19.1490 C.3   361  SS6361      0.1723
      3  C6        -2.8640    2.1630  -17.7690 C.2   361  SS6361      0.3482
      4  N1        -2.7870    3.2450  -16.9540 N.2   361  SS6361     -0.0363
      5  N3        -3.0570    4.6740  -18.7730 N.2   361  SS6361     -0.2221
      6  CAA        1.9870   -7.0980   -8.6200 C.3   361  SS6361      0.0311
      7  CBA        1.7350   -6.3130   -9.9370 C.ar  361  SS6361     -0.0204
      8  CAP        2.2360   -5.0280  -10.0650 C.ar  361  SS6361      0.0149
      9  CAJ        1.0100   -6.8800  -10.9800 C.ar  361  SS6361     -0.0042
     10  CAH        0.8090   -6.1700  -12.1560 C.ar  361  SS6361      0.0012
     11  CAM        1.3110   -4.8720  -12.2810 C.ar  361  SS6361      0.0192
     12  CBE        2.0210   -4.3030  -11.2160 C.ar  361  SS6361      0.0839
     13  NBK        2.5300   -3.0600  -11.2790 N.ar  361  SS6361     -0.2145
     14  NAV        3.6680   -2.7760  -10.8570 N.ar  361  SS6361     -0.1683
     15  CBF        3.8800   -1.4860  -11.0640 C.ar  361  SS6361      0.0811
     16  CBL        5.1950   -0.7890  -10.6360 C.3   361  SS6361      0.0372
     17  CAC        4.8790    0.1840   -9.4930 C.3   361  SS6361      0.0060
     18  CAD        6.2070   -1.8500  -10.1340 C.3   361  SS6361      0.0060
     19  CAB        5.7930   -0.0170  -11.7880 C.3   361  SS6361      0.0060
     20  CAR        2.7850   -0.9440  -11.6420 C.ar  361  SS6361      0.0527
     21  CBG        1.9370   -1.9880  -11.8240 C.ar  361  SS6361      0.1587
     22  NAX        0.6620   -1.9220  -12.2870 N.am  361  SS6361     -0.1418
     23  CAZ        0.0860   -0.9810  -13.0820 C.2   361  SS6361      0.3491
     24  OAF        0.7290   -0.1760  -13.7590 O.2   361  SS6361     -0.2484
     25  NAW       -1.2490   -1.0650  -13.1590 N.am  361  SS6361     -0.1605
     26  CBC       -2.1460   -0.3550  -13.9060 C.ar  361  SS6361      0.0785
     27  CAQ       -1.9640   -0.0590  -15.2630 C.ar  361  SS6361      0.0610
     28  CAK       -3.3230    0.0750  -13.2660 C.ar  361  SS6361      0.0169
     29  CAG       -4.3030    0.8010  -13.9430 C.ar  361  SS6361      0.0050
     30  CAL       -4.1090    1.0830  -15.2990 C.ar  361  SS6361      0.0445
     31  CBD       -2.9400    0.6620  -15.9540 C.ar  361  SS6361      0.1844
     32  NAY       -2.7600    0.9290  -17.2530 N.pl3 361  SS6361     -0.0094
     33  CAS       -3.1490    1.2520  -20.0490 C.2   361  SS6361      0.0098
     34  CBB       -3.3280    1.4750  -21.4290 C.2   361  SS6361      0.0858
     35  NAE       -3.4310    0.4360  -22.3090 N.pl3 361  SS6361     -0.1284
     36  CAN       -3.4100    2.8090  -21.8960 C.2   361  SS6361      0.0190
     37  CAO       -3.3200    3.9060  -21.0020 C.2   361  SS6361      0.0167
     38  C2        -2.8830    4.4730  -17.4590 C.3   361  SS6361      0.3913
@<TRIPOS>BOND
     1    35    34    1
     2    36    34    1
     3    36    37    2
     4    34    33    2
     5    37     1    1
     6    33     2    1
     7     1     2    1
     8     1     5    2
     9     2     3    1
    10     5    38    1
    11     3    32    1
    12     3     4    2
    13    38     4    1
    14    32    31    1
    15    31    30   ar
    16    31    27   ar
    17    30    29   ar
    18    27    26   ar
    19    29    28   ar
    20    26    28   ar
    21    26    25    1
    22    24    23    2
    23    25    23   am
    24    23    22   am
    25    22    21    1
    26    11    10   ar
    27    11    12   ar
    28    10     9   ar
    29    21    20   ar
    30    21    13   ar
    31    19    16    1
    32    20    15   ar
    33    13    12    1
    34    13    14   ar
    35    12     8   ar
    36    15    14   ar
    37    15    16    1
    38     9     7   ar
    39    16    18    1
    40    16    17    1
    41     8     7   ar
    42     7     6    1
