@<TRIPOS>MOLECULE
3gcz_SAM_A_1.pdb
 27 29 0 0 0
SMALL
GASTEIGER

@<TRIPOS>ATOM
      1  N        -12.7570   12.1090   -1.5590 N.3   4633  SAM4633    -0.1260
      2  CA       -12.2330   10.8250   -0.9920 C.3   4633  SAM4633     0.1386
      3  C        -13.2120    9.7000   -1.3100 C.2   4633  SAM4633     0.1138
      4  O        -12.9110    8.5020   -1.1360 O.co2 4633  SAM4633    -0.3068
      5  OXT      -14.3310   10.0040   -1.7570 O.co2 4633  SAM4633    -0.8462
      6  CB       -12.0010   10.9720    0.5120 C.3   4633  SAM4633     0.0364
      7  CG       -10.7300   11.7950    0.6460 C.3   4633  SAM4633     0.0501
      8  SD       -10.0370   11.6630    2.2810 S.3   4633  SAM4633    -0.1761
      9  CE       -11.1110   12.7930    3.2050 C.3   4633  SAM4633     0.0590
     10  C5'       -8.5670   12.6840    2.1030 C.3   4633  SAM4633     0.0806
     11  C4'       -7.3840   11.8500    1.6370 C.3   4633  SAM4633     0.1622
     12  O4'       -6.3550   12.7820    1.4290 O.3   4633  SAM4633    -0.3153
     13  C3'       -6.8610   10.8340    2.6550 C.3   4633  SAM4633     0.2168
     14  O3'       -6.9180    9.5120    2.1480 O.3   4633  SAM4633    -0.2175
     15  C2'       -5.4040   11.2520    2.9070 C.3   4633  SAM4633     0.2569
     16  O2'       -4.4950   10.1630    3.0510 O.3   4633  SAM4633    -0.2130
     17  C1'       -5.1260   12.1350    1.6950 C.3   4633  SAM4633     0.3185
     18  N9        -4.1190   13.1570    1.9070 N.pl3 4633  SAM4633    -0.1439
     19  C8        -3.9460   13.9270    3.0300 C.3   4633  SAM4633     0.3377
     20  N7        -2.9000   14.7660    2.8230 N.2   4633  SAM4633    -0.2095
     21  C5        -2.4290   14.5270    1.5790 C.2   4633  SAM4633     0.2526
     22  C6        -1.3720   15.0710    0.8800 C.2   4633  SAM4633     0.4393
     23  N6        -0.6140   16.0480    1.4210 N.pl3 4633  SAM4633     0.2180
     24  N1        -1.1600   14.6060   -0.3990 N.2   4633  SAM4633     0.0021
     25  C2        -1.9500   13.6040   -0.9630 C.3   4633  SAM4633     0.5254
     26  N3        -2.9680   13.0550   -0.2620 N.2   4633  SAM4633    -0.0055
     27  C4        -3.2010   13.5290    0.9890 C.2   4633  SAM4633     0.3518
@<TRIPOS>UNITY_ATOM_ATTR
5 1
charge -1
@<TRIPOS>BOND
     1     5     3   ar
     2     1     2    1
     3     3     4   ar
     4     3     2    1
     5     2     6    1
     6    25    24    1
     7    25    26    1
     8    24    22    2
     9    26    27    2
    10     6     7    1
    11     7     8    1
    12    22    23    1
    13    22    21    1
    14    27    21    1
    15    27    18    1
    16    12    11    1
    17    12    17    1
    18    21    20    2
    19    11    10    1
    20    11    13    1
    21    17    18    1
    22    17    15    1
    23    18    19    1
    24    10     8    1
    25    14    13    1
    26     8     9    1
    27    13    15    1
    28    20    19    1
    29    15    16    1
