@<TRIPOS>MOLECULE
3gd2_708_A_1.pdb
 39 42 0 0 0
SMALL
GASTEIGER

@<TRIPOS>ATOM
      1 CL38      129.0660  157.9230   20.4450 Cl      1  7081       -0.0821
      2  C37      130.8030  157.8170   20.8380 C.ar    1  7081        0.0607
      3  C25      131.6390  156.7780   20.4200 C.ar    1  7081        0.0108
      4  C26      131.2510  155.6770   19.5090 C.2     1  7081        0.0008
      5  C27      130.1060  155.6950   18.8360 C.2     1  7081        0.0000
      6  C28      129.7100  154.6780   17.8350 C.ar    1  7081        0.0002
      7  C33      128.5180  154.9240   17.1600 C.ar    1  7081        0.0066
      8  C32      128.0610  154.0570   16.1760 C.ar    1  7081        0.0798
      9  C34      126.7670  154.3610   15.4850 C.2     1  7081        0.3878
     10  O36      126.0280  155.3990   15.8910 O.co2   1  7081       -0.2406
     11  O35      126.3970  153.6910   14.5280 O.co2   1  7081       -0.2406
     12  C31      128.8120  152.9350   15.8420 C.ar    1  7081        0.0066
     13  C30      130.0190  152.6940   16.5010 C.ar    1  7081        0.0002
     14  C29      130.4790  153.5630   17.4920 C.ar    1  7081        0.0000
     15  C24      132.9810  156.8170   20.7920 C.ar    1  7081        0.0040
     16  C23      133.4630  157.8480   21.5940 C.ar    1  7081        0.0370
     17  C39      131.2810  158.8420   21.6380 C.ar    1  7081        0.0483
     18  C22      132.6060  158.8650   22.0180 C.ar    1  7081        0.1399
     19  O21      133.0120  159.8970   22.8020 O.3     1  7081       -0.4705
     20  C20      134.3650  160.0630   23.1860 C.3     1  7081        0.2361
     21  C19      134.4540  161.2330   24.1230 C.ar    1  7081        0.0717
     22  C4       135.4200  162.3360   23.9900 C.ar    1  7081        0.1531
     23  C2       136.5170  162.6470   23.0470 C.3     1  7081        0.0600
     24  C3       137.7520  161.8690   23.4950 C.3     1  7081        0.0080
     25  C1       136.7870  164.1490   22.9550 C.3     1  7081        0.0080
     26  C7       133.6690  161.5140   25.2550 C.ar    1  7081        0.1136
     27  N6       134.0800  162.6740   25.8250 N.ar    1  7081       -0.0810
     28  O5       135.1680  163.1620   25.0280 O.2     1  7081       -0.3583
     29  C8       132.5540  160.6670   25.8100 C.3     1  7081        0.1451
     30  S9       133.2400  159.5710   27.1100 S.O     1  7081        0.0727
     31  O10      131.8440  158.7720   27.8920 O.2     1  7081       -0.2510
     32  C11      134.0320  158.2360   26.1540 C.ar    1  7081        0.0776
     33  C17      133.2940  157.2730   25.4740 C.ar    1  7081        0.0665
     34 CL18      131.5040  157.2780   25.4710 Cl      1  7081       -0.0816
     35  C16      133.9400  156.2750   24.7590 C.ar    1  7081        0.0120
     36  C15      135.3270  156.2360   24.7250 C.ar    1  7081        0.0018
     37  C14      136.0680  157.1930   25.4020 C.ar    1  7081        0.0120
     38  C12      135.4150  158.1850   26.1180 C.ar    1  7081        0.0665
     39 CL13      136.3660  159.4180   26.9980 Cl      1  7081       -0.0816
@<TRIPOS>BOND
     1    11     9   ar
     2     9    10   ar
     3     9     8    1
     4    12     8   ar
     5    12    13   ar
     6     8     7   ar
     7    13    14   ar
     8     7     6   ar
     9    14     6   ar
    10     6     5    1
    11     5     4    2
    12     4     3    1
    13     3    15   ar
    14     3     2   ar
    15     1     2    1
    16    15    16   ar
    17     2    17   ar
    18    16    18   ar
    19    17    18   ar
    20    18    19    1
    21    19    20    1
    22    25    23    1
    23    23    24    1
    24    23    22    1
    25    20    21    1
    26    22    21   ar
    27    22    28   ar
    28    21    26   ar
    29    36    35   ar
    30    36    37   ar
    31    35    33   ar
    32    28    27   ar
    33    26    29    1
    34    26    27   ar
    35    37    38   ar
    36    34    33    1
    37    33    32   ar
    38    29    30    1
    39    38    32   ar
    40    38    39    1
    41    32    30    1
    42    30    31    2
