@<TRIPOS>MOLECULE
3gd4_NAD_A_1.pdb
 44 48 0 0 0
SMALL
GASTEIGER

@<TRIPOS>ATOM
      1  PA       -31.0710   30.7310  -20.2560 P.3   700  NAD700      0.2189
      2  O1A      -31.5470   31.0290  -21.6180 O.2   700  NAD700     -0.5170
      3  O2A      -30.5200   29.3930  -19.9910 O.3   700  NAD700     -0.4371
      4  O5B      -32.2590   30.9320  -19.2530 O.3   700  NAD700     -0.3112
      5  C5B      -33.0840   32.0220  -19.4230 C.3   700  NAD700      0.1813
      6  C4B      -33.8270   31.8960  -18.1440 C.3   700  NAD700      0.1821
      7  O4B      -34.0630   33.1820  -17.6990 O.3   700  NAD700     -0.3135
      8  C3B      -35.1650   31.2240  -18.3190 C.3   700  NAD700      0.2184
      9  O3B      -35.0010   29.8350  -18.1450 O.3   700  NAD700     -0.2174
     10  C2B      -35.9350   31.8400  -17.1790 C.3   700  NAD700      0.2570
     11  O2B      -35.7970   31.0330  -16.0140 O.3   700  NAD700     -0.2130
     12  C1B      -35.2420   33.1800  -16.9660 C.3   700  NAD700      0.3186
     13  N9A      -36.0220   34.2810  -17.5050 N.pl3 700  NAD700     -0.1439
     14  C8A      -36.2310   34.6160  -18.8260 C.3   700  NAD700      0.3377
     15  N7A      -37.0200   35.7110  -18.8680 N.2   700  NAD700     -0.2095
     16  C5A      -37.2940   36.0670  -17.5810 C.2   700  NAD700      0.2526
     17  C6A      -38.0410   37.1010  -17.0320 C.2   700  NAD700      0.4393
     18  N6A      -38.3110   38.1630  -17.7820 N.pl3 700  NAD700      0.2180
     19  N1A      -38.1310   37.1920  -15.6590 N.2   700  NAD700      0.0021
     20  C2A      -37.4910   36.2970  -14.8110 C.3   700  NAD700      0.5254
     21  N3A      -36.7520   35.2730  -15.3630 N.2   700  NAD700     -0.0055
     22  C4A      -36.6670   35.1720  -16.7170 C.2   700  NAD700      0.3518
     23  O3       -30.0420   31.9190  -19.9920 O.3   700  NAD700     -0.2703
     24  PN       -29.1930   32.2140  -18.6990 P.3   700  NAD700      0.2189
     25  O1N      -29.4340   31.1920  -17.6560 O.3   700  NAD700     -0.4371
     26  O2N      -29.4010   33.6740  -18.4030 O.2   700  NAD700     -0.5170
     27  O5D      -27.7480   32.0310  -19.3030 O.3   700  NAD700     -0.3112
     28  C5D      -27.2340   33.0210  -20.1710 C.3   700  NAD700      0.1813
     29  C4D      -26.3570   32.3320  -21.1950 C.3   700  NAD700      0.1799
     30  O4D      -25.4640   31.5210  -20.4840 O.3   700  NAD700     -0.3327
     31  C3D      -27.1720   31.3850  -22.0820 C.3   700  NAD700      0.2158
     32  O3D      -26.7010   31.5760  -23.3980 O.3   700  NAD700     -0.2175
     33  C2D      -26.9020   29.9890  -21.5310 C.3   700  NAD700      0.2309
     34  O2D      -26.8900   28.9870  -22.5190 O.3   700  NAD700     -0.2158
     35  C1D      -25.5250   30.1570  -20.9030 C.3   700  NAD700      0.2263
     36  N1N      -25.1850   29.2050  -19.7990 N.pl3 700  NAD700     -0.2787
     37  C2N      -25.1020   27.8680  -20.0740 C.3   700  NAD700      0.1244
     38  C3N      -24.7820   26.9470  -19.0750 C.2   700  NAD700      0.0544
     39  C7N      -24.7070   25.5070  -19.4690 C.2   700  NAD700      0.2818
     40  O7N      -24.9270   25.2160  -20.8080 O.2   700  NAD700     -0.2670
     41  N7N      -24.4110   24.5560  -18.5910 N.am  700  NAD700     -0.0839
     42  C4N      -24.5130   27.3650  -17.7770 C.2   700  NAD700      0.0033
     43  C5N      -24.5820   28.7330  -17.5020 C.2   700  NAD700      0.0157
     44  C6N      -24.9180   29.6380  -18.5190 C.2   700  NAD700      0.0633
@<TRIPOS>BOND
     1    32    31    1
     2    34    33    1
     3    31    33    1
     4    31    29    1
     5     2     1    2
     6    33    35    1
     7    29    30    1
     8    29    28    1
     9    35    30    1
    10    35    36    1
    11    40    39    2
    12     1    23    1
    13     1     3    1
    14     1     4    1
    15    28    27    1
    16    37    36    1
    17    37    38    1
    18    23    24    1
    19    36    44    1
    20    39    38    1
    21    39    41   am
    22     5     4    1
    23     5     6    1
    24    27    24    1
    25    38    42    2
    26    15    14    1
    27    15    16    2
    28    14    13    1
    29    24    26    2
    30    24    25    1
    31    44    43    2
    32     8     9    1
    33     8     6    1
    34     8    10    1
    35     6     7    1
    36    18    17    1
    37    42    43    1
    38     7    12    1
    39    16    17    1
    40    16    22    1
    41    13    12    1
    42    13    22    1
    43    10    12    1
    44    10    11    1
    45    17    19    2
    46    22    21    2
    47    19    20    1
    48    21    20    1
