@<TRIPOS>MOLECULE
3gd7_B44_A_1.pdb
 39 42 0 0 0
SMALL
GASTEIGER

@<TRIPOS>ATOM
      1  O1       -51.0060   58.9280    3.7310 O.3     1  B441       -0.3112
      2  C7       -53.6400   63.2900    5.0160 C.2     1  B441        0.3517
      3  O2       -53.2200   60.7310    2.5770 O.3     1  B441       -0.3135
      4  C6       -54.8880   65.0840    5.4580 C.3     1  B441        0.5253
      5  C1       -51.7870   58.7990    2.5410 C.3     1  B441        0.1813
      6  N1       -54.7140   64.9860    6.7990 N.2     1  B441       -0.0020
      7  C5       -52.9700   62.1120    2.8950 C.3     1  B441        0.3186
      8  C4       -51.6610   62.5280    2.2250 C.3     1  B441        0.2570
      9  C3       -50.9350   61.2040    2.1390 C.3     1  B441        0.2184
     10  C2       -52.0430   60.1790    1.9180 C.3     1  B441        0.1821
     11  O13      -45.4800   55.0320    2.3810 O.2     1  B441       -0.2221
     12  P3       -45.9420   56.1220    3.3360 P.3     1  B441        0.5373
     13  O7       -45.9860   55.6530    4.7980 O.3     1  B441       -0.1143
     14  O10      -45.1980   57.4380    3.2020 O.3     1  B441       -0.1143
     15  O12      -47.4930   56.3610    2.9470 O.3     1  B441       -0.2258
     16  P2       -48.8460   55.5410    3.2460 P.3     1  B441        0.2277
     17  O6       -49.1910   54.6340    2.0880 O.2     1  B441       -0.5168
     18  O9       -48.7200   54.9210    4.6270 O.3     1  B441       -0.4368
     19  O11      -49.8430   56.7800    3.3470 O.3     1  B441       -0.2700
     20  P1       -50.5380   57.5790    4.5360 P.3     1  B441        0.2189
     21  O5       -49.4870   58.0500    5.5130 O.3     1  B441       -0.4371
     22  O8       -51.7920   56.8870    5.0110 O.2     1  B441       -0.5170
     23  O3       -50.0170   61.2750    1.0250 O.3     1  B441       -0.2174
     24  O4       -51.8590   63.0780    0.9110 O.3     1  B441       -0.2130
     25  N9       -52.9820   62.2890    4.3460 N.pl3   1  B441       -0.1439
     26  N3       -54.3940   64.2800    4.4980 N.2     1  B441       -0.0055
     27  C13      -52.3560   61.5250    5.2970 C.3     1  B441        0.3377
     28  N7       -52.5710   61.9650    6.5220 N.2     1  B441       -0.2097
     29  C8       -53.3750   63.0690    6.3620 C.2     1  B441        0.2478
     30  C9       -53.9420   63.9680    7.2900 C.2     1  B441        0.3855
     31  N6       -53.7210   63.8070    8.6470 N.pl3   1  B441       -0.0296
     32  C10      -54.2810   64.6940    9.6420 C.3     1  B441        0.2559
     33  C11      -54.2410   64.0480   11.0320 C.3     1  B441        0.0817
     34  C12      -54.8140   62.6570   11.2290 C.ar    1  B441       -0.0179
     35  C18      -54.0590   61.4790   11.0500 C.ar    1  B441       -0.0041
     36  C17      -54.6390   60.2170   11.2530 C.ar    1  B441       -0.0003
     37  C16      -55.9790   60.1130   11.6420 C.ar    1  B441       -0.0000
     38  C15      -56.7410   61.2700   11.8280 C.ar    1  B441       -0.0003
     39  C14      -56.1620   62.5320   11.6260 C.ar    1  B441       -0.0041
@<TRIPOS>BOND
     1    24     8    1
     2    23     9    1
     3    10     9    1
     4    10     5    1
     5    10     3    1
     6    17    16    2
     7     9     8    1
     8     8     7    1
     9    11    12    2
    10     5     1    1
    11     3     7    1
    12     7    25    1
    13    15    16    1
    14    15    12    1
    15    14    12    1
    16    16    19    1
    17    16    18    1
    18    12    13    1
    19    19    20    1
    20     1    20    1
    21    25     2    1
    22    25    27    1
    23    26     2    2
    24    26     4    1
    25    20    22    2
    26    20    21    1
    27     2    29    1
    28    27    28    1
    29     4     6    1
    30    29    28    2
    31    29    30    1
    32     6    30    2
    33    30    31    1
    34    31    32    1
    35    32    33    1
    36    33    34    1
    37    35    34   ar
    38    35    36   ar
    39    34    39   ar
    40    36    37   ar
    41    39    38   ar
    42    37    38   ar
