@<TRIPOS>MOLECULE
3gd9_BGC_A_1.pdb
 11 11 0 0 0
SMALL
GASTEIGER

@<TRIPOS>ATOM
      1  C2        11.6870   -0.8110   14.9500 C.3     2  BGC2        0.2141
      2  C3        11.3820   -0.7470   16.4450 C.3     2  BGC2        0.2173
      3  C4        11.2790   -2.1500   17.0440 C.3     2  BGC2        0.2142
      4  C5        12.5000   -2.9490   16.6470 C.3     2  BGC2        0.1810
      5  C6        12.5350   -4.2970   17.3050 C.3     2  BGC2        0.2141
      6  C1        12.6730   -1.9220   14.5310 C.3     2  BGC2        0.1777
      7  O2        12.1390    0.4820   14.5070 O.3     2  BGC2       -0.2176
      8  O3        10.0850   -0.2240   16.5200 O.3     2  BGC2       -0.2175
      9  O4        11.1320   -2.0580   18.4680 O.3     2  BGC2       -0.2176
     10  O5        12.4380   -3.1400   15.2400 O.3     2  BGC2       -0.3481
     11  O6        13.6080   -4.2290   18.2450 O.3     2  BGC2       -0.2176
@<TRIPOS>BOND
     1     7     1    1
     2     6     1    1
     3     6    10    1
     4     1     2    1
     5    10     4    1
     6     2     8    1
     7     2     3    1
     8     4     3    1
     9     4     5    1
    10     3     9    1
    11     5    11    1
