@<TRIPOS>MOLECULE
3gd9_GLC_A_1.pdb
 12 12 0 0 0
SMALL
GASTEIGER

@<TRIPOS>ATOM
      1  C1        14.1000   -2.7920    9.9910 C.3     1  GLC1        0.3024
      2  C2        13.8150   -2.0690   11.3470 C.3     1  GLC1        0.2434
      3  C3        13.3940   -2.9520   12.5090 C.3     1  GLC1        0.2199
      4  C4        12.7630   -4.2380   12.0240 C.3     1  GLC1        0.2144
      5  C5        13.6930   -5.0030   11.1030 C.3     1  GLC1        0.1836
      6  C6        13.0210   -6.2950   10.6430 C.3     1  GLC1        0.2142
      7  O1        15.2770   -2.2690    9.3580 O.3     1  GLC1       -0.1869
      8  O2        14.8910   -1.2080   11.7960 O.3     1  GLC1       -0.2148
      9  O3        12.3880   -2.2190   13.1860 O.3     1  GLC1       -0.2174
     10  O4        12.4890   -5.0530   13.1630 O.3     1  GLC1       -0.2176
     11  O5        14.1270   -4.2460    9.9540 O.3     1  GLC1       -0.3236
     12  O6        11.9900   -5.9900    9.6960 O.3     1  GLC1       -0.2176
@<TRIPOS>BOND
     1     7     1    1
     2    12     6    1
     3    11     1    1
     4    11     5    1
     5     1     2    1
     6     6     5    1
     7     5     4    1
     8     2     8    1
     9     2     3    1
    10     4     3    1
    11     4    10    1
    12     3     9    1
