@<TRIPOS>MOLECULE
3gdh_MGP_A_1.pdb
 33 35 0 0 0
SMALL
GASTEIGER

@<TRIPOS>ATOM
      1  PA        23.9870   27.7800  -60.0260 P.3     1  MGP1        0.2189
      2  O1A       24.0420   29.1050  -59.5480 O.3     1  MGP1       -0.4371
      3  O2A       22.8820   27.1010  -59.7440 O.2     1  MGP1       -0.5170
      4  O3A       24.3160   27.7580  -61.5760 O.3     1  MGP1       -0.2700
      5  O5'       24.9740   27.0960  -59.3400 O.3     1  MGP1       -0.3112
      6  PB        24.8260   28.9370  -62.5640 P.3     1  MGP1        0.2277
      7  O1B       25.9670   29.2410  -61.8750 O.3     1  MGP1       -0.4368
      8  O2B       24.8130   28.1220  -63.6610 O.2     1  MGP1       -0.5168
      9  O3B       23.6380   29.8480  -62.3530 O.3     1  MGP1       -0.2258
     10  PC        21.9840   30.0370  -62.8190 P.3     1  MGP1        0.5373
     11  O1C       21.4280   29.4480  -64.0950 O.2     1  MGP1       -0.2221
     12  O2C       21.7200   31.5720  -62.7830 O.3     1  MGP1       -0.1143
     13  O3C       20.9920   29.5420  -61.7760 O.3     1  MGP1       -0.1143
     14  C5'       26.3170   27.4160  -59.3260 C.3     1  MGP1        0.1813
     15  C4'       27.1710   26.6000  -58.3450 C.3     1  MGP1        0.1799
     16  O4'       26.8400   26.8490  -57.0090 O.3     1  MGP1       -0.3326
     17  C3'       27.1240   25.0710  -58.5040 C.3     1  MGP1        0.2158
     18  O3'       28.0030   24.7280  -59.4540 O.3     1  MGP1       -0.2175
     19  C2'       27.6020   24.6260  -57.1250 C.3     1  MGP1        0.2310
     20  O2'       28.9620   24.7240  -56.9750 O.3     1  MGP1       -0.2158
     21  C1'       26.9840   25.6740  -56.2340 C.3     1  MGP1        0.2287
     22  N9        25.7670   25.3220  -55.5560 N.pl3   1  MGP1       -0.2454
     23  C8        24.5530   25.4100  -56.0010 C.3     1  MGP1        0.1735
     24  N7        23.7290   25.0170  -55.0790 N.3     1  MGP1       -0.2343
     25  CM7       22.3350   24.9810  -55.1970 C.3     1  MGP1        0.0924
     26  C5        24.3830   24.6880  -54.0230 C.3     1  MGP1        0.2475
     27  C6        24.0100   24.2260  -52.7780 C.1     1  MGP1        0.2145
     28  O6        22.8620   24.0460  -52.4840 O.2     1  MGP1       -0.2115
     29  N1        24.9920   23.9910  -51.8930 N.2     1  MGP1       -0.2526
     30  C2        26.2980   24.1610  -52.2250 C.1     1  MGP1        0.2525
     31  N2        27.2000   23.8970  -51.3550 N.pl3   1  MGP1       -0.0226
     32  N3        26.6380   24.5810  -53.4300 N.2     1  MGP1       -0.3118
     33  C4        25.7080   24.8720  -54.3250 C.2     1  MGP1        0.2086
@<TRIPOS>BOND
     1    11    10    2
     2     8     6    2
     3    10    12    1
     4    10     9    1
     5    10    13    1
     6     6     9    1
     7     6     7    1
     8     6     4    1
     9     4     1    1
    10     1     3    2
    11     1     2    1
    12     1     5    1
    13    18    17    1
    14     5    14    1
    15    14    15    1
    16    17    15    1
    17    17    19    1
    18    15    16    1
    19    19    20    1
    20    19    21    1
    21    16    21    1
    22    21    22    1
    23    23    22    1
    24    23    24    1
    25    22    33    1
    26    25    24    1
    27    24    26    1
    28    33    26    1
    29    33    32    2
    30    26    27    1
    31    32    30    2
    32    27    28    2
    33    27    29    2
    34    30    29    2
    35    30    31    1
