@<TRIPOS>MOLECULE
3gdh_SAH_A_1.pdb
 26 28 0 0 0
SMALL
GASTEIGER

@<TRIPOS>ATOM
      1  N         30.7110   20.6800  -51.3570 N.3   854  SAH854     -0.1159
      2  CA        30.0510   19.4890  -51.8420 C.3   854  SAH854      0.2168
      3  CB        28.5400   19.7130  -52.0420 C.2   854  SAH854      0.0105
      4  CG        27.6690   19.7100  -50.7810 C.2   854  SAH854      0.0284
      5  SD        25.9080   19.8900  -51.0670 S.3   854  SAH854     -0.1108
      6  C         30.7360   18.9820  -53.1490 C.2   854  SAH854      0.3860
      7  O         30.2310   18.0360  -53.7000 O.co2 854  SAH854     -0.2437
      8  OXT       31.7510   19.3990  -53.4750 O.co2 854  SAH854     -0.2437
      9  C5'       25.1950   19.8520  -49.4160 C.3   854  SAH854      0.0945
     10  C4'       25.2750   18.4990  -48.6930 C.3   854  SAH854      0.1634
     11  O4'       24.9300   18.5630  -47.3770 O.3   854  SAH854     -0.3152
     12  C3'       24.2980   17.5470  -49.3670 C.3   854  SAH854      0.2168
     13  O3'       24.9930   16.5310  -50.0240 O.3   854  SAH854     -0.2175
     14  C2'       23.4510   17.0330  -48.1910 C.3   854  SAH854      0.2569
     15  O2'       23.1200   15.7110  -48.2820 O.3   854  SAH854     -0.2130
     16  C1'       24.3560   17.3000  -47.0300 C.3   854  SAH854      0.3185
     17  N9        23.6660   17.5250  -45.7700 N.pl3 854  SAH854     -0.1439
     18  C8        22.4900   18.0520  -45.6040 C.3   854  SAH854      0.3377
     19  N7        22.2420   18.1810  -44.3310 N.2   854  SAH854     -0.2095
     20  C5        23.2840   17.7680  -43.6710 C.2   854  SAH854      0.2526
     21  C6        23.6120   17.6470  -42.3310 C.2   854  SAH854      0.4393
     22  N6        22.7670   18.0170  -41.4170 N.pl3 854  SAH854      0.2180
     23  N1        24.7940   17.1480  -41.9890 N.2   854  SAH854      0.0021
     24  C2        25.6090   16.7730  -42.9150 C.3   854  SAH854      0.5254
     25  N3        25.3330   16.8710  -44.1740 N.2   854  SAH854     -0.0055
     26  C4        24.1860   17.3420  -44.5910 C.2   854  SAH854      0.3518
@<TRIPOS>BOND
     1     7     6   ar
     2     8     6   ar
     3     6     2    1
     4     3     2    1
     5     3     4    2
     6     2     1    1
     7     5     4    1
     8     5     9    1
     9    13    12    1
    10     9    10    1
    11    12    10    1
    12    12    14    1
    13    10    11    1
    14    15    14    1
    15    14    16    1
    16    11    16    1
    17    16    17    1
    18    17    18    1
    19    17    26    1
    20    18    19    1
    21    26    25    2
    22    26    20    1
    23    19    20    2
    24    25    24    1
    25    20    21    1
    26    24    23    1
    27    21    23    2
    28    21    22    1
