@<TRIPOS>MOLECULE
3gdj_HEM_A_1.pdb
 43 50 0 0 0
SMALL
GASTEIGER

@<TRIPOS>ATOM
      1  CHA       -3.5100  -11.4600   16.8770 C.2   142  HEM142      0.0000
      2  CHB       -2.6020  -12.4570   12.1940 C.2   142  HEM142      0.0000
      3  CHC        1.7130  -10.2960   12.6840 C.2   142  HEM142      0.0000
      4  CHD        1.0030   -9.6010   17.4380 C.2   142  HEM142      0.0000
      5  C1A       -3.6290  -11.9660   15.5970 C.ar  142  HEM142      0.0000
      6  C2A       -4.7200  -12.7760   15.0840 C.ar  142  HEM142      0.0000
      7  C3A       -4.4520  -13.0520   13.8010 C.ar  142  HEM142      0.0000
      8  C4A       -3.2090  -12.4160   13.4360 C.ar  142  HEM142      0.0000
      9  CMA       -5.3210  -13.8970   12.8540 C.3   142  HEM142      0.0000
     10  CAA       -5.9420  -13.3100   15.8800 C.3   142  HEM142      0.0000
     11  CBA       -7.0260  -12.3000   16.2240 C.3   142  HEM142      0.0000
     12  CGA       -8.2260  -13.0710   16.7330 C.2   142  HEM142      0.0000
     13  O1A       -8.0650  -13.9560   17.6180 O.co2 142  HEM142      0.0000
     14  O2A       -9.3580  -12.8090   16.2490 O.co2 142  HEM142      0.0000
     15  C1B       -1.3490  -11.9550   11.8990 C.2   142  HEM142      0.0000
     16  C2B       -0.6740  -11.9710   10.6070 C.2   142  HEM142      0.0000
     17  C3B        0.5250  -11.3770   10.7530 C.2   142  HEM142      0.0000
     18  C4B        0.6310  -10.9580   12.1370 C.2   142  HEM142      0.0000
     19  CMB       -1.2520  -12.5860    9.3110 C.3   142  HEM142      0.0000
     20  CAB        1.6300  -11.1190    9.6920 C.2   142  HEM142      0.0000
     21  CBB        1.9060  -11.9270    8.6560 C.2   142  HEM142      0.0000
     22  C1C        1.9110   -9.9410   14.0030 C.ar  142  HEM142      0.0000
     23  C2C        3.1290   -9.4060   14.5450 C.ar  142  HEM142      0.0000
     24  C3C        2.9440   -9.2140   15.8610 C.ar  142  HEM142      0.0000
     25  C4C        1.5970   -9.6310   16.1880 C.ar  142  HEM142      0.0000
     26  CMC        4.3980   -9.1110   13.7140 C.3   142  HEM142      0.0000
     27  CAC        3.9510   -8.6370   16.8880 C.2   142  HEM142      0.0000
     28  CBC        5.2110   -9.0630   16.9770 C.2   142  HEM142      0.0000
     29  C1D       -0.2550  -10.0790   17.7550 C.2   142  HEM142      0.0000
     30  C2D       -0.8020  -10.1650   19.0840 C.2   142  HEM142      0.0000
     31  C3D       -2.2210  -10.7410   18.9080 C.2   142  HEM142      0.0000
     32  C4D       -2.3810  -10.9480   17.4850 C.2   142  HEM142      0.0000
     33  CMD       -0.0910   -9.7440   20.3870 C.3   142  HEM142      0.0000
     34  CAD       -3.2660  -11.0490   20.0040 C.3   142  HEM142      0.0000
     35  CBD       -3.0140  -12.4510   20.5520 C.3   142  HEM142      0.0000
     36  CGD       -4.1400  -12.8280   21.4770 C.2   142  HEM142      0.0000
     37  O1D       -5.0570  -13.5850   21.0610 O.co2 142  HEM142      0.0000
     38  O2D       -4.1240  -12.3600   22.6430 O.co2 142  HEM142      0.0000
     39  NA        -2.7410  -11.7550   14.5570 N.ar  142  HEM142      0.0000
     40  NB        -0.5220  -11.3270   12.8080 N.2   142  HEM142      0.0000
     41  NC         1.0010  -10.0780   15.0340 N.ar  142  HEM142      0.0000
     42  ND        -1.2090  -10.5500   16.8530 N.2   142  HEM142      0.0000
     43 FE         -0.8400  -10.9980   14.8710 Fe    142  HEM142      0.0000
@<TRIPOS>BOND
     1    21    20    2
     2    19    16    1
     3    20    17    1
     4    16    17    2
     5    16    15    1
     6    17    18    1
     7    15     2    1
     8    15    40    2
     9    18     3    2
    10    18    40    1
    11     2     8    2
    12     3    22    1
    13    40    43    1
    14     9     7    1
    15     8     7   ar
    16     8    39   ar
    17    26    23    1
    18     7     6   ar
    19    22    23   ar
    20    22    41   ar
    21    23    24   ar
    22    39    43    1
    23    39     5   ar
    24    43    41    1
    25    43    42    1
    26    41    25   ar
    27     6     5   ar
    28     6    10    1
    29     5     1    2
    30    24    25   ar
    31    24    27    1
    32    10    11    1
    33    25     4    1
    34    11    12    1
    35    14    12   ar
    36    12    13   ar
    37    42    32    2
    38    42    29    1
    39     1    32    1
    40    27    28    2
    41     4    29    2
    42    32    31    1
    43    29    30    1
    44    31    30    2
    45    31    34    1
    46    30    33    1
    47    34    35    1
    48    35    36    1
    49    37    36   ar
    50    36    38   ar
