@<TRIPOS>MOLECULE
3gdl_UP6_A_1.pdb
 21 22 0 0 0
SMALL
GASTEIGER

@<TRIPOS>ATOM
      1  N1        14.2200   73.3020   24.4860 N.am  301  UP6301     -0.0968
      2  C2        14.7430   74.5670   24.7810 C.1   301  UP6301      0.3005
      3  N3        15.9430   74.5330   25.4690 N.2   301  UP6301     -0.2426
      4  C4        16.5680   73.3840   25.9590 C.1   301  UP6301      0.2380
      5  C5        15.9950   72.1230   25.5610 C.2   301  UP6301      0.2253
      6  N6        14.8680   72.1070   24.8540 N.2   301  UP6301     -0.1496
      7  O2        14.1980   75.5850   24.4930 O.2   301  UP6301     -0.1905
      8  O4        17.5300   73.5220   26.6760 O.2   301  UP6301     -0.2069
      9  C1'       12.9510   73.1550   23.8080 C.3   301  UP6301      0.2577
     10  C2'       12.8370   72.1390   22.6670 C.3   301  UP6301      0.2334
     11  C3'       11.4310   71.6200   22.8320 C.3   301  UP6301      0.2159
     12  C4'       11.1970   71.7060   24.3390 C.3   301  UP6301      0.1801
     13  O2'       13.0160   72.7630   21.3850 O.3   301  UP6301     -0.2157
     14  O3'       10.4940   72.4480   22.1580 O.3   301  UP6301     -0.2175
     15  O4'       11.9760   72.8190   24.7860 O.3   301  UP6301     -0.3309
     16  C5'       11.5750   70.4820   25.1630 C.3   301  UP6301      0.1859
     17  O5'       10.6850   69.4740   24.7290 O.3   301  UP6301     -0.2675
     18  P         10.6660   67.9690   25.3460 P.3   301  UP6301      0.5327
     19  O1P       12.0300   67.3470   25.3000 O.3   301  UP6301     -0.1145
     20  O2P        9.6450   67.3000   24.4690 O.2   301  UP6301     -0.2224
     21  O3P       10.0840   68.1170   26.8050 O.3   301  UP6301     -0.1145
@<TRIPOS>BOND
     1    13    10    1
     2    14    11    1
     3    10    11    1
     4    10     9    1
     5    11    12    1
     6     9     1    1
     7     9    15    1
     8    12    15    1
     9    12    16    1
    10    20    18    2
    11     1     2   am
    12     1     6    1
    13     7     2    2
    14    17    16    1
    15    17    18    1
    16     2     3    2
    17     6     5    2
    18    19    18    1
    19    18    21    1
    20     3     4    2
    21     5     4    1
    22     4     8    2
