@<TRIPOS>MOLECULE
3gdn_NAG_A_1.pdb
 14 14 0 0 0
SMALL
GASTEIGER

@<TRIPOS>ATOM
      1  C1        59.6420  -19.7180  -20.5690 C.3   523  NAG523      0.1665
      2  C2        58.2040  -19.3980  -20.9870 C.3   523  NAG523      0.1576
      3  C3        57.3830  -20.6890  -21.1140 C.3   523  NAG523      0.2069
      4  C4        58.1080  -21.7290  -21.9800 C.3   523  NAG523      0.2134
      5  C5        59.5440  -21.9160  -21.4840 C.3   523  NAG523      0.1809
      6  C6        60.3500  -22.8690  -22.3470 C.3   523  NAG523      0.2141
      7  C7        57.3270  -17.2640  -20.2710 C.2   523  NAG523      0.2420
      8  C8        56.5590  -16.4810  -19.2190 C.3   523  NAG523      0.0964
      9  N2        57.6000  -18.5360  -19.9900 N.am  523  NAG523     -0.2019
     10  O3        56.1200  -20.3920  -21.6910 O.3   523  NAG523     -0.2184
     11  O4        57.4180  -22.9700  -21.9130 O.3   523  NAG523     -0.2176
     12  O5        60.2300  -20.6490  -21.4850 O.3   523  NAG523     -0.3489
     13  O6        60.5250  -22.3550  -23.6590 O.3   523  NAG523     -0.2176
     14  O7        57.6630  -16.7190  -21.3200 O.2   523  NAG523     -0.2733
@<TRIPOS>BOND
     1    13     6    1
     2     6     5    1
     3     4    11    1
     4     4     5    1
     5     4     3    1
     6    10     3    1
     7    12     5    1
     8    12     1    1
     9    14     7    2
    10     3     2    1
    11     2     1    1
    12     2     9    1
    13     7     9   am
    14     7     8    1
