@<TRIPOS>MOLECULE
3gdn_MAN_B_1.pdb
 11 11 0 0 0
SMALL
GASTEIGER

@<TRIPOS>ATOM
      1  C1        34.1970   30.4560   11.9420 C.3   531  MAN531      0.1777
      2  C2        34.3910   31.5760   10.9120 C.3   531  MAN531      0.2141
      3  C3        34.1240   32.9330   11.5710 C.3   531  MAN531      0.2173
      4  C4        32.7250   32.9480   12.1950 C.3   531  MAN531      0.2142
      5  C5        32.5720   31.7670   13.1630 C.3   531  MAN531      0.1810
      6  C6        31.1700   31.6390   13.7190 C.3   531  MAN531      0.2141
      7  O2        33.5010   31.3870    9.8210 O.3   531  MAN531     -0.2176
      8  O3        34.2370   33.9710   10.6100 O.3   531  MAN531     -0.2175
      9  O4        32.5290   34.1680   12.8960 O.3   531  MAN531     -0.2176
     10  O5        32.8800   30.5240   12.4880 O.3   531  MAN531     -0.3481
     11  O6        31.1380   30.7470   14.8240 O.3   531  MAN531     -0.2176
@<TRIPOS>BOND
     1     7     2    1
     2     8     3    1
     3     2     3    1
     4     2     1    1
     5     3     4    1
     6     1    10    1
     7     4     9    1
     8     4     5    1
     9    10     5    1
    10     5     6    1
    11     6    11    1
