@<TRIPOS>MOLECULE
3gdn_MXN_A_1.pdb
 10 10 0 0 0
SMALL
GASTEIGER

@<TRIPOS>ATOM
      1  C1        66.5740  -19.6200  -27.0150 C.ar  531  MXN531      0.0222
      2  C2        67.2160  -18.3510  -26.9920 C.ar  531  MXN531     -0.0008
      3  C3        68.4390  -18.1840  -26.2810 C.ar  531  MXN531     -0.0002
      4  C4        69.0240  -19.2830  -25.5890 C.ar  531  MXN531     -0.0000
      5  C5        68.3890  -20.5530  -25.6070 C.ar  531  MXN531     -0.0002
      6  C6        67.1670  -20.7280  -26.3180 C.ar  531  MXN531     -0.0008
      7  C7        65.2490  -19.7790  -27.7920 C.3   531  MXN531      0.2637
      8  C8        64.2030  -20.6040  -26.9580 C.1   531  MXN531      0.1105
      9  N9        63.4380  -21.2110  -26.3440 N.1   531  MXN531     -0.1929
     10  O10       65.4960  -20.4550  -29.0400 O.3   531  MXN531     -0.2016
@<TRIPOS>BOND
     1    10     7    1
     2     7     1    1
     3     7     8    1
     4     1     2   ar
     5     1     6   ar
     6     2     3   ar
     7     8     9    3
     8     6     5   ar
     9     3     4   ar
    10     5     4   ar
