@<TRIPOS>MOLECULE
3gdp_MAN_A_1.pdb
 11 11 0 0 0
SMALL
GASTEIGER

@<TRIPOS>ATOM
      1  C1        58.9190  -16.3630   -7.1860 C.3   529  MAN529      0.1777
      2  C2        59.0100  -15.1040   -8.0530 C.3   529  MAN529      0.2141
      3  C3        59.0080  -13.8460   -7.1680 C.3   529  MAN529      0.2173
      4  C4        57.8080  -13.8540   -6.2130 C.3   529  MAN529      0.2142
      5  C5        57.7860  -15.1640   -5.4190 C.3   529  MAN529      0.1810
      6  C6        56.5670  -15.2980   -4.5270 C.3   529  MAN529      0.2141
      7  O2        57.9230  -15.0650   -8.9600 O.3   529  MAN529     -0.2176
      8  O3        58.9680  -12.6820   -7.9800 O.3   529  MAN529     -0.2175
      9  O4        57.9010  -12.7560   -5.3180 O.3   529  MAN529     -0.2176
     10  O5        57.7820  -16.2890   -6.3250 O.3   529  MAN529     -0.3481
     11  O6        55.9080  -16.5380   -4.7360 O.3   529  MAN529     -0.2176
@<TRIPOS>BOND
     1     7     2    1
     2     2     1    1
     3     2     3    1
     4     8     3    1
     5     1    10    1
     6     3     4    1
     7    10     5    1
     8     4     5    1
     9     4     9    1
    10     5     6    1
    11    11     6    1
