@<TRIPOS>MOLECULE
3gdp_NAG_A_1.pdb
 14 14 0 0 0
SMALL
GASTEIGER

@<TRIPOS>ATOM
      1  C1        59.7830  -19.8560  -20.5070 C.3   524  NAG524      0.1665
      2  C2        58.3300  -19.5350  -20.8810 C.3   524  NAG524      0.1576
      3  C3        57.4820  -20.8160  -20.8570 C.3   524  NAG524      0.2069
      4  C4        58.1440  -21.9400  -21.6680 C.3   524  NAG524      0.2134
      5  C5        59.6020  -22.1210  -21.2370 C.3   524  NAG524      0.1809
      6  C6        60.3430  -23.1490  -22.0730 C.3   524  NAG524      0.2141
      7  C7        57.5080  -17.3330  -20.3020 C.2   524  NAG524      0.2420
      8  C8        56.7670  -16.4720  -19.2920 C.3   524  NAG524      0.0964
      9  N2        57.7920  -18.5800  -19.9310 N.am  524  NAG524     -0.2019
     10  O3        56.1970  -20.5400  -21.3940 O.3   524  NAG524     -0.2184
     11  O4        57.4350  -23.1580  -21.4680 O.3   524  NAG524     -0.2176
     12  O5        60.3110  -20.8730  -21.3680 O.3   524  NAG524     -0.3489
     13  O6        60.5070  -22.7030  -23.4110 O.3   524  NAG524     -0.2176
     14  O7        57.8100  -16.8680  -21.4000 O.2   524  NAG524     -0.2733
@<TRIPOS>BOND
     1    13     6    1
     2     6     5    1
     3     4    11    1
     4     4     5    1
     5     4     3    1
     6    14     7    2
     7    10     3    1
     8    12     5    1
     9    12     1    1
    10     2     3    1
    11     2     1    1
    12     2     9    1
    13     7     9   am
    14     7     8    1
