@<TRIPOS>MOLECULE
3gdq_ADP_A_1.pdb
 27 29 0 0 0
SMALL
GASTEIGER

@<TRIPOS>ATOM
      1  PB        10.3560    9.1880   10.1560 P.3   388  ADP388      0.5373
      2  O1B        9.9140    7.7720    9.8040 O.2   388  ADP388     -0.2221
      3  O2B        9.8500    9.6920   11.4680 O.3   388  ADP388     -0.1143
      4  O3B       11.8230    9.4970    9.9420 O.3   388  ADP388     -0.1143
      5  PA         9.6310   10.4170    7.5800 P.3   388  ADP388      0.2231
      6  O1A       10.3960    9.3450    6.8580 O.2   388  ADP388     -0.5169
      7  O2A        8.2990   10.8770    7.0920 O.3   388  ADP388     -0.4370
      8  O3A        9.4980   10.0980    9.1430 O.3   388  ADP388     -0.2261
      9  O5'       10.6330   11.6600    7.5250 O.3   388  ADP388     -0.3111
     10  C5'       10.2710   12.8990    8.1330 C.3   388  ADP388      0.1813
     11  C4'       11.2670   13.9750    7.7250 C.3   388  ADP388      0.1821
     12  O4'       11.1660   14.1800    6.3130 O.3   388  ADP388     -0.3135
     13  C3'       10.9510   15.3060    8.4130 C.3   388  ADP388      0.2184
     14  O3'       12.1710   15.9250    8.8200 O.3   388  ADP388     -0.2174
     15  C2'       10.3230   16.1280    7.3080 C.3   388  ADP388      0.2570
     16  O2'       10.4580   17.5600    7.3890 O.3   388  ADP388     -0.2130
     17  C1'       11.1170   15.5770    6.1160 C.3   388  ADP388      0.3186
     18  N9        10.4850   15.8130    4.8270 N.pl3 388  ADP388     -0.1439
     19  C8         9.2380   15.4610    4.4350 C.3   388  ADP388      0.3377
     20  N7         9.0240   15.8290    3.1440 N.2   388  ADP388     -0.2095
     21  C5        10.1580   16.4310    2.7200 C.2   388  ADP388      0.2526
     22  C6        10.5990   17.0700    1.4590 C.2   388  ADP388      0.4393
     23  N6         9.7320   17.1300    0.4120 N.pl3 388  ADP388      0.2180
     24  N1        11.8550   17.5790    1.4110 N.2   388  ADP388      0.0021
     25  C2        12.6940   17.4870    2.4550 C.3   388  ADP388      0.5254
     26  N3        12.3420   16.9450    3.6410 N.2   388  ADP388     -0.0055
     27  C4        11.1220   16.3980    3.8170 C.2   388  ADP388      0.3518
@<TRIPOS>BOND
     1    23    22    1
     2    24    22    2
     3    24    25    1
     4    22    21    1
     5    25    26    1
     6    21    20    2
     7    21    27    1
     8    20    19    1
     9    26    27    2
    10    27    18    1
    11    19    18    1
    12    18    17    1
    13    17    12    1
    14    17    15    1
    15    12    11    1
    16     6     5    2
    17     7     5    1
    18    15    16    1
    19    15    13    1
    20     9     5    1
    21     9    10    1
    22     5     8    1
    23    11    10    1
    24    11    13    1
    25    13    14    1
    26     8     1    1
    27     2     1    2
    28     4     1    1
    29     1     3    1
