@<TRIPOS>MOLECULE
3gds_III_B_1.pdb
 43 45 0 0 0
SMALL
GASTEIGER

@<TRIPOS>ATOM
      1  N          3.8950  -30.7490    8.8200 N.3   407  VAL407     -0.1231
      2  CA         3.6630  -31.4850   10.0570 C.3   407  VAL407      0.1692
      3  C          2.2040  -31.9120   10.1740 C.2   407  VAL407      0.2592
      4  O          1.2950  -31.1170    9.9350 O.2   407  VAL407     -0.2718
      5  CB         4.0380  -30.6460   11.2930 C.3   407  VAL407      0.0266
      6  CG1        3.9850  -31.5020   12.5510 C.3   407  VAL407      0.0020
      7  CG2        5.4180  -30.0330   11.1200 C.3   407  VAL407      0.0020
      8  N          1.9880  -33.1690   10.5450 N.am  408  TYR408     -0.1962
      9  CA         0.6390  -33.7070   10.6820 C.3   408  TYR408      0.1771
     10  C          0.3680  -34.1670   12.1120 C.2   408  TYR408      0.2620
     11  O          1.1110  -34.9790   12.6590 O.2   408  TYR408     -0.2715
     12  CB         0.4280  -34.8700    9.7110 C.3   408  TYR408      0.0574
     13  CG         0.6970  -34.5250    8.2630 C.ar  408  TYR408     -0.0198
     14  CD1       -0.2220  -33.7900    7.5220 C.ar  408  TYR408     -0.0009
     15  CD2        1.8650  -34.9400    7.6340 C.ar  408  TYR408     -0.0009
     16  CE1        0.0190  -33.4720    6.1950 C.ar  408  TYR408      0.0417
     17  CE2        2.1140  -34.6290    6.3070 C.ar  408  TYR408      0.0417
     18  CZ         1.1870  -33.8960    5.5930 C.ar  408  TYR408      0.1957
     19  OH         1.4290  -33.5840    4.2750 O.3   408  TYR408     -0.2866
     20  N         -0.6980  -33.6420   12.7100 N.am  409  TYR409     -0.1960
     21  CA        -1.0860  -34.0250   14.0640 C.3   409  TYR409      0.1771
     22  C         -2.3640  -34.8550   14.0570 C.2   409  TYR409      0.2620
     23  O         -3.3660  -34.4610   13.4600 O.2   409  TYR409     -0.2715
     24  CB        -1.2830  -32.7860   14.9410 C.3   409  TYR409      0.0574
     25  CG        -0.0480  -31.9290   15.0840 C.ar  409  TYR409     -0.0198
     26  CD1        0.8950  -32.1940   16.0700 C.ar  409  TYR409     -0.0009
     27  CD2        0.1750  -30.8520   14.2350 C.ar  409  TYR409     -0.0009
     28  CE1        2.0290  -31.4100   16.2060 C.ar  409  TYR409      0.0417
     29  CE2        1.3040  -30.0620   14.3620 C.ar  409  TYR409      0.0417
     30  CZ         2.2280  -30.3460   15.3480 C.ar  409  TYR409      0.1957
     31  OH         3.3520  -29.5630   15.4780 O.3   409  TYR409     -0.2866
     32  N         -2.3230  -36.0040   14.7250 N.am  410  PHE410     -0.1938
     33  CA        -3.4970  -36.8610   14.8500 C.3   410  PHE410      0.2021
     34  C         -3.3320  -37.8660   15.9840 C.2   410  PHE410      0.3845
     35  O         -4.3130  -38.4120   16.4860 O.co2 410  PHE410     -0.2437
     36  CB        -3.7870  -37.5880   13.5340 C.3   410  PHE410      0.0596
     37  CG        -2.6330  -38.3980   13.0190 C.ar  410  PHE410     -0.0199
     38  CD1       -1.6690  -37.8160   12.2090 C.ar  410  PHE410     -0.0042
     39  CD2       -2.5130  -39.7420   13.3380 C.ar  410  PHE410     -0.0042
     40  CE1       -0.6040  -38.5580   11.7290 C.ar  410  PHE410     -0.0003
     41  CE2       -1.4500  -40.4910   12.8620 C.ar  410  PHE410     -0.0003
     42  CZ        -0.4940  -39.8980   12.0560 C.ar  410  PHE410     -0.0000
     43  OXT       -2.2190  -38.1520   16.4250 O.co2 410  PHE410     -0.2437
@<TRIPOS>BOND
     1    19    18    1
     2    18    16   ar
     3    18    17   ar
     4    16    14   ar
     5    17    15   ar
     6    14    13   ar
     7    15    13   ar
     8    13    12    1
     9     1     2    1
    10    12     9    1
    11     4     3    2
    12     2     3    1
    13     2     5    1
    14     3     8   am
    15     8     9    1
    16     9    10    1
    17     7     5    1
    18     5     6    1
    19    40    42   ar
    20    40    38   ar
    21    42    41   ar
    22    10    11    2
    23    10    20   am
    24    38    37   ar
    25    20    21    1
    26    41    39   ar
    27    37    39   ar
    28    37    36    1
    29    23    22    2
    30    36    33    1
    31    22    21    1
    32    22    32   am
    33    21    24    1
    34    27    29   ar
    35    27    25   ar
    36    29    30   ar
    37    32    33    1
    38    33    34    1
    39    24    25    1
    40    25    26   ar
    41    30    31    1
    42    30    28   ar
    43    34    43   ar
    44    34    35   ar
    45    26    28   ar
