@<TRIPOS>MOLECULE
3gdt_UP6_A_1.pdb
 21 22 0 0 0
SMALL
GASTEIGER

@<TRIPOS>ATOM
      1  N1        58.9610   58.4800   23.7810 N.am  301  UP6301     -0.0968
      2  C2        58.6240   59.3730   22.7520 C.1   301  UP6301      0.3005
      3  N3        57.4620   60.0850   22.9900 N.2   301  UP6301     -0.2426
      4  C4        56.5610   59.8590   24.0400 C.1   301  UP6301      0.2380
      5  C5        56.9410   58.8650   25.0070 C.2   301  UP6301      0.2253
      6  N6        58.0980   58.2220   24.8670 N.2   301  UP6301     -0.1496
      7  O2        59.2690   59.5060   21.7570 O.2   301  UP6301     -0.1905
      8  O4        55.5420   60.5090   24.0630 O.2   301  UP6301     -0.2069
      9  C1'       60.2230   57.7690   23.7680 C.3   301  UP6301      0.2577
     10  C2'       60.8840   57.3630   25.0840 C.3   301  UP6301      0.2334
     11  C3'       61.7720   56.2290   24.6310 C.3   301  UP6301      0.2159
     12  C4'       60.9310   55.5560   23.5420 C.3   301  UP6301      0.1801
     13  O2'       61.6480   58.4450   25.6420 O.3   301  UP6301     -0.2157
     14  O3'       62.9780   56.7220   24.0520 O.3   301  UP6301     -0.2175
     15  O4'       60.0700   56.5790   23.0150 O.3   301  UP6301     -0.3309
     16  C5'       60.0480   54.3990   23.9590 C.3   301  UP6301      0.1859
     17  O5'       59.6330   53.7800   22.7480 O.3   301  UP6301     -0.2675
     18  P         59.3600   52.1860   22.6720 P.3   301  UP6301      0.5327
     19  O1P       60.6240   51.4440   23.0150 O.3   301  UP6301     -0.1145
     20  O2P       58.9000   51.9950   21.2580 O.2   301  UP6301     -0.2224
     21  O3P       58.1530   51.8850   23.6720 O.3   301  UP6301     -0.1145
@<TRIPOS>BOND
     1    20    18    2
     2     7     2    2
     3    18    17    1
     4    18    19    1
     5    18    21    1
     6    17    16    1
     7     2     3    2
     8     2     1   am
     9     3     4    2
    10    15    12    1
    11    15     9    1
    12    12    16    1
    13    12    11    1
    14     9     1    1
    15     9    10    1
    16     1     6    1
    17     4     8    2
    18     4     5    1
    19    14    11    1
    20    11    10    1
    21     6     5    2
    22    10    13    1
