@<TRIPOS>MOLECULE
3gdu_III_D_1.pdb
 35 36 0 0 0
SMALL
GASTEIGER

@<TRIPOS>ATOM
      1  N         -4.5410   20.9180   -8.4100 N.3   408  TYR408     -0.1227
      2  CA        -3.1630   20.6190   -8.7790 C.3   408  TYR408      0.1736
      3  C         -3.0630   19.2680   -9.4720 C.2   408  TYR408      0.2595
      4  O         -4.0080   18.4820   -9.4600 O.2   408  TYR408     -0.2718
      5  CB        -2.2600   20.6380   -7.5440 C.3   408  TYR408      0.0548
      6  CG        -2.3780   21.9020   -6.7260 C.ar  408  TYR408     -0.0200
      7  CD1       -1.8060   23.0900   -7.1630 C.ar  408  TYR408     -0.0009
      8  CD2       -3.0600   21.9090   -5.5170 C.ar  408  TYR408     -0.0009
      9  CE1       -1.9120   24.2490   -6.4200 C.ar  408  TYR408      0.0417
     10  CE2       -3.1710   23.0620   -4.7660 C.ar  408  TYR408      0.0417
     11  CZ        -2.5950   24.2290   -5.2220 C.ar  408  TYR408      0.1957
     12  OH        -2.7040   25.3790   -4.4760 O.3   408  TYR408     -0.2866
     13  N         -1.9110   19.0090  -10.0800 N.am  409  ARG409     -0.1966
     14  CA        -1.6560   17.7340  -10.7340 C.3   409  ARG409      0.1729
     15  C         -0.1800   17.3890  -10.6230 C.2   409  ARG409      0.2617
     16  O          0.6080   17.7390  -11.4920 O.2   409  ARG409     -0.2715
     17  CB        -2.0650   17.7920  -12.2080 C.3   409  ARG409      0.0348
     18  CG        -3.5660   17.8160  -12.4430 C.3   409  ARG409      0.0492
     19  CD        -3.8980   17.8660  -13.9280 C.3   409  ARG409      0.2205
     20  NE        -3.4460   19.1080  -14.5520 N.pl3 409  ARG409     -0.0865
     21  CZ        -2.3090   19.2340  -15.2280 C.cat 409  ARG409      0.5346
     22  NH1       -1.5020   18.1920  -15.3750 N.pl3 409  ARG409      0.1354
     23  NH2       -1.9790   20.4030  -15.7600 N.pl3 409  ARG409      0.1354
     24  N          0.1950   16.7120   -9.5440 N.am  410  PHE410     -0.1938
     25  CA         1.5850   16.3210   -9.3430 C.3   410  PHE410      0.2021
     26  C          1.7100   14.8050   -9.2620 C.2   410  PHE410      0.3845
     27  O          2.8090   14.2620   -9.1470 O.co2 410  PHE410     -0.2437
     28  CB         2.1490   16.9640   -8.0760 C.3   410  PHE410      0.0596
     29  CG         1.3870   16.6150   -6.8320 C.ar  410  PHE410     -0.0199
     30  CD1        0.2850   17.3600   -6.4490 C.ar  410  PHE410     -0.0042
     31  CD2        1.7680   15.5400   -6.0480 C.ar  410  PHE410     -0.0042
     32  CE1       -0.4210   17.0400   -5.3060 C.ar  410  PHE410     -0.0003
     33  CE2        1.0670   15.2150   -4.9040 C.ar  410  PHE410     -0.0003
     34  CZ        -0.0290   15.9660   -4.5320 C.ar  410  PHE410     -0.0000
     35  OXT        0.7090   14.0920   -9.3080 O.co2 410  PHE410     -0.2437
@<TRIPOS>BOND
     1    23    21    1
     2    22    21    1
     3    21    20    2
     4    20    19    1
     5    19    18    1
     6    18    17    1
     7    17    14    1
     8    16    15    2
     9    14    15    1
    10    14    13    1
    11    15    24   am
    12    13     3   am
    13    24    25    1
    14     3     4    2
    15     3     2    1
    16    25    26    1
    17    25    28    1
    18    35    26   ar
    19    26    27   ar
    20     2     1    1
    21     2     5    1
    22    28    29    1
    23     5     6    1
    24     7     6   ar
    25     7     9   ar
    26    29    30   ar
    27    29    31   ar
    28     6     8   ar
    29    30    32   ar
    30     9    11   ar
    31    31    33   ar
    32     8    10   ar
    33    32    34   ar
    34    11    10   ar
    35    11    12    1
    36    33    34   ar
