@<TRIPOS>MOLECULE
3gdv_III_D_1.pdb
 33 34 0 0 0
SMALL
GASTEIGER

@<TRIPOS>ATOM
      1  N         -5.0430   21.1070   -9.1310 N.3   408  TYR408     -0.1227
      2  CA        -3.6580   20.6750   -9.2700 C.3   408  TYR408      0.1736
      3  C         -3.5680   19.3240   -9.9600 C.2   408  TYR408      0.2595
      4  O         -4.4890   18.5170   -9.8850 O.2   408  TYR408     -0.2718
      5  CB        -2.9830   20.5980   -7.9030 C.3   408  TYR408      0.0548
      6  CG        -2.9150   21.9230   -7.1840 C.ar  408  TYR408     -0.0200
      7  CD1       -2.0200   22.9050   -7.5860 C.ar  408  TYR408     -0.0009
      8  CD2       -3.7410   22.1910   -6.1000 C.ar  408  TYR408     -0.0009
      9  CE1       -1.9500   24.1180   -6.9310 C.ar  408  TYR408      0.0417
     10  CE2       -3.6780   23.4020   -5.4380 C.ar  408  TYR408      0.0417
     11  CZ        -2.7800   24.3620   -5.8580 C.ar  408  TYR408      0.1957
     12  OH        -2.7120   25.5700   -5.2030 O.3   408  TYR408     -0.2866
     13  N         -2.4500   19.0850  -10.6340 N.am  409  GLN409     -0.1965
     14  CA        -2.2110   17.8070  -11.2890 C.3   409  GLN409      0.1733
     15  C         -0.7570   17.4070  -11.1330 C.2   409  GLN409      0.2617
     16  O          0.0940   17.7880  -11.9350 O.2   409  GLN409     -0.2715
     17  CB        -2.5710   17.8790  -12.7700 C.3   409  GLN409      0.0408
     18  CG        -4.0580   17.9750  -13.0440 C.3   409  GLN409      0.0908
     19  CD        -4.3610   18.0700  -14.5230 C.2   409  GLN409      0.2608
     20  OE1       -3.5000   17.8020  -15.3620 O.2   409  GLN409     -0.2717
     21  NE2       -5.5890   18.4530  -14.8530 N.am  409  GLN409     -0.0878
     22  N         -0.4780   16.6390  -10.0880 N.am  410  PHE410     -0.1938
     23  CA         0.8730   16.1710   -9.8280 C.3   410  PHE410      0.2021
     24  C          0.8870   14.6530   -9.7180 C.2   410  PHE410      0.3845
     25  O          1.8260   13.9930  -10.1570 O.co2 410  PHE410     -0.2437
     26  CB         1.4220   16.8060   -8.5510 C.3   410  PHE410      0.0596
     27  CG         0.5850   16.5370   -7.3330 C.ar  410  PHE410     -0.0199
     28  CD1       -0.5620   17.2730   -7.0860 C.ar  410  PHE410     -0.0042
     29  CD2        0.9510   15.5550   -6.4300 C.ar  410  PHE410     -0.0042
     30  CE1       -1.3300   17.0290   -5.9640 C.ar  410  PHE410     -0.0003
     31  CE2        0.1880   15.3080   -5.3080 C.ar  410  PHE410     -0.0003
     32  CZ        -0.9530   16.0450   -5.0740 C.ar  410  PHE410     -0.0000
     33  OXT       -0.0500   14.0530   -9.1940 O.co2 410  PHE410     -0.2437
@<TRIPOS>BOND
     1    20    19    2
     2    21    19   am
     3    19    18    1
     4    18    17    1
     5    17    14    1
     6    16    15    2
     7    14    15    1
     8    14    13    1
     9    15    22   am
    10    13     3   am
    11    25    24   ar
    12    22    23    1
    13     3     4    2
    14     3     2    1
    15    23    24    1
    16    23    26    1
    17    24    33   ar
    18     2     1    1
    19     2     5    1
    20    26    27    1
    21     5     6    1
    22     7     6   ar
    23     7     9   ar
    24    27    28   ar
    25    27    29   ar
    26     6     8   ar
    27    28    30   ar
    28     9    11   ar
    29    29    31   ar
    30     8    10   ar
    31    30    32   ar
    32    11    10   ar
    33    11    12    1
    34    31    32   ar
