@<TRIPOS>MOLECULE
3gdx_4BD_A_1.pdb
 31 32 0 0 0
SMALL
GASTEIGER

@<TRIPOS>ATOM
      1  PA         5.1880    5.4400   14.9440 P.3   346  4BD346      0.4410
      2  O1A        4.0110    5.4470   15.8570 O.3   346  4BD346     -0.1352
      3  O2A        6.4510    6.0540   15.4280 O.2   346  4BD346     -0.2492
      4  C3A        5.5170    3.7630   14.3640 C.3   346  4BD346      0.4484
      5  F1A        6.3430    3.8310   13.3270 F     346  4BD346     -0.1787
      6  F2A        6.1620    3.1230   15.3440 F     346  4BD346     -0.1787
      7  O5'        4.7230    6.3770   13.7330 O.3   346  4BD346     -0.2860
      8  PB         4.1160    2.7560   13.8790 P.3   346  4BD346      0.4486
      9  O1B        4.2810    2.3140   12.4710 O.2   346  4BD346     -0.2488
     10  O2B        2.8410    3.3870   14.2820 O.3   346  4BD346     -0.1349
     11  O3B        4.2320    1.4840   14.6840 O.3   346  4BD346     -0.1990
     12  PG         4.0000    1.2770   16.1690 P.3   346  4BD346      0.5390
     13  O1G        5.1930    0.5570   16.6850 O.3   346  4BD346     -0.1143
     14  O2G        2.6620    0.6740   16.3720 O.2   346  4BD346     -0.2220
     15  O3G        4.0020    2.6150   16.8250 O.3   346  4BD346     -0.1143
     16  C5'        3.5120    6.1430   13.0170 C.3   346  4BD346      0.1836
     17  C4'        3.7130    6.3780   11.5380 C.3   346  4BD346      0.1773
     18  O4'        4.5470    7.5410   11.2790 O.3   346  4BD346     -0.3339
     19  C1'        5.2900    7.3370   10.0880 C.3   346  4BD346      0.2090
     20  N1         6.7370    7.4700   10.3900 N.am  346  4BD346     -0.1794
     21  C6         7.2190    7.1630   11.6450 C.2   346  4BD346      0.0877
     22  C2         7.5940    7.8740    9.3780 C.1   346  4BD346      0.2844
     23  O2         7.2180    8.2020    8.2650 O.2   346  4BD346     -0.1918
     24  N3         8.9230    7.8770    9.7240 N.2   346  4BD346     -0.2455
     25  C4         9.4710    7.5310   10.9420 C.1   346  4BD346      0.2134
     26  O4        10.6880    7.5260   11.0790 O.2   346  4BD346     -0.2088
     27  C5         8.5170    7.1740   11.9730 C.2   346  4BD346      0.0891
     28  C5M        9.0220    6.5730   13.2470 C.3   346  4BD346      0.0462
     29  C2'        4.9210    5.9430    9.5630 C.3   346  4BD346      0.0874
     30  C3'        4.4360    5.2520   10.8370 C.3   346  4BD346      0.1857
     31  O3'        3.4920    4.2220   10.5940 O.3   346  4BD346     -0.2203
@<TRIPOS>BOND
     1    23    22    2
     2    22    24    2
     3    22    20   am
     4    29    19    1
     5    29    30    1
     6    24    25    2
     7    19    20    1
     8    19    18    1
     9    20    21    1
    10    31    30    1
    11    30    17    1
    12    25    26    2
    13    25    27    1
    14    18    17    1
    15    17    16    1
    16    21    27    2
    17    27    28    1
    18     9     8    2
    19    16     7    1
    20     5     4    1
    21     7     1    1
    22     8    10    1
    23     8     4    1
    24     8    11    1
    25     4     1    1
    26     4     6    1
    27    11    12    1
    28     1     3    2
    29     1     2    1
    30    12    14    2
    31    12    13    1
    32    12    15    1
