@<TRIPOS>MOLECULE
3ge1_ADP_A_1.pdb
 27 29 0 0 0
SMALL
GASTEIGER

@<TRIPOS>ATOM
      1  PB       -17.4570  -44.9080   -3.5530 P.3   499  ADP499      0.5373
      2  O1B      -17.4490  -43.5710   -4.2540 O.3   499  ADP499     -0.1143
      3  O2B      -17.0630  -46.0530   -4.4560 O.2   499  ADP499     -0.2221
      4  O3B      -16.7610  -44.9300   -2.2050 O.3   499  ADP499     -0.1143
      5  PA       -20.0210  -44.3540   -2.2810 P.3   499  ADP499      0.2231
      6  O1A      -20.2290  -45.1070   -0.9830 O.3   499  ADP499     -0.4370
      7  O2A      -21.2270  -43.9600   -3.1030 O.2   499  ADP499     -0.5169
      8  O3A      -19.0260  -45.2170   -3.2410 O.3   499  ADP499     -0.2261
      9  O5'      -19.2190  -43.0070   -1.9140 O.3   499  ADP499     -0.3111
     10  C5'      -19.4990  -42.3440   -0.6740 C.3   499  ADP499      0.1813
     11  C4'      -19.4010  -40.8240   -0.8290 C.3   499  ADP499      0.1821
     12  O4'      -20.6880  -40.2200   -0.5970 O.3   499  ADP499     -0.3135
     13  C3'      -18.4210  -40.2040    0.1650 C.3   499  ADP499      0.2184
     14  O3'      -17.4400  -39.4090   -0.5290 O.3   499  ADP499     -0.2174
     15  C2'      -19.2910  -39.3860    1.1170 C.3   499  ADP499      0.2570
     16  O2'      -18.6710  -38.1500    1.4840 O.3   499  ADP499     -0.2130
     17  C1'      -20.5950  -39.1550    0.3590 C.3   499  ADP499      0.3186
     18  N9       -21.7960  -39.1620    1.2360 N.pl3 499  ADP499     -0.1439
     19  C8       -22.2680  -40.2370    1.9000 C.3   499  ADP499      0.3377
     20  N7       -23.3830  -39.9070    2.6060 N.2   499  ADP499     -0.2095
     21  C5       -23.6340  -38.6070    2.3880 C.2   499  ADP499      0.2526
     22  C6       -24.6610  -37.6470    2.8340 C.2   499  ADP499      0.4393
     23  N6       -25.6540  -38.0350    3.6680 N.pl3 499  ADP499      0.2180
     24  N1       -24.5780  -36.3770    2.3880 N.2   499  ADP499      0.0021
     25  C2       -23.5890  -35.9850    1.5570 C.3   499  ADP499      0.5254
     26  N3       -22.6240  -36.8200    1.1170 N.2   499  ADP499     -0.0055
     27  C4       -22.5940  -38.1200    1.4900 C.2   499  ADP499      0.3518
@<TRIPOS>BOND
     1     3     1    2
     2     2     1    1
     3     1     8    1
     4     1     4    1
     5     8     5    1
     6     7     5    2
     7     5     9    1
     8     5     6    1
     9     9    10    1
    10    11    10    1
    11    11    12    1
    12    11    13    1
    13    12    17    1
    14    14    13    1
    15    13    15    1
    16    17    15    1
    17    17    18    1
    18    15    16    1
    19    26    27    2
    20    26    25    1
    21    18    27    1
    22    18    19    1
    23    27    21    1
    24    25    24    1
    25    19    20    1
    26    21    20    2
    27    21    22    1
    28    24    22    2
    29    22    23    1
