@<TRIPOS>MOLECULE
3ge5_FMN_A_1.pdb
 31 33 0 0 0
SMALL
GASTEIGER

@<TRIPOS>ATOM
      1  N1        40.6790   28.6380   27.3070 N.2   300  FMN300     -0.2890
      2  C2        40.0840   29.0850   28.4510 C.1   300  FMN300      0.3669
      3  O2        39.1100   28.4850   28.9210 O.2   300  FMN300     -0.1744
      4  N3        40.5420   30.2200   29.1070 N.2   300  FMN300     -0.2300
      5  C4        41.6160   30.9620   28.6310 C.1   300  FMN300      0.2513
      6  O4        42.0070   32.0130   29.2270 O.2   300  FMN300     -0.2057
      7  C4A       42.2240   30.5060   27.4640 C.2   300  FMN300      0.2700
      8  N5        43.2710   31.2450   26.9470 N.2   300  FMN300     -0.3878
      9  C5A       43.9710   30.7550   25.8830 C.2   300  FMN300      0.1320
     10  C6        45.0940   31.4700   25.4570 C.2   300  FMN300      0.0250
     11  C7        45.8420   30.9660   24.3990 C.2   300  FMN300     -0.0238
     12  C7M       47.0420   31.7060   23.8880 C.3   300  FMN300      0.0308
     13  C8        45.4860   29.7590   23.7970 C.2   300  FMN300     -0.0280
     14  C8M       46.2920   29.1940   22.6730 C.3   300  FMN300      0.0304
     15  C9        44.3580   29.0870   24.1980 C.2   300  FMN300     -0.0041
     16  C9A       43.5870   29.5510   25.2540 C.3   300  FMN300      0.1497
     17  N10       42.4280   28.8680   25.6950 N.pl3 300  FMN300     -0.2691
     18  C10       41.7740   29.3390   26.8060 C.2   300  FMN300      0.2416
     19  C1'       42.0720   27.5120   25.1440 C.3   300  FMN300      0.1294
     20  C2'       41.3930   27.7320   23.7950 C.3   300  FMN300      0.2044
     21  O2'       40.0210   28.0330   24.0130 O.3   300  FMN300     -0.2185
     22  C3'       41.5470   26.5230   22.8650 C.3   300  FMN300      0.2164
     23  O3'       42.9380   26.2240   22.7010 O.3   300  FMN300     -0.2175
     24  C4'       40.8530   26.7040   21.5030 C.3   300  FMN300      0.2147
     25  O4'       39.4370   26.8480   21.6210 O.3   300  FMN300     -0.2176
     26  C5'       41.1200   25.5360   20.5460 C.3   300  FMN300      0.1892
     27  O5'       40.6180   24.3500   21.1230 O.3   300  FMN300     -0.2674
     28  P         41.5380   23.0870   21.2760 P.3   300  FMN300      0.5327
     29  O1P       42.6570   23.5300   22.2050 O.3   300  FMN300     -0.1145
     30  O2P       42.0730   22.6670   19.9200 O.2   300  FMN300     -0.2224
     31  O3P       40.6950   22.0600   22.0020 O.3   300  FMN300     -0.1145
@<TRIPOS>BOND
     1    30    28    2
     2    26    27    1
     3    26    24    1
     4    27    28    1
     5    28    31    1
     6    28    29    1
     7    24    25    1
     8    24    22    1
     9    14    13    1
    10    23    22    1
    11    22    20    1
    12    20    21    1
    13    20    19    1
    14    13    15    2
    15    13    11    1
    16    12    11    1
    17    15    16    1
    18    11    10    2
    19    19    17    1
    20    16    17    1
    21    16     9    1
    22    10     9    1
    23    17    18    1
    24     9     8    2
    25    18     1    2
    26    18     7    1
    27     8     7    2
    28     1     2    2
    29     7     5    1
    30     2     3    2
    31     2     4    2
    32     5     4    2
    33     5     6    2
