@<TRIPOS>MOLECULE
3ge6_FMN_A_1.pdb
 31 33 0 0 0
SMALL
GASTEIGER

@<TRIPOS>ATOM
      1  N1        36.2050   88.4770   12.8120 N.2   300  FMN300     -0.2887
      2  C2        37.4650   88.5140   12.2460 C.1   300  FMN300      0.3669
      3  O2        38.4510   88.1900   12.9120 O.2   300  FMN300     -0.1744
      4  N3        37.6300   88.9140   10.9400 N.2   300  FMN300     -0.2300
      5  C4        36.5640   89.3180   10.1700 C.1   300  FMN300      0.2513
      6  O4        36.7700   89.6630    8.9830 O.2   300  FMN300     -0.2057
      7  C4A       35.2770   89.2790   10.7330 C.2   300  FMN300      0.2703
      8  N5        34.1520   89.6410    9.9950 N.2   300  FMN300     -0.3882
      9  C5A       32.9010   89.2330   10.4220 C.2   300  FMN300      0.1277
     10  C6        31.8160   89.1970    9.5310 C.3   300  FMN300      0.0820
     11  C7        30.5580   88.7820    9.9790 C.2   300  FMN300     -0.0408
     12  C7M       29.3690   88.7030    9.0550 C.3   300  FMN300      0.0265
     13  C8        30.3800   88.4210   11.2990 C.2   300  FMN300     -0.0280
     14  C8M       29.0380   87.9560   11.8050 C.3   300  FMN300      0.0304
     15  C9        31.4570   88.4620   12.1790 C.2   300  FMN300      0.0123
     16  C9A       32.7220   88.8470   11.7500 C.2   300  FMN300      0.0793
     17  N10       33.8220   88.8500   12.6090 N.pl3 300  FMN300     -0.2545
     18  C10       35.0990   88.8600   12.0490 C.2   300  FMN300      0.2449
     19  C1'       33.6770   88.2910   13.9880 C.3   300  FMN300      0.1336
     20  C2'       33.1440   89.3350   14.9440 C.3   300  FMN300      0.2048
     21  O2'       34.2090   90.2550   15.2720 O.3   300  FMN300     -0.2185
     22  C3'       32.5630   88.6770   16.1760 C.3   300  FMN300      0.2165
     23  O3'       31.4400   87.8740   15.7630 O.3   300  FMN300     -0.2175
     24  C4'       32.1810   89.6900   17.2520 C.3   300  FMN300      0.2147
     25  O4'       33.3190   90.3900   17.7300 O.3   300  FMN300     -0.2176
     26  C5'       31.5580   89.0300   18.4470 C.3   300  FMN300      0.1892
     27  O5'       32.4170   88.0440   18.9680 O.3   300  FMN300     -0.2674
     28  P         32.0240   86.4690   19.0120 P.3   300  FMN300      0.5327
     29  O1P       31.7540   85.8740   17.6680 O.2   300  FMN300     -0.2224
     30  O2P       30.7840   86.2890   19.8570 O.3   300  FMN300     -0.1145
     31  O3P       33.2240   85.7590   19.6050 O.3   300  FMN300     -0.1145
@<TRIPOS>BOND
     1     6     5    2
     2    12    11    1
     3    10    11    1
     4    10     9    1
     5    11    13    2
     6     8     9    2
     7     8     7    2
     8     5     7    1
     9     5     4    2
    10     9    16    1
    11     7    18    1
    12     4     2    2
    13    13    14    1
    14    13    15    1
    15    16    15    2
    16    16    17    1
    17    18    17    1
    18    18     1    2
    19     2     1    2
    20     2     3    2
    21    17    19    1
    22    19    20    1
    23    20    21    1
    24    20    22    1
    25    23    22    1
    26    22    24    1
    27    24    25    1
    28    24    26    1
    29    29    28    2
    30    26    27    1
    31    27    28    1
    32    28    31    1
    33    28    30    1
