@<TRIPOS>MOLECULE
3ge7_AFQ_A_1.pdb
 26 29 0 0 0
SMALL
GASTEIGER

@<TRIPOS>ATOM
      1  C2        18.1830   17.1420   23.0550 C.1   390  AFQ390      0.2180
      2  O16       19.2780   17.5160   23.4350 O.2   390  AFQ390     -0.2085
      3  N3        17.1410   16.8660   23.8840 N.2   390  AFQ390     -0.2501
      4  C4        15.9910   16.3740   23.3340 C.1   390  AFQ390      0.2515
      5  N17       14.9990   16.0260   24.1950 N.pl3 390  AFQ390     -0.0226
      6  N5        15.7910   16.2930   22.0670 N.2   390  AFQ390     -0.3286
      7  C6        16.7060   16.6270   21.1090 C.2   390  AFQ390      0.1410
      8  C10       16.3840   16.5220   19.7360 C.3   390  AFQ390      0.1114
      9  C18       15.1460   15.8650   19.1540 C.3   390  AFQ390      0.0331
     10  C19       15.3660   14.4250   18.5710 C.3   390  AFQ390      0.0896
     11  N20       14.2220   14.2050   17.6420 N.3   390  AFQ390     -0.2180
     12  C21       12.8530   14.2330   18.2440 C.3   390  AFQ390      0.0887
     13  C22       11.8100   14.3100   17.0890 C.3   390  AFQ390      0.0174
     14  C26       11.6950   15.7160   16.4740 C.3   390  AFQ390      0.0014
     15  C25       10.2480   15.7770   15.9240 C.3   390  AFQ390      0.0000
     16  C24        9.3990   14.9600   16.9560 C.3   390  AFQ390      0.0000
     17  C23       10.3900   13.9760   17.6050 C.3   390  AFQ390      0.0014
     18  C9        17.4060   16.9130   18.8690 C.2   390  AFQ390      0.1592
     19  N11       17.4980   17.0470   17.5240 N.2   390  AFQ390     -0.3284
     20  C12       18.6620   17.4350   17.1700 C.1   390  AFQ390      0.2200
     21  N14       19.2260   17.6600   15.9820 N.pl3 390  AFQ390     -0.1499
     22  C15       18.6080   17.4710   14.6850 C.3   390  AFQ390      0.1504
     23  N13       19.4460   17.6520   18.2440 N.2   390  AFQ390     -0.3247
     24  C8        18.6210   17.3370   19.3400 C.2   390  AFQ390      0.1724
     25  C7        18.9870   17.4340   20.6810 C.2   390  AFQ390      0.0504
     26  C1        17.9710   17.0360   21.5650 C.2   390  AFQ390      0.1247
@<TRIPOS>BOND
     1    22    21    1
     2    15    14    1
     3    15    16    1
     4    21    20    1
     5    14    13    1
     6    16    17    1
     7    13    17    1
     8    13    12    1
     9    20    19    2
    10    20    23    2
    11    19    18    2
    12    11    12    1
    13    11    10    1
    14    23    24    2
    15    10     9    1
    16    18    24    1
    17    18     8    1
    18     9     8    1
    19    24    25    1
    20     8     7    1
    21    25    26    2
    22     7    26    1
    23     7     6    2
    24    26     1    1
    25     6     4    2
    26     1     2    2
    27     1     3    2
    28     4     3    2
    29     4     5    1
