@<TRIPOS>MOLECULE
3gee_GDP_A_1.pdb
 28 30 0 0 0
SMALL
GASTEIGER

@<TRIPOS>ATOM
      1  PB        17.2890    2.2450   -7.8830 P.3   474  GDP474      0.5373
      2  O1B       16.9420    2.3170   -6.4160 O.3   474  GDP474     -0.1143
      3  O2B       18.6540    2.8400   -8.1260 O.3   474  GDP474     -0.1143
      4  O3B       16.2520    2.9950   -8.6830 O.2   474  GDP474     -0.2221
      5  O3A       17.3040    0.7110   -8.3490 O.3   474  GDP474     -0.2261
      6  PA        15.9840   -0.1960   -8.2160 P.3   474  GDP474      0.2231
      7  O1A       16.0590   -1.0430   -6.9750 O.3   474  GDP474     -0.4370
      8  O2A       14.7380    0.6590   -8.2110 O.2   474  GDP474     -0.5169
      9  O5'       16.0420   -1.1340   -9.5210 O.3   474  GDP474     -0.3111
     10  C5'       15.7580   -0.5890  -10.8080 C.3   474  GDP474      0.1813
     11  C4'       15.2720   -1.7020  -11.7240 C.3   474  GDP474      0.1799
     12  O4'       16.2560   -2.7390  -11.7940 O.3   474  GDP474     -0.3326
     13  C3'       13.9870   -2.3240  -11.2020 C.3   474  GDP474      0.2158
     14  O3'       12.9000   -1.9910  -12.0730 O.3   474  GDP474     -0.2175
     15  C2'       14.2460   -3.8230  -11.1320 C.3   474  GDP474      0.2310
     16  O2'       13.3110   -4.5670  -11.9220 O.3   474  GDP474     -0.2158
     17  C1'       15.6570   -4.0310  -11.6640 C.3   474  GDP474      0.2293
     18  N9        16.4520   -4.8760  -10.7370 N.pl3 474  GDP474     -0.2354
     19  C8        16.9120   -4.5000   -9.5290 C.3   474  GDP474      0.2246
     20  N7        17.6050   -5.5030   -8.9330 N.2   474  GDP474     -0.2322
     21  C5        17.6000   -6.5530   -9.7710 C.2   474  GDP474      0.2182
     22  C6        18.1530   -7.9320   -9.7610 C.1   474  GDP474      0.2372
     23  O6        18.8080   -8.3640   -8.7880 O.2   474  GDP474     -0.2069
     24  N1        17.9210   -8.7090  -10.8300 N.2   474  GDP474     -0.2485
     25  C2        17.2160   -8.2800  -11.8980 C.1   474  GDP474      0.2531
     26  N2        17.0340   -9.1350  -12.9330 N.pl3 474  GDP474     -0.0226
     27  N3        16.6840   -7.0270  -11.9740 N.2   474  GDP474     -0.3074
     28  C4        16.8390   -6.1360  -10.9610 C.2   474  GDP474      0.2300
@<TRIPOS>BOND
     1    26    25    1
     2    14    13    1
     3    27    25    2
     4    27    28    2
     5    16    15    1
     6    25    24    2
     7    12    11    1
     8    12    17    1
     9    11    13    1
    10    11    10    1
    11    17    15    1
    12    17    18    1
    13    13    15    1
    14    28    18    1
    15    28    21    1
    16    24    22    2
    17    10     9    1
    18    18    19    1
    19    21    22    1
    20    21    20    2
    21    22    23    2
    22    19    20    1
    23     9     6    1
    24     4     1    2
    25     5     6    1
    26     5     1    1
    27     6     8    2
    28     6     7    1
    29     3     1    1
    30     1     2    1
