@<TRIPOS>MOLECULE
3gee_FON_A_1.pdb
 34 36 0 0 0
SMALL
GASTEIGER

@<TRIPOS>ATOM
      1  N1        -5.6580   -1.6930   38.1910 N.2   475  FON475     -0.2723
      2  C2        -4.8080   -2.6510   38.6120 C.1   475  FON475      0.2603
      3  NA2       -3.5780   -2.2860   39.0590 N.pl3 475  FON475     -0.0221
      4  N3        -5.1410   -3.9690   38.6040 N.2   475  FON475     -0.2512
      5  C4        -6.3440   -4.4090   38.1750 C.1   475  FON475      0.2256
      6  O4        -6.5850   -5.6350   38.1950 O.2   475  FON475     -0.2106
      7  C4A       -7.3170   -3.3890   37.6840 C.3   475  FON475      0.2939
      8  N5        -8.6230   -3.5820   37.2200 N.am  475  FON475     -0.2448
      9  C6        -9.5180   -2.5250   37.7260 C.3   475  FON475      0.1243
     10  C7        -9.1040   -1.3270   36.8800 C.3   475  FON475      0.1586
     11  N8        -7.7450   -1.0070   37.2950 N.2   475  FON475     -0.2090
     12  C8A       -6.8870   -1.9750   37.7300 C.1   475  FON475      0.1088
     13  C9       -11.0180   -2.8250   37.6590 C.3   475  FON475      0.1340
     14  N10      -11.3610   -4.1060   38.2610 N.pl3 475  FON475     -0.2358
     15  C11      -10.7350   -5.5200   42.1400 C.ar  475  FON475      0.0551
     16  C12      -12.0130   -5.4130   41.5950 C.ar  475  FON475      0.0059
     17  C13      -12.2020   -4.9360   40.2990 C.ar  475  FON475      0.0162
     18  C14      -11.1120   -4.5400   39.5290 C.ar  475  FON475      0.0654
     19  C15       -9.8230   -4.6620   40.0700 C.ar  475  FON475      0.0162
     20  C16       -9.6310   -5.1400   41.3690 C.ar  475  FON475      0.0059
     21  C        -10.5920   -6.0480   43.5460 C.2   475  FON475      0.2652
     22  O         -9.4970   -6.0460   44.0880 O.2   475  FON475     -0.2684
     23  N        -11.6910   -6.5250   44.1460 N.am  475  FON475     -0.1918
     24  CA       -12.0520   -6.4190   45.5570 C.3   475  FON475      0.1986
     25  CB       -12.3040   -4.9680   45.9820 C.3   475  FON475      0.0451
     26  CG       -12.4100   -4.7710   47.4980 C.3   475  FON475      0.1164
     27  CD       -11.7820   -3.4590   47.9300 C.2   475  FON475      0.3649
     28  OE1      -10.5350   -3.4040   48.0480 O.co2 475  FON475     -0.2457
     29  OE2      -12.5260   -2.4740   48.1610 O.co2 475  FON475     -0.2457
     30  CT       -13.2790   -7.2520   45.8220 C.2   475  FON475      0.3842
     31  O1       -13.3050   -8.0000   46.8280 O.co2 475  FON475     -0.2437
     32  O2       -14.2350   -7.1650   45.0170 O.co2 475  FON475     -0.2437
     33  CP1       -8.9490   -4.5330   36.4530 C.2   475  FON475      0.3045
     34  O3        -9.3800   -4.3090   35.3350 O.2   475  FON475     -0.2649
@<TRIPOS>BOND
     1    34    33    2
     2    33     8   am
     3    10    11    1
     4    10     9    1
     5     8     7    1
     6     8     9    1
     7    11    12    2
     8    13     9    1
     9    13    14    1
    10     7    12    1
    11     7     5    1
    12    12     1    2
    13     5     6    2
    14     5     4    2
    15     1     2    2
    16    14    18    1
    17     4     2    2
    18     2     3    1
    19    18    19   ar
    20    18    17   ar
    21    19    20   ar
    22    17    16   ar
    23    20    15   ar
    24    16    15   ar
    25    15    21    1
    26    21    22    2
    27    21    23   am
    28    23    24    1
    29    32    30   ar
    30    24    30    1
    31    24    25    1
    32    30    31   ar
    33    25    26    1
    34    26    27    1
    35    27    28   ar
    36    27    29   ar
