@<TRIPOS>MOLECULE
3geg_NAD_A_1.pdb
 44 48 0 0 0
SMALL
GASTEIGER

@<TRIPOS>ATOM
      1  PA        60.1240   82.3400   62.1270 P.3   248  NAD248      0.2189
      2  O1A       61.1910   82.5340   63.1310 O.3   248  NAD248     -0.4371
      3  O2A       59.9490   83.5800   61.3360 O.2   248  NAD248     -0.5170
      4  O5B       58.7370   81.9560   62.8560 O.3   248  NAD248     -0.3112
      5  C5B       58.5400   80.7150   63.4900 C.3   248  NAD248      0.1813
      6  C4B       57.5080   80.9450   64.5810 C.3   248  NAD248      0.1821
      7  O4B       57.3140   79.7570   65.3220 O.3   248  NAD248     -0.3135
      8  C3B       58.0130   82.0020   65.5460 C.3   248  NAD248      0.2184
      9  O3B       56.9600   82.8860   65.8520 O.3   248  NAD248     -0.2174
     10  C2B       58.4190   81.2150   66.7760 C.3   248  NAD248      0.2570
     11  O2B       58.2640   81.9750   67.9520 O.3   248  NAD248     -0.2130
     12  C1B       57.4970   80.0040   66.7030 C.3   248  NAD248      0.3186
     13  N9A       58.0650   78.8120   67.3560 N.pl3 248  NAD248     -0.1439
     14  C8A       59.3310   78.3090   67.1930 C.3   248  NAD248      0.3377
     15  N7A       59.4530   77.2060   67.9650 N.2   248  NAD248     -0.2095
     16  C5A       58.2860   76.9980   68.6160 C.2   248  NAD248      0.2526
     17  C6A       57.8780   76.0290   69.5200 C.2   248  NAD248      0.4393
     18  N6A       58.7430   75.1130   69.9410 N.pl3 248  NAD248      0.2180
     19  N1A       56.5950   76.0700   70.0360 N.2   248  NAD248      0.0021
     20  C2A       55.7330   77.0770   69.6490 C.3   248  NAD248      0.5254
     21  N3A       56.1470   78.0410   68.7490 N.2   248  NAD248     -0.0055
     22  C4A       57.4020   78.0010   68.2410 C.2   248  NAD248      0.3518
     23  O3        60.4510   81.0410   61.2240 O.3   248  NAD248     -0.2703
     24  PN        59.7480   80.7290   59.8010 P.3   248  NAD248      0.2189
     25  O1N       60.7740   80.7880   58.7360 O.2   248  NAD248     -0.5170
     26  O2N       58.5030   81.5240   59.6560 O.3   248  NAD248     -0.4371
     27  O5D       59.3540   79.1780   59.9920 O.3   248  NAD248     -0.3112
     28  C5D       58.0490   78.7080   59.7380 C.3   248  NAD248      0.1813
     29  C4D       58.1640   77.3490   59.0540 C.3   248  NAD248      0.1799
     30  O4D       58.7400   77.5060   57.7700 O.3   248  NAD248     -0.3327
     31  C3D       59.0830   76.4110   59.8230 C.3   248  NAD248      0.2158
     32  O3D       58.5010   75.1270   59.8730 O.3   248  NAD248     -0.2175
     33  C2D       60.3400   76.3640   58.9810 C.3   248  NAD248      0.2309
     34  O2D       61.0220   75.1430   59.1420 O.3   248  NAD248     -0.2158
     35  C1D       59.7690   76.5520   57.5840 C.3   248  NAD248      0.2263
     36  N1N       60.7930   77.0180   56.6280 N.pl3 248  NAD248     -0.2787
     37  C2N       61.1660   78.3360   56.5690 C.3   248  NAD248      0.1244
     38  C3N       62.1300   78.7420   55.6450 C.2   248  NAD248      0.0544
     39  C7N       62.6460   80.1550   55.6180 C.2   248  NAD248      0.2818
     40  O7N       63.6230   80.5000   54.6620 O.2   248  NAD248     -0.2670
     41  N7N       62.1770   81.0500   56.4860 N.am  248  NAD248     -0.0839
     42  C4N       62.6870   77.8100   54.7760 C.2   248  NAD248      0.0033
     43  C5N       62.2860   76.4830   54.8360 C.2   248  NAD248      0.0157
     44  C6N       61.3300   76.1030   55.7690 C.2   248  NAD248      0.0633
@<TRIPOS>BOND
     1    40    39    2
     2    42    43    1
     3    42    38    2
     4    43    44    2
     5    39    38    1
     6    39    41   am
     7    38    37    1
     8    44    36    1
     9    37    36    1
    10    36    35    1
    11    35    30    1
    12    35    33    1
    13    30    29    1
    14    25    24    2
    15    33    34    1
    16    33    31    1
    17    29    28    1
    18    29    31    1
    19    26    24    1
    20    28    27    1
    21    24    27    1
    22    24    23    1
    23    31    32    1
    24    23     1    1
    25     3     1    2
    26     1     4    1
    27     1     2    1
    28     4     5    1
    29     5     6    1
    30     6     7    1
    31     6     8    1
    32     7    12    1
    33     8     9    1
    34     8    10    1
    35    12    10    1
    36    12    13    1
    37    10    11    1
    38    14    13    1
    39    14    15    1
    40    13    22    1
    41    15    16    2
    42    22    16    1
    43    22    21    2
    44    16    17    1
    45    21    20    1
    46    17    18    1
    47    17    19    2
    48    20    19    1
