@<TRIPOS>MOLECULE
3geh_GDP_A_1.pdb
 28 30 0 0 0
SMALL
GASTEIGER

@<TRIPOS>ATOM
      1  PB       -45.1850   24.9280   34.1340 P.3   460  GDP460      0.5373
      2  O1B      -44.9290   25.6620   32.8410 O.2   460  GDP460     -0.2221
      3  O2B      -45.7790   25.8680   35.1580 O.3   460  GDP460     -0.1143
      4  O3B      -43.8850   24.3990   34.6920 O.3   460  GDP460     -0.1143
      5  O3A      -46.1950   23.7150   33.8350 O.3   460  GDP460     -0.2261
      6  PA       -46.2520   22.4270   34.7980 P.3   460  GDP460      0.2231
      7  O1A      -45.1430   21.4580   34.4680 O.2   460  GDP460     -0.5169
      8  O2A      -46.1860   22.8540   36.2450 O.3   460  GDP460     -0.4370
      9  O5'      -47.6900   21.7880   34.4550 O.3   460  GDP460     -0.3111
     10  C5'      -48.8880   22.4450   34.8710 C.3   460  GDP460      0.1813
     11  C4'      -49.9990   21.4260   35.1020 C.3   460  GDP460      0.1799
     12  O4'      -50.4290   20.8770   33.8530 O.3   460  GDP460     -0.3326
     13  C3'      -49.5490   20.2700   35.9840 C.3   460  GDP460      0.2158
     14  O3'      -50.3790   20.1990   37.1460 O.3   460  GDP460     -0.2175
     15  C2'      -49.7050   19.0220   35.1350 C.3   460  GDP460      0.2310
     16  O2'      -50.3900   17.9860   35.8430 O.3   460  GDP460     -0.2158
     17  C1'      -50.5040   19.4530   33.9140 C.3   460  GDP460      0.2293
     18  N9       -49.9010   18.8590   32.6980 N.pl3 460  GDP460     -0.2354
     19  C8       -48.6380   19.0540   32.2760 C.3   460  GDP460      0.2246
     20  N7       -48.3880   18.3670   31.1340 N.2   460  GDP460     -0.2322
     21  C5       -49.5130   17.7130   30.8090 C.2   460  GDP460      0.2182
     22  C6       -49.9320   16.8020   29.7200 C.1   460  GDP460      0.2372
     23  O6       -49.1370   16.4850   28.8100 O.2   460  GDP460     -0.2069
     24  N1       -51.1890   16.3380   29.7400 N.2   460  GDP460     -0.2485
     25  C2       -52.0620   16.6670   30.7090 C.1   460  GDP460      0.2531
     26  N2       -53.3090   16.1500   30.6490 N.pl3 460  GDP460     -0.0226
     27  N3       -51.7450   17.4960   31.7400 N.2   460  GDP460     -0.3074
     28  C4       -50.5090   18.0390   31.8410 C.2   460  GDP460      0.2300
@<TRIPOS>BOND
     1    23    22    2
     2    22    24    2
     3    22    21    1
     4    24    25    2
     5    26    25    1
     6    25    27    2
     7    21    20    2
     8    21    28    1
     9    20    19    1
    10    27    28    2
    11    28    18    1
    12    19    18    1
    13    18    17    1
    14     2     1    2
    15     5     1    1
    16     5     6    1
    17    12    17    1
    18    12    11    1
    19    17    15    1
    20     1     4    1
    21     1     3    1
    22     9     6    1
    23     9    10    1
    24     7     6    2
    25     6     8    1
    26    10    11    1
    27    11    13    1
    28    15    16    1
    29    15    13    1
    30    13    14    1
