@<TRIPOS>MOLECULE
3geh_FON_A_1.pdb
 34 36 0 0 0
SMALL
GASTEIGER

@<TRIPOS>ATOM
      1  N1        -5.1800    7.2630   38.3910 N.2   461  FON461     -0.2723
      2  C2        -4.3760    7.7190   39.3730 C.1   461  FON461      0.2603
      3  NA2       -4.5060    7.2080   40.6160 N.pl3 461  FON461     -0.0221
      4  N3        -3.4330    8.6770   39.1800 N.2   461  FON461     -0.2512
      5  C4        -3.2260    9.2530   37.9750 C.1   461  FON461      0.2256
      6  O4        -2.3530   10.1380   37.8080 O.2   461  FON461     -0.2106
      7  C4A       -4.0950    8.7910   36.8700 C.3   461  FON461      0.2939
      8  N5        -4.0450    9.2210   35.5530 N.am  461  FON461     -0.2448
      9  C6        -4.0650    8.0910   34.6280 C.3   461  FON461      0.1243
     10  C7        -5.5120    7.5760   34.7100 C.3   461  FON461      0.1586
     11  N8        -5.8780    7.3110   36.1070 N.2   461  FON461     -0.2090
     12  C8A       -5.0950    7.7390   37.1400 C.1   461  FON461      0.1088
     13  C9        -3.6240    8.5510   33.2430 C.3   461  FON461      0.1340
     14  N10       -2.9760    7.4500   32.5610 N.pl3 461  FON461     -0.2358
     15  C11        0.9820    6.1690   32.8860 C.ar  461  FON461      0.0551
     16  C12        0.5280    6.8170   31.7350 C.ar  461  FON461      0.0059
     17  C13       -0.7970    7.2440   31.6450 C.ar  461  FON461      0.0162
     18  C14       -1.6870    7.0470   32.7010 C.ar  461  FON461      0.0654
     19  C15       -1.2430    6.3900   33.8480 C.ar  461  FON461      0.0162
     20  C16        0.0840    5.9630   33.9390 C.ar  461  FON461      0.0059
     21  C          2.4180    5.6920   32.9840 C.2   461  FON461      0.2652
     22  O          2.8060    5.1130   33.9910 O.2   461  FON461     -0.2684
     23  N          3.2530    5.8940   31.9560 N.am  461  FON461     -0.1918
     24  CA         3.8680    4.8590   31.1280 C.3   461  FON461      0.1986
     25  CB         3.0380    3.5760   31.0180 C.3   461  FON461      0.0451
     26  CG         3.5790    2.4680   31.9230 C.3   461  FON461      0.1164
     27  CD         3.8700    1.1760   31.1780 C.2   461  FON461      0.3649
     28  OE1        4.0900    0.1480   31.8600 O.co2 461  FON461     -0.2457
     29  OE2        3.8900    1.1580   29.9240 O.co2 461  FON461     -0.2457
     30  CT         4.1190    5.4020   29.7510 C.2   461  FON461      0.3842
     31  O1         5.2860    5.3690   29.3070 O.co2 461  FON461     -0.2437
     32  O2         3.1590    5.8760   29.1020 O.co2 461  FON461     -0.2437
     33  CP1       -4.0360   10.4480   35.2260 C.2   461  FON461      0.3045
     34  O3        -5.0870   11.0510   35.0400 O.2   461  FON461     -0.2649
@<TRIPOS>BOND
     1    32    30   ar
     2    31    30   ar
     3    30    24    1
     4    29    27   ar
     5    25    24    1
     6    25    26    1
     7    24    23    1
     8    27    28   ar
     9    27    26    1
    10    17    16   ar
    11    17    18   ar
    12    16    15   ar
    13    23    21   am
    14    14    18    1
    15    14    13    1
    16    18    19   ar
    17    15    21    1
    18    15    20   ar
    19    21    22    2
    20    13     9    1
    21    19    20   ar
    22     9    10    1
    23     9     8    1
    24    10    11    1
    25    34    33    2
    26    33     8   am
    27     8     7    1
    28    11    12    2
    29     7    12    1
    30     7     5    1
    31    12     1    2
    32     6     5    2
    33     5     4    2
    34     1     2    2
    35     4     2    2
    36     2     3    1
