@<TRIPOS>MOLECULE
3gen_B43_A_1.pdb
 28 32 0 0 0
SMALL
GASTEIGER

@<TRIPOS>ATOM
      1  N1       -19.3930    4.7490  -16.8150 N.pl3   1  B431        0.2117
      2  C1       -18.3580    5.0350  -17.6220 C.2     1  B431        0.4064
      3  N4       -18.4720    4.6780  -18.9310 N.2     1  B431       -0.0027
      4  C23      -17.5020    4.9300  -19.8220 C.3     1  B431        0.5248
      5  N3       -16.3840    5.5440  -19.4320 N.2     1  B431       -0.0107
      6  C22      -16.2230    5.9140  -18.1310 C.2     1  B431        0.3196
      7  C2       -17.2010    5.6710  -17.1740 C.3     1  B431        0.2445
      8  N2       -15.2090    6.5290  -17.5510 N.pl3   1  B431       -0.1746
      9  C17      -14.0520    6.9970  -18.3400 C.3     1  B431        0.1647
     10  C21      -14.0670    8.5010  -18.5480 C.3     1  B431        0.0470
     11  C20      -12.6050    8.9100  -18.6180 C.3     1  B431        0.0043
     12  C19      -11.7680    7.6640  -18.3770 C.3     1  B431        0.0043
     13  C18      -12.7040    6.6720  -17.7220 C.3     1  B431        0.0470
     14  C16      -15.4730    6.7000  -16.2500 C.2     1  B431        0.1721
     15  C3       -16.7230    6.1820  -15.9620 C.2     1  B431        0.0414
     16  C4       -17.2900    6.1110  -14.6740 C.ar    1  B431        0.0007
     17  C15      -17.6700    4.8840  -14.1250 C.ar    1  B431        0.0030
     18  C14      -18.1110    4.7870  -12.8040 C.ar    1  B431        0.0375
     19  C7       -18.2030    5.9130  -11.9900 C.ar    1  B431        0.1453
     20  C6       -17.8060    7.1410  -12.5140 C.ar    1  B431        0.0375
     21  C5       -17.3660    7.2350  -13.8380 C.ar    1  B431        0.0030
     22  O        -18.8410    5.7800  -10.7740 O.3     1  B431       -0.4535
     23  C8       -19.8030    6.6210  -10.2870 C.ar    1  B431        0.1453
     24  C13      -20.8560    7.0490  -11.0900 C.ar    1  B431        0.0375
     25  C12      -21.8240    7.8810  -10.5460 C.ar    1  B431        0.0031
     26  C11      -21.7460    8.2850   -9.2220 C.ar    1  B431        0.0002
     27  C10      -20.6910    7.8570   -8.4300 C.ar    1  B431        0.0031
     28  C9       -19.7290    7.0060   -8.9480 C.ar    1  B431        0.0375
@<TRIPOS>BOND
     1     4     5    1
     2     4     3    1
     3     5     6    2
     4     3     2    2
     5    11    10    1
     6    11    12    1
     7    10     9    1
     8    12    13    1
     9     9    13    1
    10     9     8    1
    11     6     8    1
    12     6     7    1
    13     2     7    1
    14     2     1    1
    15     8    14    1
    16     7    15    1
    17    14    15    2
    18    15    16    1
    19    16    17   ar
    20    16    21   ar
    21    17    18   ar
    22    21    20   ar
    23    18    19   ar
    24    20    19   ar
    25    19    22    1
    26    24    25   ar
    27    24    23   ar
    28    22    23    1
    29    25    26   ar
    30    23    28   ar
    31    26    27   ar
    32    28    27   ar
