@<TRIPOS>MOLECULE
3gep_24H_A_1.pdb
 21 22 0 0 0
SMALL
GASTEIGER

@<TRIPOS>ATOM
      1  C4        19.2420   55.9400    7.8790 C.2   218  24H218      0.2283
      2  C5        20.2420   54.9740    7.9570 C.2   218  24H218      0.2181
      3  C6        20.0140   53.7050    7.4340 C.1   218  24H218      0.2372
      4  C8        20.9630   56.8160    8.8710 C.3   218  24H218      0.2229
      5  O6        20.9000   52.8240    7.4970 O.2   218  24H218     -0.2069
      6  N7        21.2930   55.5380    8.5820 N.2   218  24H218     -0.2323
      7  N1        18.8180   53.4320    6.8590 N.2   218  24H218     -0.2485
      8  C2        17.8450   54.3760    6.7950 C.1   218  24H218      0.2531
      9  N2        16.6630   54.0790    6.2020 N.pl3 218  24H218     -0.0226
     10  N3        18.0520   55.6160    7.3020 N.2   218  24H218     -0.3075
     11  N9        19.7120   57.0590    8.4660 N.pl3 218  24H218     -0.2576
     12  CAJ       19.0140   58.3380    8.5910 C.3   218  24H218      0.1272
     13  CAS       18.6030   58.7820   10.0020 C.3   218  24H218      0.1684
     14  CAH       17.2510   58.1590   10.2980 C.3   218  24H218      0.2132
     15  OAD       16.3320   59.2590   10.3440 O.3   218  24H218     -0.2176
     16  OAN       19.5490   58.6020   11.0820 O.3   218  24H218     -0.3440
     17  CAI       19.3100   59.6060   12.0820 C.3   218  24H218      0.2002
     18  PAU       20.7510   60.1120   13.0790 P.3   218  24H218      0.1470
     19  OAE       20.8400   59.0940   14.1900 O.3   218  24H218     -0.3555
     20  OAF       21.9220   60.1400   12.1290 O.2   218  24H218     -0.4576
     21  OAC       20.4270   61.4920   13.5960 O.3   218  24H218     -0.3555
@<TRIPOS>BOND
     1     9     8    1
     2     8     7    2
     3     8    10    2
     4     7     3    2
     5    10     1    2
     6     3     5    2
     7     3     2    1
     8     1     2    1
     9     1    11    1
    10     2     6    2
    11    11    12    1
    12    11     4    1
    13     6     4    1
    14    12    13    1
    15    13    14    1
    16    13    16    1
    17    14    15    1
    18    16    17    1
    19    17    18    1
    20    20    18    2
    21    18    21    1
    22    18    19    1
