@<TRIPOS>MOLECULE
3geq_PP2_A_1.pdb
 21 23 0 0 0
SMALL
GASTEIGER

@<TRIPOS>ATOM
      1  C1        18.3230   20.0780   -1.9620 C.2     1  PP21        0.3404
      2  N2        18.0060   20.1540   -3.2810 N.2     1  PP21       -0.0088
      3  C3        18.5830   19.3460   -4.1780 C.3     1  PP21        0.5248
      4  N4        19.4930   18.4220   -3.8210 N.2     1  PP21       -0.0027
      5  C5        19.8790   18.2650   -2.5310 C.2     1  PP21        0.4081
      6  C6        19.2950   19.1130   -1.5280 C.3     1  PP21        0.2639
      7  C8        19.4170   19.2880   -0.0690 C.2     1  PP21        0.1226
      8  N9        18.5930   20.2460    0.2730 N.2     1  PP21       -0.0915
      9  N10       17.9070   20.7550   -0.8390 N.pl3   1  PP21       -0.0877
     10  C11       20.2950   18.5730    0.8900 C.ar    1  PP21        0.0182
     11  C12       21.7060   18.7490    0.7870 C.ar    1  PP21        0.0022
     12  C13       22.5720   18.1170    1.6910 C.ar    1  PP21        0.0114
     13  C14       22.0550   17.3030    2.7120 C.ar    1  PP21        0.0577
     14  C15       20.6490   17.1120    2.8300 C.ar    1  PP21        0.0114
     15  C16       19.7620   17.7470    1.9190 C.ar    1  PP21        0.0022
     16  C22       16.8990   21.8550   -0.7870 C.3     1  PP21        0.1509
     17  C23       16.7090   22.3320    0.6530 C.3     1  PP21        0.0491
     18  C24       15.5500   21.3780   -1.3400 C.3     1  PP21        0.0491
     19  C25       17.3910   23.0500   -1.5980 C.3     1  PP21        0.0491
     20  N25       20.8140   17.3040   -2.2000 N.pl3   1  PP21        0.2118
     21 CL         23.1480   16.5420    3.8270 Cl      1  PP21       -0.0822
@<TRIPOS>BOND
     1     3     4    1
     2     3     2    1
     3     4     5    2
     4     2     1    2
     5     5    20    1
     6     5     6    1
     7     1     6    1
     8     1     9    1
     9    19    16    1
    10     6     7    1
    11    18    16    1
    12     9    16    1
    13     9     8    1
    14    16    17    1
    15     7     8    2
    16     7    10    1
    17    11    10   ar
    18    11    12   ar
    19    10    15   ar
    20    12    13   ar
    21    15    14   ar
    22    13    14   ar
    23    13    21    1
