@<TRIPOS>MOLECULE
3gev_SAQ_A_1.pdb
 16 18 0 0 0
SMALL
GASTEIGER

@<TRIPOS>ATOM
      1  N1        17.5070   17.1630   23.7950 N.2   400  SAQ400     -0.1752
      2  N3        15.9960   16.7440   22.0370 N.2   400  SAQ400     -0.2468
      3  C4        16.9850   17.0410   21.0850 C.2   400  SAQ400      0.0741
      4  C5        18.2590   17.4410   21.4960 C.2   400  SAQ400      0.0991
      5  C6        18.5590   17.4360   22.9420 C.1   400  SAQ400      0.1532
      6  C7        19.2830   17.7360   20.5700 C.2   400  SAQ400      0.0482
      7  C8        18.8980   17.6780   19.2260 C.2   400  SAQ400      0.1723
      8  C10       16.6260   16.9810   19.7180 C.3   400  SAQ400      0.1088
      9  N12       19.5990   17.8720   18.0630 N.2   400  SAQ400     -0.3247
     10  C13       18.7350   17.7340   17.0080 C.1   400  SAQ400      0.2200
     11  C2        16.2410   16.9070   23.3630 C.3   400  SAQ400      0.2622
     12  C9        17.6230   17.3290   18.7890 C.2   400  SAQ400      0.1589
     13  N14       17.5440   17.3810   17.4190 N.2   400  SAQ400     -0.3284
     14  N15       19.2480   17.9250   15.7580 N.pl3 400  SAQ400     -0.1499
     15  O16       19.6170   17.8100   23.4420 O.2   400  SAQ400     -0.2221
     16  C25       18.4880   17.8420   14.5370 C.3   400  SAQ400      0.1504
@<TRIPOS>BOND
     1    16    14    1
     2    14    10    1
     3    10    13    2
     4    10     9    2
     5    13    12    2
     6     9     7    2
     7    12     7    1
     8    12     8    1
     9     7     6    1
    10     8     3    1
    11     6     4    2
    12     3     4    1
    13     3     2    2
    14     4     5    1
    15     2    11    1
    16     5    15    2
    17     5     1    2
    18    11     1    1
