@<TRIPOS>MOLECULE
3gey_P34_A_1.pdb
 22 24 0 0 0
SMALL
GASTEIGER

@<TRIPOS>ATOM
      1  CAA      -18.8750   28.5640  -43.2400 C.3   701  P34701      0.0900
      2  N        -18.5790   27.3830  -42.4110 N.3   701  P34701     -0.2625
      3  CAB      -17.4420   26.7210  -43.0680 C.3   701  P34701      0.0900
      4  CA       -19.6870   26.4140  -42.4200 C.3   701  P34701      0.1606
      5  C        -21.0110   27.0620  -41.9440 C.2   701  P34701      0.2619
      6  O        -22.0990   26.5160  -42.1570 O.2   701  P34701     -0.2715
      7  NAM      -20.8820   28.2200  -41.2830 N.am  701  P34701     -0.1780
      8  CAP      -21.9080   28.9280  -40.7900 C.2   701  P34701      0.0736
      9  CAK      -21.6400   30.1760  -40.2210 C.2   701  P34701      0.0192
     10  CAU      -22.6830   30.9580  -39.7400 C.2   701  P34701      0.0326
     11  CAT      -22.3910   32.1840  -39.1670 C.ar  701  P34701      0.0145
     12  CAI      -21.0720   32.6070  -39.0860 C.ar  701  P34701      0.0008
     13  CAF      -20.7800   33.8350  -38.5090 C.ar  701  P34701      0.0000
     14  CAE      -21.8050   34.6330  -38.0150 C.ar  701  P34701      0.0008
     15  CAH      -23.1200   34.2010  -38.1050 C.ar  701  P34701      0.0127
     16  CAS      -23.4180   32.9760  -38.6810 C.ar  701  P34701      0.0948
     17  CAQ      -24.7370   32.5430  -38.7670 C.1   701  P34701      0.2046
     18  OAD      -25.6470   33.2450  -38.3320 O.2   701  P34701     -0.2093
     19  NAN      -25.0330   31.3100  -39.3410 N.2   701  P34701     -0.3329
     20  CAR      -23.9970   30.5140  -39.8290 C.2   701  P34701      0.1444
     21  CAJ      -24.2720   29.2800  -40.4050 C.2   701  P34701      0.0344
     22  CAG      -23.2290   28.4960  -40.8940 C.2   701  P34701      0.0193
@<TRIPOS>BOND
     1     1     2    1
     2     3     2    1
     3     4     2    1
     4     4     5    1
     5     6     5    2
     6     5     7    1
     7     7     8    2
     8    22     8    1
     9    22    21    2
    10     8     9    1
    11    21    20    1
    12     9    10    2
    13    20    10    1
    14    20    19    2
    15    10    11    1
    16    19    17    2
    17    11    12   ar
    18    11    16   ar
    19    12    13   ar
    20    17    16    1
    21    17    18    2
    22    16    15   ar
    23    13    14   ar
    24    15    14   ar
