@<TRIPOS>MOLECULE
3gf2_SAL_A_1.pdb
 10 10 0 0 0
SMALL
GASTEIGER

@<TRIPOS>ATOM
      1  C1'        2.9440   -3.3030  -25.4070 C.2   147  SAL147      0.3909
      2  O1'        2.6870   -4.1750  -26.2120 O.co2 147  SAL147     -0.2404
      3  O2'        3.9230   -2.4180  -25.6840 O.co2 147  SAL147     -0.2404
      4  C1         2.1890   -3.2040  -24.1180 C.ar  147  SAL147      0.1186
      5  C2         1.1350   -4.1300  -23.7850 C.ar  147  SAL147      0.2020
      6  C3         0.4520   -3.9930  -22.5490 C.ar  147  SAL147      0.0422
      7  C4         0.7980   -2.9660  -21.6500 C.ar  147  SAL147      0.0033
      8  C5         1.8270   -2.0560  -21.9670 C.ar  147  SAL147      0.0004
      9  C6         2.5210   -2.1670  -23.1850 C.ar  147  SAL147      0.0098
     10  O2         0.7880   -5.1280  -24.6450 O.3   147  SAL147     -0.2863
@<TRIPOS>BOND
     1     2     1   ar
     2     3     1   ar
     3     1     4    1
     4    10     5    1
     5     4     5   ar
     6     4     9   ar
     7     5     6   ar
     8     9     8   ar
     9     6     7   ar
    10     8     7   ar
