@<TRIPOS>MOLECULE
3gf4_U5P_B_1.pdb
 21 22 0 0 0
SMALL
GASTEIGER

@<TRIPOS>ATOM
      1  N1         7.4120  -29.2150   -3.9520 N.am  392  U5P392     -0.1766
      2  C2         6.5280  -28.1290   -3.6020 C.1   392  U5P392      0.2845
      3  N3         5.1730  -28.3210   -3.6410 N.2   392  U5P392     -0.2452
      4  C4         4.6450  -29.5340   -3.9990 C.1   392  U5P392      0.2182
      5  C5         5.5010  -30.6100   -4.3520 C.2   392  U5P392      0.1242
      6  C6         6.8950  -30.4190   -4.3210 C.2   392  U5P392      0.0929
      7  O2         7.0100  -26.9940   -3.2630 O.2   392  U5P392     -0.1918
      8  O4         3.3700  -29.7120   -4.0200 O.2   392  U5P392     -0.2085
      9  C1'        8.8830  -29.0040   -3.9420 C.3   392  U5P392      0.2401
     10  C2'        9.4880  -29.0710   -2.5300 C.3   392  U5P392      0.2319
     11  O2'       10.5360  -28.0700   -2.4680 O.3   392  U5P392     -0.2157
     12  C3'       10.1710  -30.4160   -2.4940 C.3   392  U5P392      0.2158
     13  C4'       10.6370  -30.5970   -3.9680 C.3   392  U5P392      0.1801
     14  O3'       11.2640  -30.2840   -1.5710 O.3   392  U5P392     -0.2175
     15  O4'        9.6070  -29.9630   -4.7660 O.3   392  U5P392     -0.3320
     16  C5'       10.8530  -32.0700   -4.4120 C.3   392  U5P392      0.1859
     17  O5'        9.7900  -32.5560   -5.2950 O.3   392  U5P392     -0.2675
     18  P          9.2470  -34.1360   -5.2480 P.3   392  U5P392      0.5327
     19  O1P        9.7760  -34.7940   -6.5750 O.2   392  U5P392     -0.2224
     20  O2P        9.8430  -34.7460   -3.9360 O.3   392  U5P392     -0.1145
     21  O3P        7.6780  -33.9370   -5.2390 O.3   392  U5P392     -0.1145
@<TRIPOS>BOND
     1    19    18    2
     2    17    18    1
     3    17    16    1
     4    18    21    1
     5    18    20    1
     6    15    13    1
     7    15     9    1
     8    16    13    1
     9     5     6    2
    10     5     4    1
    11     6     1    1
    12     8     4    2
    13     4     3    2
    14    13    12    1
    15     1     9    1
    16     1     2   am
    17     9    10    1
    18     3     2    2
    19     2     7    2
    20    10    12    1
    21    10    11    1
    22    12    14    1
