@<TRIPOS>MOLECULE
3gf4_UPG_A_1.pdb
 36 38 0 0 0
SMALL
GASTEIGER

@<TRIPOS>ATOM
      1  N1       -27.9760  -37.7540   -0.4150 N.am  392  UPG392     -0.1766
      2  C2       -28.0290  -36.5290   -1.1320 C.1   392  UPG392      0.2845
      3  N3       -27.0180  -36.1280   -1.9120 N.2   392  UPG392     -0.2452
      4  C4       -25.9440  -36.8970   -2.0240 C.1   392  UPG392      0.2182
      5  C5       -25.8270  -38.1250   -1.3650 C.2   392  UPG392      0.1242
      6  C6       -26.8920  -38.5710   -0.5710 C.2   392  UPG392      0.0929
      7  O2       -29.0210  -35.8130   -1.0350 O.2   392  UPG392     -0.1918
      8  O4       -25.0660  -36.4620   -2.7560 O.2   392  UPG392     -0.2085
      9  C1C      -29.1600  -38.0920    0.3850 C.3   392  UPG392      0.2401
     10  C2C      -30.1050  -38.8350   -0.5510 C.3   392  UPG392      0.2319
     11  O2C      -31.4630  -38.4150   -0.3420 O.3   392  UPG392     -0.2157
     12  C3C      -29.8120  -40.2830   -0.1780 C.3   392  UPG392      0.2158
     13  C4C      -29.5200  -40.2230    1.3140 C.3   392  UPG392      0.1799
     14  O4C      -28.8780  -38.9520    1.4930 O.3   392  UPG392     -0.3320
     15  O3C      -30.8460  -41.1810   -0.5330 O.3   392  UPG392     -0.2175
     16  C5C      -28.6210  -41.3490    1.8360 C.3   392  UPG392      0.1813
     17  O5C      -27.4000  -41.3380    1.0990 O.3   392  UPG392     -0.3112
     18  PA       -26.3640  -42.5450    0.9890 P.3   392  UPG392      0.2189
     19  O1A      -25.4750  -42.2930   -0.1980 O.2   392  UPG392     -0.5170
     20  O2A      -25.6130  -42.7390    2.2890 O.3   392  UPG392     -0.4371
     21  O3A      -27.2060  -43.8790    0.7990 O.3   392  UPG392     -0.2703
     22  PB       -27.7430  -44.1310   -0.6900 P.3   392  UPG392      0.2208
     23  O1B      -29.2290  -44.4340   -0.5800 O.3   392  UPG392     -0.4371
     24  O2B      -27.4620  -43.0000   -1.6850 O.2   392  UPG392     -0.5170
     25  O3B      -26.8470  -45.4050   -1.1320 O.3   392  UPG392     -0.2857
     26  C1'      -25.9340  -45.3580   -2.2690 C.3   392  UPG392      0.2742
     27  C2'      -25.5320  -46.7880   -2.6140 C.3   392  UPG392      0.2409
     28  C3'      -24.5160  -47.3510   -1.5760 C.3   392  UPG392      0.2198
     29  C4'      -23.3280  -46.3860   -1.3770 C.3   392  UPG392      0.2144
     30  C5'      -23.8140  -44.9480   -1.1010 C.3   392  UPG392      0.1835
     31  C6'      -22.6390  -43.9670   -1.0950 C.3   392  UPG392      0.2142
     32  O2'      -26.7090  -47.6250   -2.6360 O.3   392  UPG392     -0.2149
     33  O3'      -24.0240  -48.6230   -2.0290 O.3   392  UPG392     -0.2174
     34  O4'      -22.5270  -46.8380   -0.2750 O.3   392  UPG392     -0.2176
     35  O5'      -24.7570  -44.5570   -2.1100 O.3   392  UPG392     -0.3254
     36  O6'      -21.6010  -44.3250   -2.0510 O.3   392  UPG392     -0.2176
@<TRIPOS>BOND
     1     8     4    2
     2    32    27    1
     3    27    26    1
     4    27    28    1
     5    26    35    1
     6    26    25    1
     7    35    30    1
     8    36    31    1
     9    33    28    1
    10     4     3    2
    11     4     5    1
    12     3     2    2
    13    24    22    2
    14    28    29    1
    15    29    30    1
    16    29    34    1
    17     5     6    2
    18     2     7    2
    19     2     1   am
    20    25    22    1
    21    30    31    1
    22    22    23    1
    23    22    21    1
    24     6     1    1
    25    10    11    1
    26    10    12    1
    27    10     9    1
    28    15    12    1
    29     1     9    1
    30    19    18    2
    31    12    13    1
    32     9    14    1
    33    21    18    1
    34    18    17    1
    35    18    20    1
    36    17    16    1
    37    13    14    1
    38    13    16    1
