@<TRIPOS>MOLECULE
3gfa_FMN_A_1.pdb
 31 33 0 0 0
SMALL
GASTEIGER

@<TRIPOS>ATOM
      1  N1        12.3860   48.4450   11.6240 N.2   200  FMN200     -0.2887
      2  C2        12.6240   47.2430   12.2470 C.1   200  FMN200      0.3669
      3  O2        12.1130   46.2030   11.8150 O.2   200  FMN200     -0.1744
      4  N3        13.4430   47.1980   13.3520 N.2   200  FMN200     -0.2300
      5  C4        14.0030   48.3160   13.9210 C.1   200  FMN200      0.2513
      6  O4        14.7460   48.1730   14.9040 O.2   200  FMN200     -0.2057
      7  C4A       13.7520   49.5430   13.3100 C.2   200  FMN200      0.2703
      8  N5        14.2130   50.7220   13.8540 N.2   200  FMN200     -0.3882
      9  C5A       14.1130   51.9060   13.1180 C.2   200  FMN200      0.1277
     10  C6        14.7770   53.0560   13.5550 C.3   200  FMN200      0.0820
     11  C7        14.7640   54.2400   12.8350 C.2   200  FMN200     -0.0408
     12  C7M       15.4730   55.4700   13.3610 C.3   200  FMN200      0.0265
     13  C8        14.0550   54.2600   11.6490 C.2   200  FMN200     -0.0280
     14  C8M       14.0360   55.5260   10.8480 C.3   200  FMN200      0.0304
     15  C9        13.3780   53.1370   11.2010 C.2   200  FMN200      0.0123
     16  C9A       13.3920   51.9470   11.9330 C.2   200  FMN200      0.0793
     17  N10       12.7240   50.7920   11.5040 N.pl3 200  FMN200     -0.2545
     18  C10       12.9380   49.5890   12.1550 C.2   200  FMN200      0.2449
     19  C1'       11.9750   50.8080   10.2260 C.3   200  FMN200      0.1336
     20  C2'       10.6020   51.4370   10.4140 C.3   200  FMN200      0.2048
     21  O2'        9.7310   50.5230   11.0360 O.3   200  FMN200     -0.2185
     22  C3'       10.0210   51.9020    9.0860 C.3   200  FMN200      0.2165
     23  O3'       10.8200   52.9780    8.6000 O.3   200  FMN200     -0.2175
     24  C4'        8.5670   52.3820    9.1590 C.3   200  FMN200      0.2147
     25  O4'        7.7260   51.3070    9.5750 O.3   200  FMN200     -0.2176
     26  C5'        8.0380   52.8740    7.8220 C.3   200  FMN200      0.1892
     27  O5'        8.1850   51.8990    6.7950 O.3   200  FMN200     -0.2674
     28  P          9.0580   52.1760    5.4790 P.3   200  FMN200      0.5327
     29  O1P       10.4740   52.5150    5.9530 O.3   200  FMN200     -0.1145
     30  O2P        8.4410   53.3820    4.8000 O.3   200  FMN200     -0.1145
     31  O3P        9.0100   50.9010    4.6440 O.2   200  FMN200     -0.2224
@<TRIPOS>BOND
     1    31    28    2
     2    30    28    1
     3    28    29    1
     4    28    27    1
     5    27    26    1
     6    26    24    1
     7    23    22    1
     8    22    24    1
     9    22    20    1
    10    24    25    1
    11    19    20    1
    12    19    17    1
    13    20    21    1
    14    14    13    1
    15    15    13    1
    16    15    16    2
    17    17    16    1
    18    17    18    1
    19     1    18    2
    20     1     2    2
    21    13    11    2
    22     3     2    2
    23    16     9    1
    24    18     7    1
    25     2     4    2
    26    11    12    1
    27    11    10    1
    28     9    10    1
    29     9     8    2
    30     7     8    2
    31     7     5    1
    32     4     5    2
    33     5     6    2
