@<TRIPOS>MOLECULE
3gfb_NAD_A_1.pdb
 44 48 0 0 0
SMALL
GASTEIGER

@<TRIPOS>ATOM
      1  PA        10.4510  -44.9080   23.5550 P.3   500  NAD500      0.2189
      2  O1A       10.5170  -45.1800   25.1430 O.3   500  NAD500     -0.4371
      3  O2A       11.0810  -43.5720   23.3170 O.2   500  NAD500     -0.5170
      4  O5B        8.8800  -45.0870   23.0760 O.3   500  NAD500     -0.3112
      5  C5B        7.9630  -46.1100   23.4730 C.3   500  NAD500      0.1813
      6  C4B        6.9070  -45.6620   24.5570 C.3   500  NAD500      0.1821
      7  O4B        5.5960  -45.4970   24.0630 O.3   500  NAD500     -0.3135
      8  C3B        7.0870  -44.2910   25.1550 C.3   500  NAD500      0.2184
      9  O3B        6.9730  -43.3070   24.1410 O.3   500  NAD500     -0.2174
     10  C2B        5.8220  -44.2360   26.0240 C.3   500  NAD500      0.2570
     11  O2B        5.5110  -42.8760   26.4290 O.3   500  NAD500     -0.2130
     12  C1B        4.7810  -44.8900   25.0560 C.3   500  NAD500      0.3186
     13  N9A        3.8540  -45.7870   25.9070 N.pl3 500  NAD500     -0.1439
     14  C8A        4.2090  -46.3150   27.1220 C.3   500  NAD500      0.3377
     15  N7A        3.1950  -46.9760   27.6310 N.2   500  NAD500     -0.2095
     16  C5A        2.1710  -46.8920   26.7760 C.2   500  NAD500      0.2526
     17  C6A        0.8710  -47.4200   26.7970 C.2   500  NAD500      0.4393
     18  N6A        0.5180  -48.1740   27.8460 N.pl3 500  NAD500      0.2180
     19  N1A        0.0430  -47.1620   25.7130 N.2   500  NAD500      0.0021
     20  C2A        0.4670  -46.4180   24.6790 C.3   500  NAD500      0.5254
     21  N3A        1.7010  -45.9290   24.6610 N.2   500  NAD500     -0.0055
     22  C4A        2.5720  -46.1480   25.6630 C.2   500  NAD500      0.3518
     23  O3        11.2050  -45.9570   22.5950 O.3   500  NAD500     -0.2703
     24  PN        11.2250  -45.6940   20.8820 P.3   500  NAD500      0.2189
     25  O1N        9.8390  -45.3710   20.2180 O.2   500  NAD500     -0.5170
     26  O2N       12.3080  -44.8620   20.3250 O.3   500  NAD500     -0.4371
     27  O5D       11.5160  -47.0650   20.4760 O.3   500  NAD500     -0.3112
     28  C5D       10.4280  -47.9250   20.4650 C.3   500  NAD500      0.1813
     29  C4D       11.1820  -49.1680   20.4620 C.3   500  NAD500      0.1799
     30  O4D       10.5810  -50.1220   19.6700 O.3   500  NAD500     -0.3327
     31  C3D       11.2000  -49.7470   21.9040 C.3   500  NAD500      0.2158
     32  O3D        9.9380  -50.1820   22.4350 O.3   500  NAD500     -0.2175
     33  C2D       11.9090  -51.0030   21.5450 C.3   500  NAD500      0.2309
     34  O2D       11.3360  -51.7670   22.5570 O.3   500  NAD500     -0.2158
     35  C1D       11.3190  -51.3090   20.1190 C.3   500  NAD500      0.2263
     36  N1N       12.1910  -51.7740   19.0390 N.pl3 500  NAD500     -0.2787
     37  C2N       12.0220  -53.0740   18.6560 C.3   500  NAD500      0.1244
     38  C3N       12.8020  -53.6670   17.6710 C.2   500  NAD500      0.0544
     39  C7N       12.5060  -55.1180   17.3520 C.2   500  NAD500      0.2818
     40  O7N       13.3970  -55.9710   17.2330 O.2   500  NAD500     -0.2670
     41  N7N       11.2310  -55.3570   17.2470 N.am  500  NAD500     -0.0839
     42  C4N       13.7270  -52.9140   16.9710 C.2   500  NAD500      0.0033
     43  C5N       13.8960  -51.5750   17.3500 C.2   500  NAD500      0.0157
     44  C6N       13.1480  -51.0200   18.3820 C.2   500  NAD500      0.0633
@<TRIPOS>BOND
     1    42    43    1
     2    42    38    2
     3    40    39    2
     4    41    39   am
     5    43    44    2
     6    39    38    1
     7    38    37    1
     8    44    36    1
     9    37    36    1
    10    36    35    1
    11    30    35    1
    12    30    29    1
    13    35    33    1
    14    25    24    2
    15    26    24    1
    16    29    28    1
    17    29    31    1
    18    28    27    1
    19    27    24    1
    20    24    23    1
    21    33    31    1
    22    33    34    1
    23    31    32    1
    24    23     1    1
    25     4     5    1
    26     4     1    1
    27     3     1    2
    28     5     6    1
    29     1     2    1
    30     7     6    1
    31     7    12    1
    32     9     8    1
    33     6     8    1
    34    21    20    1
    35    21    22    2
    36    20    19    1
    37    12    13    1
    38    12    10    1
    39     8    10    1
    40    22    13    1
    41    22    16    1
    42    19    17    2
    43    13    14    1
    44    10    11    1
    45    16    17    1
    46    16    15    2
    47    17    18    1
    48    14    15    1
