@<TRIPOS>MOLECULE
3gfd_IYR_A_1.pdb
 14 14 0 0 0
SMALL
GASTEIGER

@<TRIPOS>ATOM
      1  N        -43.2140   36.1860   -0.6800 N.3   302  IYR302     -0.1205
      2  CA       -41.8820   36.7670   -1.0000 C.3   302  IYR302      0.1986
      3  CB       -40.9490   36.6030    0.1710 C.3   302  IYR302      0.0569
      4  CC       -40.6900   35.1950    0.7190 C.ar  302  IYR302     -0.0195
      5  CD       -41.3320   34.8390    1.9250 C.ar  302  IYR302      0.0048
      6  CE       -41.1220   33.5750    2.5300 C.ar  302  IYR302      0.0686
      7  IE       -42.0630   33.0980    4.3520 I     302  IYR302     -0.0392
      8  CF       -40.1650   32.6520    1.9160 C.ar  302  IYR302      0.2010
      9  OF       -39.9440   31.4410    2.5180 O.3   302  IYR302     -0.2861
     10  CG       -39.5110   33.0500    0.7180 C.ar  302  IYR302      0.0422
     11  CH       -39.7830   34.2970    0.1140 C.ar  302  IYR302     -0.0009
     12  C        -41.1970   36.1420   -2.1990 C.2   302  IYR302      0.3822
     13  O        -41.7670   35.2960   -2.9240 O.co2 302  IYR302     -0.2440
     14  OXT      -40.0180   36.4590   -2.4790 O.co2 302  IYR302     -0.2440
@<TRIPOS>BOND
     1    13    12   ar
     2    14    12   ar
     3    12     2    1
     4     2     1    1
     5     2     3    1
     6    11    10   ar
     7    11     4   ar
     8     3     4    1
     9    10     8   ar
    10     4     5   ar
    11     8     9    1
    12     8     6   ar
    13     5     6   ar
    14     6     7    1
