@<TRIPOS>MOLECULE
3gfd_FMN_A_1.pdb
 31 33 0 0 0
SMALL
GASTEIGER

@<TRIPOS>ATOM
      1  N1       -40.6640   30.6580   -1.3070 N.2   301  FMN301     -0.2887
      2  C2       -40.6810   31.8000   -2.0430 C.1   301  FMN301      0.3669
      3  O2       -39.8170   31.9240   -2.9230 O.2   301  FMN301     -0.1744
      4  N3       -41.5930   32.7540   -1.8090 N.2   301  FMN301     -0.2300
      5  C4       -42.5550   32.6870   -0.8410 C.1   301  FMN301      0.2513
      6  O4       -43.5760   33.4040   -0.6080 O.2   301  FMN301     -0.2057
      7  C4A      -42.5470   31.5240   -0.1160 C.2   301  FMN301      0.2703
      8  N5       -43.5390   31.4790    0.8560 N.2   301  FMN301     -0.3885
      9  C5A      -43.6720   30.3260    1.5700 C.2   301  FMN301      0.1233
     10  C6       -44.6790   30.2150    2.4840 C.3   301  FMN301      0.0606
     11  C7       -44.8550   29.0200    3.2500 C.3   301  FMN301      0.0111
     12  C7M      -46.1710   28.6410    3.9210 C.3   301  FMN301      0.0008
     13  C8       -43.9730   27.9330    3.0490 C.3   301  FMN301      0.0238
     14  C8M      -44.5050   26.5570    3.4340 C.3   301  FMN301      0.0047
     15  C9       -42.9360   28.0750    2.0830 C.2   301  FMN301     -0.0093
     16  C9A      -42.7660   29.2560    1.3580 C.2   301  FMN301      0.0750
     17  N10      -41.7360   29.3430    0.3990 N.pl3 301  FMN301     -0.2548
     18  C10      -41.6430   30.4990   -0.3500 C.2   301  FMN301      0.2449
     19  C1'      -40.7320   28.1290    0.3520 C.3   301  FMN301      0.1336
     20  C2'      -39.7420   28.1620    1.5200 C.3   301  FMN301      0.2048
     21  O2'      -38.9830   29.3400    1.4510 O.3   301  FMN301     -0.2185
     22  C3'      -38.8950   26.9210    1.4170 C.3   301  FMN301      0.2165
     23  O3'      -39.7280   25.8060    1.6680 O.3   301  FMN301     -0.2175
     24  C4'      -37.7650   26.8400    2.4330 C.3   301  FMN301      0.2147
     25  O4'      -36.8230   27.8160    2.0890 O.3   301  FMN301     -0.2176
     26  C5'      -37.1430   25.4260    2.5670 C.3   301  FMN301      0.1892
     27  O5'      -36.8180   24.9840    1.2680 O.3   301  FMN301     -0.2674
     28  P        -37.2900   23.5780    0.6820 P.3   301  FMN301      0.5327
     29  O1P      -36.4570   23.2910   -0.5560 O.2   301  FMN301     -0.2224
     30  O2P      -38.7740   23.6790    0.2880 O.3   301  FMN301     -0.1145
     31  O3P      -37.1140   22.4590    1.6810 O.3   301  FMN301     -0.1145
@<TRIPOS>BOND
     1     3     2    2
     2     2     4    2
     3     2     1    2
     4     4     5    2
     5     1    18    2
     6     5     6    2
     7     5     7    1
     8    29    28    2
     9    18     7    1
    10    18    17    1
    11     7     8    2
    12    30    28    1
    13    19    17    1
    14    19    20    1
    15    17    16    1
    16    28    27    1
    17    28    31    1
    18     8     9    2
    19    27    26    1
    20    16     9    1
    21    16    15    2
    22    22    20    1
    23    22    23    1
    24    22    24    1
    25    21    20    1
    26     9    10    1
    27    15    13    1
    28    25    24    1
    29    24    26    1
    30    10    11    1
    31    13    11    1
    32    13    14    1
    33    11    12    1
