@<TRIPOS>MOLECULE
3gfe_P37_A_1.pdb
 33 37 0 0 0
SMALL
GASTEIGER

@<TRIPOS>ATOM
      1  N1         6.4920   28.1260   27.7220 N.am  361  P37361     -0.2034
      2  N3         0.5130   35.5450   30.4480 N.ar  361  P37361     -0.1622
      3  C4         6.9060   27.6620   25.2640 C.3   361  P37361      0.0234
      4  C5         5.6570   30.0530   28.9690 C.ar  361  P37361      0.0565
      5  C6        -2.4610   34.5920   30.4380 C.ar  361  P37361      0.1599
      6  C7        -3.8100   34.8050   30.6760 C.ar  361  P37361      0.0608
      7  C8        -4.2020   35.4450   31.8440 C.ar  361  P37361      0.1425
      8  C10       -1.8860   35.6530   32.5400 C.ar  361  P37361      0.0238
      9  C13        1.6630   33.7420   30.7530 C.ar  361  P37361      0.0669
     10  C15        0.9630   31.3180   31.9650 C.2   361  P37361      0.2365
     11  C17        2.5960   32.7020   30.8220 C.2   361  P37361      0.0724
     12  C20        4.6880   31.0440   29.1200 C.ar  361  P37361      0.0233
     13  C21        6.7110   29.9790   29.8880 C.ar  361  P37361      0.0043
     14  C22        6.7840   30.8860   30.9500 C.ar  361  P37361     -0.0026
     15  C24        5.8910   32.8600   32.2680 C.3   361  P37361      0.0326
     16  C3         7.9510   26.8820   26.0600 C.3   361  P37361      0.0234
     17  C2         6.5590   27.1170   26.6520 C.3   361  P37361      0.0957
     18  C1         5.5550   29.0750   27.7750 C.2   361  P37361      0.2648
     19  O1         4.6630   29.2070   26.9340 O.2   361  P37361     -0.2684
     20  C23        5.8010   31.8700   31.1010 C.ar  361  P37361     -0.0042
     21  C19        4.7510   31.9510   30.1820 C.ar  361  P37361      0.0771
     22  N5         3.8140   32.8980   30.3040 N.2   361  P37361     -0.2493
     23  C16        2.2430   31.4920   31.4330 C.3   361  P37361      0.1314
     24  O2         0.6590   30.2500   32.4970 O.2   361  P37361     -0.2741
     25  N4         0.0180   32.3640   31.8920 N.am  361  P37361     -0.2417
     26  C18       -1.3370   32.1420   32.4700 C.3   361  P37361      0.1215
     27  C12        0.3850   33.5870   31.2750 C.ar  361  P37361      0.1416
     28  C14        1.7030   34.9740   30.2450 C.ar  361  P37361      0.1245
     29  N2        -0.2240   34.7550   31.0490 N.ar  361  P37361     -0.2134
     30  C11       -1.4960   35.0110   31.3600 C.ar  361  P37361      0.1117
     31  C9        -3.2470   35.8670   32.7750 C.ar  361  P37361      0.0313
     32  F2        -5.5190   35.6400   32.0530 F     361  P37361     -0.2041
     33  F1        -2.0930   33.9660   29.3010 F     361  P37361     -0.2025
@<TRIPOS>BOND
     1     3    16    1
     2     3    17    1
     3    16    17    1
     4    17     1    1
     5    19    18    2
     6     1    18   am
     7    18     4    1
     8     4    12   ar
     9     4    13   ar
    10    12    21   ar
    11    33     5    1
    12    13    14   ar
    13    21    22    1
    14    21    20   ar
    15    28     2   ar
    16    28     9   ar
    17    22    11    2
    18     5     6   ar
    19     5    30   ar
    20     2    29   ar
    21     6     7   ar
    22     9    11    1
    23     9    27   ar
    24    11    23    1
    25    14    20   ar
    26    29    27   ar
    27    29    30    1
    28    20    15    1
    29    27    25    1
    30    30     8   ar
    31    23    10    1
    32     7    32    1
    33     7    31   ar
    34    25    10   am
    35    25    26    1
    36    10    24    2
    37     8    31   ar
