@<TRIPOS>MOLECULE
3gfq_FMN_A_1.pdb
 31 33 0 0 0
SMALL
GASTEIGER

@<TRIPOS>ATOM
      1  N1        10.9670  -17.7780   21.3680 N.2   200  FMN200     -0.2887
      2  C2        10.5760  -19.0980   21.3240 C.1   200  FMN200      0.3669
      3  O2        11.2480  -19.9130   20.6920 O.2   200  FMN200     -0.1744
      4  N3         9.4320  -19.5000   21.9910 N.2   200  FMN200     -0.2300
      5  C4         8.6720  -18.5900   22.7030 C.1   200  FMN200      0.2513
      6  O4         7.5370  -18.8950   23.0670 O.2   200  FMN200     -0.2057
      7  C4A        9.0700  -17.2610   22.7460 C.2   200  FMN200      0.2706
      8  N5         8.3360  -16.3210   23.4400 N.2   200  FMN200     -0.3841
      9  C5A        8.4890  -14.9940   23.0920 C.2   200  FMN200      0.1452
     10  C6         7.5080  -14.0620   23.4040 C.2   200  FMN200      0.0252
     11  C7         7.6760  -12.7290   23.0480 C.2   200  FMN200     -0.0375
     12  C7M        6.6170  -11.7220   23.3860 C.3   200  FMN200      0.0268
     13  C8         8.8250  -12.3290   22.3790 C.3   200  FMN200      0.0417
     14  C8M        8.9990  -10.8890   21.9970 C.3   200  FMN200      0.0091
     15  C9         9.8060  -13.2610   22.0650 C.2   200  FMN200     -0.0049
     16  C9A        9.6380  -14.5940   22.4230 C.2   200  FMN200      0.0795
     17  N10       10.5990  -15.5390   22.1200 N.pl3 200  FMN200     -0.2545
     18  C10       10.2180  -16.8610   22.0750 C.2   200  FMN200      0.2449
     19  C1'       11.8710  -15.1330   21.4420 C.3   200  FMN200      0.1336
     20  C2'       11.5910  -15.0140   19.9500 C.3   200  FMN200      0.2048
     21  O2'       11.3110  -16.2870   19.4140 O.3   200  FMN200     -0.2185
     22  C3'       12.7740  -14.4320   19.1990 C.3   200  FMN200      0.2165
     23  O3'       12.8100  -13.0380   19.3840 O.3   200  FMN200     -0.2175
     24  C4'       12.5980  -14.7310   17.7240 C.3   200  FMN200      0.2147
     25  O4'       13.7410  -14.2910   17.0290 O.3   200  FMN200     -0.2176
     26  C5'       11.3980  -13.9710   17.1920 C.3   200  FMN200      0.1892
     27  O5'       11.9260  -12.9350   16.3990 O.3   200  FMN200     -0.2674
     28  P         11.0380  -11.6860   15.9270 P.3   200  FMN200      0.5327
     29  O1P       11.8800  -10.4580   16.1140 O.3   200  FMN200     -0.1145
     30  O2P       10.6590  -11.8760   14.4820 O.2   200  FMN200     -0.2224
     31  O3P        9.8020  -11.5490   16.7750 O.3   200  FMN200     -0.1145
@<TRIPOS>BOND
     1    30    28    2
     2    28    29    1
     3    28    27    1
     4    28    31    1
     5    27    26    1
     6    25    24    1
     7    26    24    1
     8    24    22    1
     9    22    23    1
    10    22    20    1
    11    21    20    1
    12    20    19    1
    13     3     2    2
    14     2     1    2
    15     2     4    2
    16     1    18    2
    17    19    17    1
    18     4     5    2
    19    14    13    1
    20    15    13    1
    21    15    16    2
    22    18    17    1
    23    18     7    1
    24    17    16    1
    25    13    11    1
    26    16     9    1
    27     5     7    1
    28     5     6    2
    29     7     8    2
    30    11    12    1
    31    11    10    2
    32     9    10    1
    33     9     8    2
