@<TRIPOS>MOLECULE
3gfr_FMN_A_1.pdb
 31 33 0 0 0
SMALL
GASTEIGER

@<TRIPOS>ATOM
      1  N1         5.5060  -33.9090   18.6780 N.2   175  FMN175     -0.2887
      2  C2         6.3090  -34.9600   18.2850 C.1   175  FMN175      0.3669
      3  O2         6.6500  -35.8070   19.1070 O.2   175  FMN175     -0.1744
      4  N3         6.7320  -35.0620   16.9740 N.2   175  FMN175     -0.2300
      5  C4         6.3510  -34.1150   16.0470 C.1   175  FMN175      0.2513
      6  O4         6.8260  -34.1510   14.9140 O.2   175  FMN175     -0.2057
      7  C4A        5.5400  -33.0540   16.4390 C.2   175  FMN175      0.2706
      8  N5         5.1510  -32.0960   15.5260 N.2   175  FMN175     -0.3841
      9  C5A        4.5100  -30.9530   15.9590 C.2   175  FMN175      0.1452
     10  C6         4.2810  -29.9020   15.0760 C.2   175  FMN175      0.0252
     11  C7         3.6380  -28.7520   15.5160 C.2   175  FMN175     -0.0375
     12  C7M        3.3960  -27.6190   14.5640 C.3   175  FMN175      0.0268
     13  C8         3.2200  -28.6520   16.8390 C.3   175  FMN175      0.0417
     14  C8M        2.5250  -27.4120   17.3210 C.3   175  FMN175      0.0091
     15  C9         3.4480  -29.7040   17.7190 C.2   175  FMN175     -0.0049
     16  C9A        4.0920  -30.8540   17.2790 C.2   175  FMN175      0.0795
     17  N10        4.3200  -31.9000   18.1530 N.pl3 175  FMN175     -0.2545
     18  C10        5.1190  -32.9550   17.7610 C.2   175  FMN175      0.2449
     19  C1'        3.8620  -31.7920   19.5790 C.3   175  FMN175      0.1336
     20  C2'        4.9390  -31.1320   20.4360 C.3   175  FMN175      0.2048
     21  O2'        5.9530  -32.0720   20.7130 O.3   175  FMN175     -0.2185
     22  C3'        4.3490  -30.6160   21.7450 C.3   175  FMN175      0.2165
     23  O3'        3.7190  -29.3750   21.5220 O.3   175  FMN175     -0.2175
     24  C4'        5.3980  -30.4670   22.8460 C.3   175  FMN175      0.2147
     25  O4'        4.8020  -29.8990   23.9940 O.3   175  FMN175     -0.2176
     26  C5'        6.5840  -29.5930   22.4520 C.3   175  FMN175      0.1892
     27  O5'        6.1600  -28.4150   21.8020 O.3   175  FMN175     -0.2674
     28  P          5.8630  -27.0630   22.6270 P.3   175  FMN175      0.5327
     29  O1P        4.8590  -27.3580   23.7170 O.3   175  FMN175     -0.1145
     30  O2P        7.1410  -26.5780   23.2720 O.3   175  FMN175     -0.1145
     31  O3P        5.3270  -25.9970   21.7020 O.2   175  FMN175     -0.2224
@<TRIPOS>BOND
     1    12    11    1
     2     6     5    2
     3    10    11    2
     4    10     9    1
     5    11    13    1
     6     8     9    2
     7     8     7    2
     8     9    16    1
     9     5     7    1
    10     5     4    2
    11     7    18    1
    12    13    14    1
    13    13    15    1
    14     4     2    2
    15    16    15    2
    16    16    17    1
    17    18    17    1
    18    18     1    2
    19    17    19    1
    20     2     1    2
    21     2     3    2
    22    19    20    1
    23    20    21    1
    24    20    22    1
    25    23    22    1
    26    31    28    2
    27    22    24    1
    28    27    26    1
    29    27    28    1
    30    26    24    1
    31    28    30    1
    32    28    29    1
    33    24    25    1
