@<TRIPOS>MOLECULE
3gfs_FMN_A_1.pdb
 31 33 0 0 0
SMALL
GASTEIGER

@<TRIPOS>ATOM
      1  N1       -21.8490  -26.2030  -29.2100 N.2   200  FMN200     -0.2887
      2  C2       -21.6800  -27.5370  -29.5190 C.1   200  FMN200      0.3669
      3  O2       -22.1050  -27.9800  -30.5860 O.2   200  FMN200     -0.1744
      4  N3       -21.0310  -28.3770  -28.6350 N.2   200  FMN200     -0.2300
      5  C4       -20.5500  -27.8940  -27.4360 C.1   200  FMN200      0.2513
      6  O4       -20.1700  -28.6800  -26.5670 O.2   200  FMN200     -0.2057
      7  C4A      -20.7190  -26.5510  -27.1230 C.2   200  FMN200      0.2706
      8  N5       -20.2420  -26.0520  -25.9270 N.2   200  FMN200     -0.3841
      9  C5A      -20.6170  -24.7870  -25.5220 C.2   200  FMN200      0.1452
     10  C6       -20.3430  -24.3550  -24.2290 C.2   200  FMN200      0.0252
     11  C7       -20.7240  -23.0800  -23.8270 C.2   200  FMN200     -0.0375
     12  C7M      -20.4300  -22.6120  -22.4320 C.3   200  FMN200      0.0268
     13  C8       -21.3800  -22.2370  -24.7170 C.3   200  FMN200      0.0417
     14  C8M      -21.7920  -20.8600  -24.2860 C.3   200  FMN200      0.0091
     15  C9       -21.6520  -22.6700  -26.0100 C.2   200  FMN200     -0.0049
     16  C9A      -21.2720  -23.9440  -26.4140 C.2   200  FMN200      0.0795
     17  N10      -21.5450  -24.3760  -27.6980 N.pl3 200  FMN200     -0.2545
     18  C10      -21.3710  -25.7070  -28.0150 C.2   200  FMN200      0.2449
     19  C1'      -22.2660  -23.4680  -28.6530 C.3   200  FMN200      0.1336
     20  C2'      -23.7720  -23.4870  -28.3960 C.3   200  FMN200      0.2048
     21  O2'      -24.3050  -24.7120  -28.8490 O.3   200  FMN200     -0.2185
     22  C3'      -24.4380  -22.3200  -29.1240 C.3   200  FMN200      0.2165
     23  O3'      -24.2900  -21.1400  -28.3640 O.3   200  FMN200     -0.2175
     24  C4'      -25.9190  -22.5500  -29.4200 C.3   200  FMN200      0.2147
     25  O4'      -26.4680  -21.3760  -29.9770 O.3   200  FMN200     -0.2176
     26  C5'      -26.7520  -22.9320  -28.2000 C.3   200  FMN200      0.1892
     27  O5'      -26.4730  -22.1190  -27.0810 O.3   200  FMN200     -0.2674
     28  P        -27.4230  -20.8710  -26.7050 P.3   200  FMN200      0.5327
     29  O1P      -27.3630  -19.8700  -27.8330 O.2   200  FMN200     -0.2224
     30  O2P      -28.8490  -21.3480  -26.5640 O.3   200  FMN200     -0.1145
     31  O3P      -26.9850  -20.2400  -25.4060 O.3   200  FMN200     -0.1145
@<TRIPOS>BOND
     1     3     2    2
     2    25    24    1
     3     2     1    2
     4     2     4    2
     5    24    22    1
     6    24    26    1
     7     1    18    2
     8    22    20    1
     9    22    23    1
    10    21    20    1
    11    19    20    1
    12    19    17    1
    13     4     5    2
    14    26    27    1
    15    18    17    1
    16    18     7    1
    17    29    28    2
    18    17    16    1
    19     5     7    1
    20     5     6    2
    21     7     8    2
    22    27    28    1
    23    28    30    1
    24    28    31    1
    25    16    15    2
    26    16     9    1
    27    15    13    1
    28     8     9    2
    29     9    10    1
    30    13    14    1
    31    13    11    1
    32    10    11    2
    33    11    12    1
