@<TRIPOS>MOLECULE
3gft_GNP_A_1.pdb
 32 34 0 0 0
SMALL
GASTEIGER

@<TRIPOS>ATOM
      1  PG        70.0290  107.6740    2.1340 P.3   201  GNP201      0.4884
      2  O1G       70.1040  106.2020    1.8970 O.3   201  GNP201     -0.1240
      3  O2G       70.3550  108.0510    3.5730 O.3   201  GNP201     -0.1240
      4  O3G       70.8740  108.3010    1.1010 O.2   201  GNP201     -0.2331
      5  N3B       68.5290  108.2050    1.8090 N.3   201  GNP201     -0.0163
      6  PB        67.2160  108.0620    2.7260 P.3   201  GNP201      0.4669
      7  O1B       67.5270  108.1850    4.1670 O.3   201  GNP201     -0.1253
      8  O2B       66.6020  106.7880    2.3690 O.2   201  GNP201     -0.2351
      9  O3A       66.2480  109.1990    2.2960 O.3   201  GNP201     -0.2360
     10  PA        65.7920  110.5450    2.9820 P.3   201  GNP201      0.2220
     11  O1A       64.9990  110.2470    4.1940 O.3   201  GNP201     -0.4370
     12  O2A       66.8820  111.5190    3.0660 O.2   201  GNP201     -0.5170
     13  O5'       64.7810  111.1970    1.9860 O.3   201  GNP201     -0.3111
     14  C5'       65.2320  111.5750    0.6650 C.3   201  GNP201      0.1813
     15  C4'       64.3040  112.6270    0.1240 C.3   201  GNP201      0.1799
     16  O4'       62.9560  112.0710    0.0690 O.3   201  GNP201     -0.3326
     17  C3'       64.2030  113.8820    0.9950 C.3   201  GNP201      0.2158
     18  O3'       64.1870  115.0400    0.1750 O.3   201  GNP201     -0.2175
     19  C2'       62.9050  113.6700    1.7770 C.3   201  GNP201      0.2310
     20  O2'       62.2410  114.8440    2.1700 O.3   201  GNP201     -0.2158
     21  C1'       62.0460  112.9160    0.7690 C.3   201  GNP201      0.2293
     22  N9        60.9830  112.0720    1.3650 N.pl3 201  GNP201     -0.2354
     23  C8        61.1900  111.0370    2.2190 C.3   201  GNP201      0.2246
     24  N7        60.0970  110.4400    2.5820 N.2   201  GNP201     -0.2322
     25  C5        59.0770  111.1310    1.9160 C.2   201  GNP201      0.2182
     26  C6        57.6630  110.9450    1.9270 C.1   201  GNP201      0.2372
     27  O6        56.9860  110.1380    2.5290 O.2   201  GNP201     -0.2069
     28  N1        57.0080  111.8440    1.1340 N.2   201  GNP201     -0.2485
     29  C2        57.6090  112.8320    0.4060 C.1   201  GNP201      0.2531
     30  N2        56.7660  113.6030   -0.2980 N.pl3 201  GNP201     -0.0226
     31  N3        58.9170  113.0200    0.3740 N.2   201  GNP201     -0.3074
     32  C4        59.6010  112.1320    1.1520 C.2   201  GNP201      0.2300
@<TRIPOS>BOND
     1    30    29    1
     2    16    15    1
     3    16    21    1
     4    15    14    1
     5    15    17    1
     6    18    17    1
     7    31    29    2
     8    31    32    2
     9    29    28    2
    10    14    13    1
    11    21    22    1
    12    21    19    1
    13    17    19    1
    14     4     1    2
    15    28    26    2
    16    32    22    1
    17    32    25    1
    18    22    23    1
    19    19    20    1
    20     5     1    1
    21     5     6    1
    22     2     1    1
    23    25    26    1
    24    25    24    2
    25    26    27    2
    26    13    10    1
    27     1     3    1
    28    23    24    1
    29     9     6    1
    30     9    10    1
    31     8     6    2
    32     6     7    1
    33    10    12    2
    34    10    11    1
