@<TRIPOS>MOLECULE
3gfw_S22_A_1.pdb
 38 42 0 0 0
SMALL
GASTEIGER

@<TRIPOS>ATOM
      1  CAT       -2.2920   12.3510   48.5210 C.3     1  S221        0.0934
      2  CAU       -1.7470   10.9210   48.7510 C.3     1  S221        0.0543
      3  CAV       -2.2850    9.8800   47.7480 C.3     1  S221        0.1554
      4  OAY       -3.3550    9.1490   48.3800 O.3     1  S221       -0.2230
      5  CAW       -2.8100   10.5380   46.4520 C.3     1  S221        0.0543
      6  CAX       -2.0170   11.7920   46.0290 C.3     1  S221        0.0934
      7  NAS       -1.9310   12.7640   47.1450 N.pl3   1  S221       -0.3072
      8  CAN       -1.5270   14.0580   46.8590 C.ar    1  S221        0.0510
      9  CAO       -1.2660   14.9650   47.8760 C.ar    1  S221        0.0527
     10  CAP       -0.8830   16.2600   47.5310 C.ar    1  S221        0.1551
     11  OAQ       -0.6070   17.1720   48.5150 O.3     1  S221       -0.4701
     12  CAR       -0.8830   16.6860   49.8340 C.3     1  S221        0.2525
     13  CAM       -1.4290   14.4230   45.5220 C.ar    1  S221        0.0161
     14  CAL       -1.0380   15.7020   45.1860 C.ar    1  S221        0.0209
     15  CAK       -0.7550   16.6380   46.1770 C.ar    1  S221        0.1070
     16  NAJ       -0.3750   17.9060   45.8540 N.pl3   1  S221       -0.1797
     17  CAA        0.3840   18.2870   44.7890 C.2     1  S221        0.2162
     18  CAB        1.0180   17.3950   43.9300 C.2     1  S221        0.0676
     19  NAF        0.5310   19.6160   44.5660 N.2     1  S221       -0.3338
     20  CAE        1.2550   20.1030   43.5440 C.1     1  S221        0.0859
     21  NAI        1.5050   21.3390   43.1390 N.2     1  S221       -0.2052
     22  CAH        2.2970   21.2540   42.0620 C.3     1  S221        0.1642
     23  CAG        2.5320   19.9740   41.7580 C.2     1  S221        0.0132
     24  CAD        1.9060   19.2380   42.6680 C.2     1  S221        0.0868
     25  CAC        1.7950   17.8710   42.8650 C.2     1  S221        0.0845
     26  NAZ        2.4120   17.0480   41.9940 N.pl3   1  S221       -0.2104
     27  CBA        2.6550   15.7530   42.2470 C.ar    1  S221        0.0875
     28  CBF        3.0110   15.3760   43.5330 C.ar    1  S221        0.0178
     29  CBE        3.2650   14.0330   43.8010 C.ar    1  S221        0.0014
     30  CBD        3.1950   13.0580   42.8040 C.ar    1  S221        0.0014
     31  CBC        2.8580   13.4320   41.5160 C.ar    1  S221        0.0197
     32  CBB        2.5900   14.7760   41.2410 C.ar    1  S221        0.1207
     33  SBG        2.1300   15.1350   39.5930 S.O2    1  S221        0.0082
     34  OBH        2.7300   14.0920   38.7050 O.2     1  S221       -0.1686
     35  OBI        2.5300   16.5440   39.2420 O.2     1  S221       -0.1686
     36  CBJ        0.3420   14.9390   39.4500 C.3     1  S221        0.1340
     37  CBL       -0.0420   13.4670   39.6300 C.3     1  S221        0.0257
     38  CBK       -0.2900   15.7990   40.5060 C.3     1  S221        0.0257
@<TRIPOS>BOND
     1    34    33    2
     2    35    33    2
     3    36    33    1
     4    36    37    1
     5    36    38    1
     6    33    32    1
     7    32    31   ar
     8    32    27   ar
     9    31    30   ar
    10    23    22    1
    11    23    24    2
    12    26    27    1
    13    26    25    1
    14    22    21    1
    15    27    28   ar
    16    24    25    1
    17    24    20    1
    18    30    29   ar
    19    25    18    2
    20    21    20    2
    21    28    29   ar
    22    20    19    2
    23    18    17    1
    24    19    17    2
    25    17    16    1
    26    14    13   ar
    27    14    15   ar
    28    13     8   ar
    29    16    15    1
    30     6     5    1
    31     6     7    1
    32    15    10   ar
    33     5     3    1
    34     8     7    1
    35     8     9   ar
    36     7     1    1
    37    10     9   ar
    38    10    11    1
    39     3     4    1
    40     3     2    1
    41    11    12    1
    42     1     2    1
