@<TRIPOS>MOLECULE
3gfx_C2E_A_1.pdb
 46 52 0 0 0
SMALL
GASTEIGER

@<TRIPOS>ATOM
      1  P1       -24.8370   -2.6920   -0.9120 P.3   501  C2E501      0.2141
      2  O2P      -23.9410   -3.8490   -0.5500 O.3   501  C2E501     -0.4373
      3  O1P      -24.2020   -1.3910   -1.3290 O.2   501  C2E501     -0.5172
      4  O5'      -25.7740   -3.1400   -2.1430 O.3   501  C2E501     -0.3114
      5  C5'      -26.5640   -4.3240   -2.1240 C.3   501  C2E501      0.1812
      6  C4'      -28.0270   -3.9380   -1.9620 C.3   501  C2E501      0.1771
      7  O4'      -28.5280   -3.4050   -3.1890 O.3   501  C2E501     -0.3327
      8  C3'      -28.8710   -5.1650   -1.6610 C.3   501  C2E501      0.1857
      9  O3'      -29.8850   -4.8160   -0.7280 O.3   501  C2E501     -0.3112
     10  C2'      -29.5320   -5.4500   -2.9640 C.3   501  C2E501      0.2282
     11  O2'      -30.5860   -6.2590   -3.0040 O.3   501  C2E501     -0.2159
     12  C1'      -29.4430   -4.3880   -3.7550 C.3   501  C2E501      0.2292
     13  N9       -29.4850   -4.5130   -5.1160 N.pl3 501  C2E501     -0.2354
     14  C8       -28.7930   -5.3720   -5.7740 C.3   501  C2E501      0.2246
     15  N7       -29.0500   -5.2150   -7.0250 N.2   501  C2E501     -0.2322
     16  C5       -29.9400   -4.2100   -7.2010 C.2   501  C2E501      0.2182
     17  C6       -30.5590   -3.6200   -8.2960 C.1   501  C2E501      0.2372
     18  O6       -30.3300   -4.0130   -9.4580 O.2   501  C2E501     -0.2069
     19  N1       -31.4220   -2.6040   -8.0860 N.2   501  C2E501     -0.2485
     20  C2       -31.6920   -2.1570   -6.8350 C.1   501  C2E501      0.2531
     21  N2       -32.5650   -1.1340   -6.6900 N.pl3 501  C2E501     -0.0226
     22  N3       -31.1010   -2.7160   -5.7470 N.2   501  C2E501     -0.3074
     23  C4       -30.2260   -3.7380   -5.9180 C.2   501  C2E501      0.2300
     24  P11      -29.6930   -5.0480    0.8500 P.3   501  C2E501      0.2141
     25  O21      -31.1770   -5.0090    1.4630 O.3   501  C2E501     -0.4373
     26  O11      -29.1930   -6.5570    1.0810 O.2   501  C2E501     -0.5172
     27  O5A      -28.4710   -4.1920    1.4510 O.3   501  C2E501     -0.3114
     28  C5A      -28.6160   -2.9200    2.0710 C.3   501  C2E501      0.1812
     29  C4A      -27.1430   -2.6520    2.3690 C.3   501  C2E501      0.1771
     30  O4A      -26.7760   -3.2070    3.6350 O.3   501  C2E501     -0.3327
     31  C3A      -26.1500   -3.2540    1.3740 C.3   501  C2E501      0.1857
     32  O3A      -25.8530   -2.3550    0.3020 O.3   501  C2E501     -0.3112
     33  C2A      -24.9600   -3.5750    2.2320 C.3   501  C2E501      0.2282
     34  O2A      -24.2740   -2.4590    2.4780 O.3   501  C2E501     -0.2159
     35  C1A      -25.5780   -3.9640    3.3390 C.3   501  C2E501      0.2292
     36  N91      -25.1710   -5.0520    4.0530 N.pl3 501  C2E501     -0.2354
     37  C81      -25.5750   -6.2740    3.7140 C.3   501  C2E501      0.2246
     38  N71      -24.9770   -7.0930    4.6090 N.2   501  C2E501     -0.2322
     39  C51      -24.2280   -6.3470    5.4610 C.2   501  C2E501      0.2182
     40  C61      -23.4250   -6.6730    6.5490 C.1   501  C2E501      0.2372
     41  O61      -23.2910   -7.8650    6.9050 O.2   501  C2E501     -0.2069
     42  N11      -22.7880   -5.6830    7.2140 N.2   501  C2E501     -0.2485
     43  C21      -22.9200   -4.3860    6.8420 C.1   501  C2E501      0.2531
     44  N21      -22.2650   -3.4240    7.5380 N.pl3 501  C2E501     -0.0226
     45  N31      -23.6990   -4.0440    5.7850 N.2   501  C2E501     -0.3074
     46  C41      -24.3510   -5.0120    5.0950 C.2   501  C2E501      0.2300
@<TRIPOS>BOND
     1    18    17    2
     2    17    19    2
     3    17    16    1
     4    19    20    2
     5    16    15    2
     6    16    23    1
     7    15    14    1
     8    20    21    1
     9    20    22    2
    10    23    22    2
    11    23    13    1
    12    14    13    1
    13    13    12    1
    14    12     7    1
    15    12    10    1
    16     7     6    1
    17    11    10    1
    18    10     8    1
    19     4     5    1
    20     4     1    1
    21     5     6    1
    22     6     8    1
    23     8     9    1
    24     3     1    2
    25     1     2    1
    26     1    32    1
    27     9    24    1
    28    32    31    1
    29    24    26    2
    30    24    27    1
    31    24    25    1
    32    31    33    1
    33    31    29    1
    34    27    28    1
    35    28    29    1
    36    33    34    1
    37    33    35    1
    38    29    30    1
    39    35    30    1
    40    35    36    1
    41    37    36    1
    42    37    38    1
    43    36    46    1
    44    38    39    2
    45    46    39    1
    46    46    45    2
    47    39    40    1
    48    45    43    2
    49    40    41    2
    50    40    42    2
    51    43    42    2
    52    43    44    1
