@<TRIPOS>MOLECULE
3gfx_FMN_A_1.pdb
 31 33 0 0 0
SMALL
GASTEIGER

@<TRIPOS>ATOM
      1  N1       -37.7980   20.8290  -33.7320 N.2   1137  FMN1137    -0.2887
      2  C2       -37.7600   22.1550  -33.3540 C.1   1137  FMN1137     0.3669
      3  O2       -38.8040   22.7990  -33.2820 O.2   1137  FMN1137    -0.1744
      4  N3       -36.5560   22.7540  -33.0440 N.2   1137  FMN1137    -0.2300
      5  C4       -35.3820   22.0310  -33.1170 C.1   1137  FMN1137     0.2513
      6  O4       -34.3100   22.5840  -32.8660 O.2   1137  FMN1137    -0.2057
      7  C4A      -35.4170   20.6930  -33.5060 C.2   1137  FMN1137     0.2706
      8  N5       -34.2480   19.9640  -33.5830 N.2   1137  FMN1137    -0.3841
      9  C5A      -34.2740   18.6370  -33.9630 C.2   1137  FMN1137     0.1452
     10  C6       -33.0820   17.9220  -34.0340 C.2   1137  FMN1137     0.0252
     11  C7       -33.0810   16.5830  -34.4170 C.2   1137  FMN1137    -0.0375
     12  C7M      -31.7840   15.9810  -34.8770 C.3   1137  FMN1137     0.0268
     13  C8       -34.2960   15.9610  -34.7260 C.3   1137  FMN1137     0.0417
     14  C8M      -34.3530   14.4960  -35.0530 C.3   1137  FMN1137     0.0091
     15  C9       -35.4890   16.6810  -34.6540 C.2   1137  FMN1137    -0.0049
     16  C9A      -35.4880   18.0240  -34.2720 C.2   1137  FMN1137     0.0795
     17  N10      -36.6730   18.7490  -34.1930 N.pl3 1137  FMN1137    -0.2545
     18  C10      -36.6340   20.0850  -33.8130 C.2   1137  FMN1137     0.2449
     19  C1'      -37.9930   18.0840  -34.4930 C.3   1137  FMN1137     0.1336
     20  C2'      -38.7600   17.7340  -33.2130 C.3   1137  FMN1137     0.2048
     21  O2'      -38.2600   16.5330  -32.6730 O.3   1137  FMN1137    -0.2185
     22  C3'      -40.2650   17.5830  -33.4520 C.3   1137  FMN1137     0.2165
     23  O3'      -40.4990   16.7910  -34.5970 O.3   1137  FMN1137    -0.2175
     24  C4'      -40.9880   18.9230  -33.6040 C.3   1137  FMN1137     0.2147
     25  O4'      -40.6160   19.8070  -32.5670 O.3   1137  FMN1137    -0.2176
     26  C5'      -42.4990   18.7160  -33.5790 C.3   1137  FMN1137     0.1892
     27  O5'      -43.1570   19.9420  -33.8000 O.3   1137  FMN1137    -0.2674
     28  P        -43.9310   20.2370  -35.1830 P.3   1137  FMN1137     0.5327
     29  O1P      -44.9200   19.1190  -35.4330 O.3   1137  FMN1137    -0.1145
     30  O2P      -44.6630   21.5560  -35.0720 O.3   1137  FMN1137    -0.1145
     31  O3P      -42.9360   20.3050  -36.3210 O.2   1137  FMN1137    -0.2224
@<TRIPOS>BOND
     1    31    28    2
     2    29    28    1
     3    28    30    1
     4    28    27    1
     5    14    13    1
     6    12    11    1
     7    13    15    1
     8    13    11    1
     9    15    16    2
    10    23    22    1
    11    19    17    1
    12    19    20    1
    13    11    10    2
    14    16    17    1
    15    16     9    1
    16    17    18    1
    17    10     9    1
    18     9     8    2
    19    18     1    2
    20    18     7    1
    21    27    26    1
    22     1     2    2
    23    24    26    1
    24    24    22    1
    25    24    25    1
    26     8     7    2
    27     7     5    1
    28    22    20    1
    29     2     3    2
    30     2     4    2
    31    20    21    1
    32     5     4    2
    33     5     6    2
