@<TRIPOS>MOLECULE
3gfy_C2E_A_1.pdb
 46 52 0 0 0
SMALL
GASTEIGER

@<TRIPOS>ATOM
      1  P1       -24.1890   -2.7240   -1.0680 P.3   501  C2E501      0.2141
      2  O2P      -23.2870   -3.8710   -0.7050 O.3   501  C2E501     -0.4373
      3  O1P      -23.5450   -1.4710   -1.6100 O.2   501  C2E501     -0.5172
      4  O5'      -25.2100   -3.1720   -2.2250 O.3   501  C2E501     -0.3114
      5  C5'      -26.0520   -4.3100   -2.1470 C.3   501  C2E501      0.1812
      6  C4'      -27.4800   -3.8020   -2.0230 C.3   501  C2E501      0.1771
      7  O4'      -27.9370   -3.2810   -3.2700 O.3   501  C2E501     -0.3327
      8  C3'      -28.4240   -4.9360   -1.6670 C.3   501  C2E501      0.1857
      9  O3'      -29.3820   -4.4340   -0.7530 O.3   501  C2E501     -0.3112
     10  C2'      -29.1290   -5.2270   -2.9410 C.3   501  C2E501      0.2282
     11  O2'      -30.2730   -5.9070   -2.9000 O.3   501  C2E501     -0.2159
     12  C1'      -28.9680   -4.1890   -3.7530 C.3   501  C2E501      0.2292
     13  N9       -29.0940   -4.3130   -5.0990 N.pl3 501  C2E501     -0.2354
     14  C8       -28.4550   -5.1740   -5.7970 C.3   501  C2E501      0.2246
     15  N7       -28.7880   -5.0030   -7.0250 N.2   501  C2E501     -0.2322
     16  C5       -29.6670   -3.9820   -7.1380 C.2   501  C2E501      0.2182
     17  C6       -30.3370   -3.3740   -8.1860 C.1   501  C2E501      0.2372
     18  O6       -30.1760   -3.7710   -9.3620 O.2   501  C2E501     -0.2069
     19  N1       -31.1680   -2.3430   -7.9080 N.2   501  C2E501     -0.2485
     20  C2       -31.3440   -1.9080   -6.6360 C.1   501  C2E501      0.2531
     21  N2       -32.1800   -0.8750   -6.4040 N.pl3 501  C2E501     -0.0226
     22  N3       -30.7000   -2.4850   -5.5950 N.2   501  C2E501     -0.3074
     23  C4       -29.8630   -3.5190   -5.8390 C.2   501  C2E501      0.2300
     24  P11      -29.1860   -4.6970    0.8110 P.3   501  C2E501      0.2141
     25  O21      -30.6480   -4.5920    1.4610 O.3   501  C2E501     -0.4373
     26  O11      -28.7720   -6.2390    0.9900 O.2   501  C2E501     -0.5172
     27  O5A      -27.9010   -3.9130    1.3850 O.3   501  C2E501     -0.3114
     28  C5A      -27.9580   -2.6340    2.0050 C.3   501  C2E501      0.1812
     29  C4A      -26.4660   -2.3870    2.2230 C.3   501  C2E501      0.1771
     30  O4A      -26.0910   -2.7730    3.5500 O.3   501  C2E501     -0.3327
     31  C3A      -25.4980   -3.1180    1.2850 C.3   501  C2E501      0.1857
     32  O3A      -25.1330   -2.2980    0.1740 O.3   501  C2E501     -0.3112
     33  C2A      -24.3310   -3.4050    2.1790 C.3   501  C2E501      0.2282
     34  O2A      -23.6250   -2.2860    2.3110 O.3   501  C2E501     -0.2159
     35  C1A      -24.9670   -3.6490    3.3170 C.3   501  C2E501      0.2292
     36  N91      -24.6460   -4.7290    4.0840 N.pl3 501  C2E501     -0.2354
     37  C81      -25.1110   -5.9270    3.7470 C.3   501  C2E501      0.2246
     38  N71      -24.5960   -6.7710    4.6660 N.2   501  C2E501     -0.2322
     39  C51      -23.8260   -6.0600    5.5260 C.2   501  C2E501      0.2182
     40  C61      -23.0800   -6.4320    6.6330 C.1   501  C2E501      0.2372
     41  O61      -23.0420   -7.6300    6.9940 O.2   501  C2E501     -0.2069
     42  N11      -22.3950   -5.4850    7.3100 N.2   501  C2E501     -0.2485
     43  C21      -22.4250   -4.1880    6.9300 C.1   501  C2E501      0.2531
     44  N21      -21.7190   -3.2880    7.6540 N.pl3 501  C2E501     -0.0226
     45  N31      -23.1480   -3.7950    5.8460 N.2   501  C2E501     -0.3074
     46  C41      -23.8470   -4.7250    5.1430 C.2   501  C2E501      0.2300
@<TRIPOS>BOND
     1    18    17    2
     2    17    19    2
     3    17    16    1
     4    19    20    2
     5    16    15    2
     6    16    23    1
     7    15    14    1
     8    20    21    1
     9    20    22    2
    10    23    22    2
    11    23    13    1
    12    14    13    1
    13    13    12    1
    14    12     7    1
    15    12    10    1
    16     7     6    1
    17    10    11    1
    18    10     8    1
    19     4     5    1
    20     4     1    1
    21     5     6    1
    22     6     8    1
    23     8     9    1
    24     3     1    2
    25     1     2    1
    26     1    32    1
    27     9    24    1
    28    32    31    1
    29    24    26    2
    30    24    27    1
    31    24    25    1
    32    31    33    1
    33    31    29    1
    34    27    28    1
    35    28    29    1
    36    33    34    1
    37    33    35    1
    38    29    30    1
    39    35    30    1
    40    35    36    1
    41    37    36    1
    42    37    38    1
    43    36    46    1
    44    38    39    2
    45    46    39    1
    46    46    45    2
    47    39    40    1
    48    45    43    2
    49    40    41    2
    50    40    42    2
    51    43    42    2
    52    43    44    1
