@<TRIPOS>MOLECULE
3gfy_FMN_A_1.pdb
 31 33 0 0 0
SMALL
GASTEIGER

@<TRIPOS>ATOM
      1  N1       -37.7460   20.9540  -33.3370 N.2   504  FMN504     -0.2887
      2  C2       -37.7300   22.2900  -32.9990 C.1   504  FMN504      0.3669
      3  O2       -38.7900   22.9000  -32.9270 O.2   504  FMN504     -0.1744
      4  N3       -36.5380   22.9310  -32.7290 N.2   504  FMN504     -0.2300
      5  C4       -35.3540   22.2280  -32.8020 C.1   504  FMN504      0.2513
      6  O4       -34.3120   22.7710  -32.4450 O.2   504  FMN504     -0.2057
      7  C4A      -35.3680   20.8790  -33.1520 C.2   504  FMN504      0.2706
      8  N5       -34.1890   20.1720  -33.2370 N.2   504  FMN504     -0.3841
      9  C5A      -34.1910   18.8350  -33.5790 C.2   504  FMN504      0.1452
     10  C6       -32.9830   18.1500  -33.6530 C.2   504  FMN504      0.0252
     11  C7       -32.9560   16.8020  -33.9960 C.2   504  FMN504     -0.0375
     12  C7M      -31.6360   16.1660  -34.3230 C.3   504  FMN504      0.0268
     13  C8       -34.1550   16.1370  -34.2640 C.3   504  FMN504      0.0417
     14  C8M      -34.1350   14.7410  -34.8270 C.3   504  FMN504      0.0091
     15  C9       -35.3680   16.8280  -34.1840 C.2   504  FMN504     -0.0049
     16  C9A      -35.3960   18.1820  -33.8430 C.2   504  FMN504      0.0795
     17  N10      -36.5940   18.8900  -33.7610 N.pl3 504  FMN504     -0.2545
     18  C10      -36.5730   20.2350  -33.4190 C.2   504  FMN504      0.2449
     19  C1'      -37.8980   18.2280  -34.1280 C.3   504  FMN504      0.1336
     20  C2'      -38.7210   17.8850  -32.8820 C.3   504  FMN504      0.2048
     21  O2'      -38.2690   16.6750  -32.3170 O.3   504  FMN504     -0.2185
     22  C3'      -40.2150   17.7600  -33.1800 C.3   504  FMN504      0.2165
     23  O3'      -40.4100   16.7860  -34.1820 O.3   504  FMN504     -0.2175
     24  C4'      -40.8580   19.0780  -33.6110 C.3   504  FMN504      0.2147
     25  O4'      -40.4060   20.1400  -32.7960 O.3   504  FMN504     -0.2176
     26  C5'      -42.3800   18.9830  -33.5330 C.3   504  FMN504      0.1892
     27  O5'      -42.9430   20.2650  -33.7060 O.3   504  FMN504     -0.2674
     28  P        -43.8840   20.5940  -34.9700 P.3   504  FMN504      0.5327
     29  O1P      -45.0470   19.6250  -34.9540 O.3   504  FMN504     -0.1145
     30  O2P      -44.3820   22.0170  -34.8730 O.3   504  FMN504     -0.1145
     31  O3P      -43.0990   20.4170  -36.2490 O.2   504  FMN504     -0.2224
@<TRIPOS>BOND
     1    31    28    2
     2    28    29    1
     3    28    30    1
     4    28    27    1
     5    14    13    1
     6    12    11    1
     7    13    15    1
     8    13    11    1
     9    15    16    2
    10    23    22    1
    11    19    17    1
    12    19    20    1
    13    11    10    2
    14    16    17    1
    15    16     9    1
    16    17    18    1
    17    27    26    1
    18    10     9    1
    19    24    26    1
    20    24    22    1
    21    24    25    1
    22     9     8    2
    23    18     1    2
    24    18     7    1
    25     1     2    2
    26     8     7    2
    27    22    20    1
    28     7     5    1
    29     2     3    2
    30     2     4    2
    31    20    21    1
    32     5     4    2
    33     5     6    2
