@<TRIPOS>MOLECULE
3gfz_FMN_A_1.pdb
 31 33 0 0 0
SMALL
GASTEIGER

@<TRIPOS>ATOM
      1  N1       -37.7030   20.9470  -33.1320 N.2   504  FMN504     -0.2887
      2  C2       -37.7190   22.2700  -32.7880 C.1   504  FMN504      0.3669
      3  O2       -38.8050   22.8320  -32.6940 O.2   504  FMN504     -0.1744
      4  N3       -36.5360   22.9560  -32.5840 N.2   504  FMN504     -0.2300
      5  C4       -35.3440   22.2760  -32.6940 C.1   504  FMN504      0.2513
      6  O4       -34.3360   22.8320  -32.2630 O.2   504  FMN504     -0.2057
      7  C4A      -35.3250   20.9270  -33.0510 C.2   504  FMN504      0.2703
      8  N5       -34.1370   20.2320  -33.1890 N.2   504  FMN504     -0.3882
      9  C5A      -34.1450   18.8940  -33.5510 C.2   504  FMN504      0.1277
     10  C6       -32.9390   18.2130  -33.6900 C.3   504  FMN504      0.0820
     11  C7       -32.9180   16.8630  -34.0420 C.2   504  FMN504     -0.0408
     12  C7M      -31.5820   16.2150  -34.3080 C.3   504  FMN504      0.0265
     13  C8       -34.1300   16.2000  -34.2470 C.2   504  FMN504     -0.0280
     14  C8M      -34.1970   14.7610  -34.6630 C.3   504  FMN504      0.0304
     15  C9       -35.3350   16.8790  -34.1040 C.2   504  FMN504      0.0123
     16  C9A      -35.3620   18.2270  -33.7590 C.2   504  FMN504      0.0793
     17  N10      -36.5630   18.9250  -33.6250 N.pl3 504  FMN504     -0.2545
     18  C10      -36.5230   20.2620  -33.2730 C.2   504  FMN504      0.2449
     19  C1'      -37.8870   18.3850  -34.1090 C.3   504  FMN504      0.1336
     20  C2'      -38.7300   17.9330  -32.9260 C.3   504  FMN504      0.2048
     21  O2'      -38.2360   16.6900  -32.4820 O.3   504  FMN504     -0.2185
     22  C3'      -40.2180   17.7870  -33.2580 C.3   504  FMN504      0.2165
     23  O3'      -40.3330   16.8810  -34.3250 O.3   504  FMN504     -0.2175
     24  C4'      -40.9380   19.0810  -33.6620 C.3   504  FMN504      0.2147
     25  O4'      -40.4660   20.1860  -32.9270 O.3   504  FMN504     -0.2176
     26  C5'      -42.4470   18.9530  -33.4740 C.3   504  FMN504      0.1892
     27  O5'      -43.0730   20.2140  -33.5820 O.3   504  FMN504     -0.2674
     28  P        -43.8860   20.6620  -34.8940 P.3   504  FMN504      0.5327
     29  O1P      -44.8240   19.5500  -35.3180 O.3   504  FMN504     -0.1145
     30  O2P      -44.6860   21.9150  -34.6170 O.3   504  FMN504     -0.1145
     31  O3P      -42.8760   20.9530  -35.9750 O.2   504  FMN504     -0.2224
@<TRIPOS>BOND
     1    31    28    2
     2    29    28    1
     3    28    30    1
     4    28    27    1
     5    14    13    1
     6    23    22    1
     7    12    11    1
     8    13    15    1
     9    13    11    2
    10    19    17    1
    11    19    20    1
    12    15    16    2
    13    11    10    1
    14    16    17    1
    15    16     9    1
    16    10     9    1
    17    24    26    1
    18    24    22    1
    19    24    25    1
    20    17    18    1
    21    27    26    1
    22     9     8    2
    23    18     1    2
    24    18     7    1
    25    22    20    1
    26     8     7    2
    27     1     2    2
    28     7     5    1
    29    20    21    1
    30     2     3    2
    31     2     4    2
    32     5     4    2
    33     5     6    2
