@<TRIPOS>MOLECULE
3gfz_C2E_A_1.pdb
 46 52 0 0 0
SMALL
GASTEIGER

@<TRIPOS>ATOM
      1  P1       -24.2760   -3.0040   -0.7660 P.3   501  C2E501      0.2141
      2  O2P      -23.2700   -3.9650   -0.1730 O.3   501  C2E501     -0.4373
      3  O1P      -23.7340   -1.7670   -1.4290 O.2   501  C2E501     -0.5172
      4  O5'      -25.0980   -3.6240   -1.9800 O.3   501  C2E501     -0.3114
      5  C5'      -26.0900   -4.6100   -1.9340 C.3   501  C2E501      0.1812
      6  C4'      -27.4750   -3.9650   -1.9600 C.3   501  C2E501      0.1771
      7  O4'      -27.9390   -3.4770   -3.2290 O.3   501  C2E501     -0.3327
      8  C3'      -28.4460   -5.0580   -1.6140 C.3   501  C2E501      0.1857
      9  O3'      -29.4370   -4.5200   -0.7860 O.3   501  C2E501     -0.3112
     10  C2'      -29.0990   -5.4180   -2.8790 C.3   501  C2E501      0.2282
     11  O2'      -30.1400   -6.2420   -2.7680 O.3   501  C2E501     -0.2159
     12  C1'      -29.0440   -4.3480   -3.6770 C.3   501  C2E501      0.2292
     13  N9       -29.1310   -4.4730   -5.0380 N.pl3 501  C2E501     -0.2354
     14  C8       -28.4040   -5.2880   -5.7140 C.3   501  C2E501      0.2246
     15  N7       -28.6880   -5.1360   -6.9720 N.2   501  C2E501     -0.2322
     16  C5       -29.6250   -4.1710   -7.1240 C.2   501  C2E501      0.2182
     17  C6       -30.2790   -3.6130   -8.2180 C.1   501  C2E501      0.2372
     18  O6       -30.0480   -3.9840   -9.3900 O.2   501  C2E501     -0.2069
     19  N1       -31.1690   -2.6420   -7.9920 N.2   501  C2E501     -0.2485
     20  C2       -31.4420   -2.2060   -6.7420 C.1   501  C2E501      0.2531
     21  N2       -32.3620   -1.2280   -6.6130 N.pl3 501  C2E501     -0.0226
     22  N3       -30.8280   -2.7310   -5.6490 N.2   501  C2E501     -0.3074
     23  C4       -29.9120   -3.7200   -5.8350 C.2   501  C2E501      0.2300
     24  P11      -29.3830   -4.8850    0.7430 P.3   501  C2E501      0.2141
     25  O21      -30.8630   -4.6400    1.2910 O.3   501  C2E501     -0.4373
     26  O11      -29.0970   -6.4430    0.8730 O.2   501  C2E501     -0.5172
     27  O5A      -28.0930   -4.2290    1.4410 O.3   501  C2E501     -0.3114
     28  C5A      -28.1470   -2.8830    1.9060 C.3   501  C2E501      0.1812
     29  C4A      -26.7000   -2.6260    2.3270 C.3   501  C2E501      0.1771
     30  O4A      -26.4900   -3.0520    3.6700 O.3   501  C2E501     -0.3327
     31  C3A      -25.5510   -3.2600    1.5430 C.3   501  C2E501      0.1857
     32  O3A      -25.2750   -2.4890    0.3820 O.3   501  C2E501     -0.3112
     33  C2A      -24.4580   -3.2680    2.5720 C.3   501  C2E501      0.2282
     34  O2A      -24.0250   -2.0220    2.8090 O.3   501  C2E501     -0.2159
     35  C1A      -25.2080   -3.7010    3.5940 C.3   501  C2E501      0.2292
     36  N91      -24.8600   -4.8210    4.2780 N.pl3 501  C2E501     -0.2354
     37  C81      -25.2890   -6.0020    3.8320 C.3   501  C2E501      0.2246
     38  N71      -24.7450   -6.9170    4.6660 N.2   501  C2E501     -0.2322
     39  C51      -23.9890   -6.2750    5.5960 C.2   501  C2E501      0.2182
     40  C61      -23.2260   -6.7280    6.6620 C.1   501  C2E501      0.2372
     41  O61      -23.1500   -7.9530    6.8980 O.2   501  C2E501     -0.2069
     42  N11      -22.5660   -5.8210    7.4320 N.2   501  C2E501     -0.2485
     43  C21      -22.6500   -4.4900    7.1510 C.1   501  C2E501      0.2531
     44  N21      -21.9930   -3.5830    7.9060 N.pl3 501  C2E501     -0.0226
     45  N31      -23.3820   -4.0330    6.1090 N.2   501  C2E501     -0.3074
     46  C41      -24.0530   -4.9070    5.3330 C.2   501  C2E501      0.2300
@<TRIPOS>BOND
     1    18    17    2
     2    17    19    2
     3    17    16    1
     4    19    20    2
     5    16    15    2
     6    16    23    1
     7    15    14    1
     8    20    21    1
     9    20    22    2
    10    23    22    2
    11    23    13    1
    12    14    13    1
    13    13    12    1
    14    12     7    1
    15    12    10    1
    16     7     6    1
    17    10    11    1
    18    10     8    1
    19     4     5    1
    20     4     1    1
    21     6     5    1
    22     6     8    1
    23     8     9    1
    24     3     1    2
    25     9    24    1
    26     1     2    1
    27     1    32    1
    28    32    31    1
    29    24    26    2
    30    24    25    1
    31    24    27    1
    32    27    28    1
    33    31    29    1
    34    31    33    1
    35    28    29    1
    36    29    30    1
    37    33    34    1
    38    33    35    1
    39    35    30    1
    40    35    36    1
    41    37    36    1
    42    37    38    1
    43    36    46    1
    44    38    39    2
    45    46    39    1
    46    46    45    2
    47    39    40    1
    48    45    43    2
    49    40    41    2
    50    40    42    2
    51    43    42    2
    52    43    44    1
