@<TRIPOS>MOLECULE
3gg0_FMN_A_1.pdb
 31 33 0 0 0
SMALL
GASTEIGER

@<TRIPOS>ATOM
      1  N1       -38.0080   20.6560  -33.3840 N.2   504  FMN504     -0.2887
      2  C2       -38.0030   21.9890  -33.0580 C.1   504  FMN504      0.3669
      3  O2       -39.0750   22.5860  -32.9480 O.2   504  FMN504     -0.1744
      4  N3       -36.8090   22.6530  -32.8510 N.2   504  FMN504     -0.2300
      5  C4       -35.6220   21.9740  -32.9660 C.1   504  FMN504      0.2513
      6  O4       -34.5690   22.5430  -32.7000 O.2   504  FMN504     -0.2057
      7  C4A      -35.6270   20.6240  -33.2990 C.2   504  FMN504      0.2706
      8  N5       -34.4440   19.9340  -33.4200 N.2   504  FMN504     -0.3841
      9  C5A      -34.4440   18.5950  -33.7510 C.2   504  FMN504      0.1452
     10  C6       -33.2330   17.9150  -33.8780 C.2   504  FMN504      0.0252
     11  C7       -33.2180   16.5630  -34.2070 C.2   504  FMN504     -0.0375
     12  C7M      -31.9110   15.9020  -34.5320 C.3   504  FMN504      0.0268
     13  C8       -34.4200   15.8870  -34.4130 C.3   504  FMN504      0.0417
     14  C8M      -34.4070   14.5250  -35.0450 C.3   504  FMN504      0.0091
     15  C9       -35.6300   16.5720  -34.2870 C.2   504  FMN504     -0.0049
     16  C9A      -35.6450   17.9290  -33.9580 C.2   504  FMN504      0.0795
     17  N10      -36.8450   18.6190  -33.8270 N.pl3 504  FMN504     -0.2545
     18  C10      -36.8290   19.9650  -33.5050 C.2   504  FMN504      0.2449
     19  C1'      -38.1370   17.9790  -34.2580 C.3   504  FMN504      0.1336
     20  C2'      -38.9850   17.6120  -33.0440 C.3   504  FMN504      0.2048
     21  O2'      -38.5600   16.3650  -32.5350 O.3   504  FMN504     -0.2185
     22  C3'      -40.4710   17.5430  -33.3980 C.3   504  FMN504      0.2165
     23  O3'      -40.6660   16.5920  -34.4160 O.3   504  FMN504     -0.2175
     24  C4'      -41.0200   18.8860  -33.8670 C.3   504  FMN504      0.2147
     25  O4'      -40.7060   19.8990  -32.9360 O.3   504  FMN504     -0.2176
     26  C5'      -42.5300   18.8070  -34.0430 C.3   504  FMN504      0.1892
     27  O5'      -43.0580   20.1080  -34.1430 O.3   504  FMN504     -0.2674
     28  P        -44.3830   20.3850  -35.0150 P.3   504  FMN504      0.5327
     29  O1P      -45.3430   19.2220  -34.8210 O.3   504  FMN504     -0.1145
     30  O2P      -45.0300   21.6720  -34.5470 O.3   504  FMN504     -0.1145
     31  O3P      -44.0090   20.5070  -36.4740 O.2   504  FMN504     -0.2224
@<TRIPOS>BOND
     1    31    28    2
     2    14    13    1
     3    28    29    1
     4    28    30    1
     5    28    27    1
     6    12    11    1
     7    23    22    1
     8    13    15    1
     9    13    11    1
    10    15    16    2
    11    19    17    1
    12    19    20    1
    13    11    10    2
    14    27    26    1
    15    26    24    1
    16    16    17    1
    17    16     9    1
    18    10     9    1
    19    24    22    1
    20    24    25    1
    21    17    18    1
    22     9     8    2
    23    18     1    2
    24    18     7    1
    25     8     7    2
    26    22    20    1
    27     1     2    2
    28     7     5    1
    29     2     3    2
    30     2     4    2
    31    20    21    1
    32     5     4    2
    33     5     6    2
