@<TRIPOS>MOLECULE
3gg0_C2E_A_1.pdb
 46 52 0 0 0
SMALL
GASTEIGER

@<TRIPOS>ATOM
      1  P1       -24.9370   -2.7160   -0.4110 P.3   501  C2E501      0.2141
      2  O2P      -24.1850   -3.8900    0.1470 O.3   501  C2E501     -0.4373
      3  O1P      -23.9640   -1.5980   -0.6710 O.2   501  C2E501     -0.5172
      4  O5'      -25.6240   -3.1570   -1.7960 O.3   501  C2E501     -0.3114
      5  C5'      -26.5090   -4.2760   -1.8460 C.3   501  C2E501      0.1812
      6  C4'      -27.9510   -3.7850   -1.7570 C.3   501  C2E501      0.1771
      7  O4'      -28.3890   -3.3390   -3.0360 O.3   501  C2E501     -0.3327
      8  C3'      -28.9010   -4.9080   -1.4160 C.3   501  C2E501      0.1857
      9  O3'      -29.9480   -4.3670   -0.6190 O.3   501  C2E501     -0.3112
     10  C2'      -29.4760   -5.2890   -2.7410 C.3   501  C2E501      0.2282
     11  O2'      -30.6880   -5.8180   -2.5850 O.3   501  C2E501     -0.2159
     12  C1'      -29.5490   -4.1390   -3.4220 C.3   501  C2E501      0.2292
     13  N9       -29.6020   -4.3230   -4.7810 N.pl3 501  C2E501     -0.2354
     14  C8       -28.9110   -5.1820   -5.4210 C.3   501  C2E501      0.2246
     15  N7       -29.2090   -5.0830   -6.6660 N.2   501  C2E501     -0.2322
     16  C5       -30.1330   -4.1100   -6.8630 C.2   501  C2E501      0.2182
     17  C6       -30.8070   -3.5800   -7.9610 C.1   501  C2E501      0.2372
     18  O6       -30.6020   -4.0010   -9.1210 O.2   501  C2E501     -0.2069
     19  N1       -31.6900   -2.5820   -7.7540 N.2   501  C2E501     -0.2485
     20  C2       -31.9280   -2.1000   -6.5020 C.1   501  C2E501      0.2531
     21  N2       -32.8220   -1.1000   -6.3400 N.pl3 501  C2E501     -0.0226
     22  N3       -31.2830   -2.6090   -5.4180 N.2   501  C2E501     -0.3074
     23  C4       -30.3890   -3.6050   -5.5870 C.2   501  C2E501      0.2300
     24  P11      -29.8140   -4.7760    0.9280 P.3   501  C2E501      0.2141
     25  O21      -31.2640   -4.8340    1.5930 O.3   501  C2E501     -0.4373
     26  O11      -29.1940   -6.2380    1.1000 O.2   501  C2E501     -0.5172
     27  O5A      -28.6470   -3.9280    1.6430 O.3   501  C2E501     -0.3114
     28  C5A      -28.8650   -2.6900    2.3130 C.3   501  C2E501      0.1812
     29  C4A      -27.4040   -2.3840    2.6400 C.3   501  C2E501      0.1771
     30  O4A      -27.0620   -2.8690    3.9500 O.3   501  C2E501     -0.3327
     31  C3A      -26.3750   -3.0220    1.7040 C.3   501  C2E501      0.1857
     32  O3A      -26.0720   -2.1510    0.6120 O.3   501  C2E501     -0.3112
     33  C2A      -25.2070   -3.2250    2.6240 C.3   501  C2E501      0.2282
     34  O2A      -24.6160   -2.0540    2.8190 O.3   501  C2E501     -0.2159
     35  C1A      -25.8150   -3.5620    3.7430 C.3   501  C2E501      0.2292
     36  N91      -25.4630   -4.6980    4.4060 N.pl3 501  C2E501     -0.2354
     37  C81      -25.8430   -5.8870    3.9590 C.3   501  C2E501      0.2246
     38  N71      -25.2560   -6.7820    4.7950 N.2   501  C2E501     -0.2322
     39  C51      -24.5030   -6.0920    5.7010 C.2   501  C2E501      0.2182
     40  C61      -23.7060   -6.4950    6.7560 C.1   501  C2E501      0.2372
     41  O61      -23.5780   -7.7110    7.0240 O.2   501  C2E501     -0.2069
     42  N11      -23.0600   -5.5600    7.4900 N.2   501  C2E501     -0.2485
     43  C21      -23.1900   -4.2410    7.2120 C.1   501  C2E501      0.2531
     44  N21      -22.5340   -3.3390    7.9760 N.pl3 501  C2E501     -0.0226
     45  N31      -23.9700   -3.8200    6.1770 N.2   501  C2E501     -0.3074
     46  C41      -24.6190   -4.7380    5.4180 C.2   501  C2E501      0.2300
@<TRIPOS>BOND
     1    18    17    2
     2    17    19    2
     3    17    16    1
     4    19    20    2
     5    16    15    2
     6    16    23    1
     7    15    14    1
     8    20    21    1
     9    20    22    2
    10    23    22    2
    11    23    13    1
    12    14    13    1
    13    13    12    1
    14    12     7    1
    15    12    10    1
    16     7     6    1
    17    10    11    1
    18    10     8    1
    19     5     4    1
    20     5     6    1
    21     4     1    1
    22     6     8    1
    23     8     9    1
    24     3     1    2
    25     9    24    1
    26     1     2    1
    27     1    32    1
    28    32    31    1
    29    24    26    2
    30    24    25    1
    31    24    27    1
    32    27    28    1
    33    31    33    1
    34    31    29    1
    35    28    29    1
    36    33    34    1
    37    33    35    1
    38    29    30    1
    39    35    30    1
    40    35    36    1
    41    37    36    1
    42    37    38    1
    43    36    46    1
    44    38    39    2
    45    46    39    1
    46    46    45    2
    47    39    40    1
    48    45    43    2
    49    40    41    2
    50    40    42    2
    51    43    42    2
    52    43    44    1
