@<TRIPOS>MOLECULE
3gg1_C2E_A_1.pdb
 46 52 0 0 0
SMALL
GASTEIGER

@<TRIPOS>ATOM
      1  P1       -24.7610   -2.7170   -0.6900 P.3   501  C2E501      0.2141
      2  O2P      -23.5200   -3.2670   -0.0280 O.3   501  C2E501     -0.4373
      3  O1P      -24.6160   -1.6350   -1.7290 O.2   501  C2E501     -0.5172
      4  O5'      -25.5500   -3.9800   -1.3020 O.3   501  C2E501     -0.3114
      5  C5'      -26.3500   -3.9030   -2.4780 C.3   501  C2E501      0.1812
      6  C4'      -27.7860   -3.5500   -2.1110 C.3   501  C2E501      0.1771
      7  O4'      -28.4670   -3.1120   -3.2850 O.3   501  C2E501     -0.3327
      8  C3'      -28.5910   -4.7450   -1.6310 C.3   501  C2E501      0.1857
      9  O3'      -29.6310   -4.3350   -0.7520 O.3   501  C2E501     -0.3112
     10  C2'      -29.2350   -5.2330   -2.8770 C.3   501  C2E501      0.2282
     11  O2'      -30.1920   -6.1490   -2.7940 O.3   501  C2E501     -0.2159
     12  C1'      -29.2950   -4.2220   -3.7360 C.3   501  C2E501      0.2292
     13  N9       -29.3770   -4.4250   -5.0810 N.pl3 501  C2E501     -0.2354
     14  C8       -28.6580   -5.2680   -5.7260 C.3   501  C2E501      0.2246
     15  N7       -28.9810   -5.1860   -6.9690 N.2   501  C2E501     -0.2322
     16  C5       -29.9400   -4.2490   -7.1540 C.2   501  C2E501      0.2182
     17  C6       -30.6430   -3.7540   -8.2460 C.1   501  C2E501      0.2372
     18  O6       -30.4440   -4.1800   -9.4010 O.2   501  C2E501     -0.2069
     19  N1       -31.5560   -2.7850   -8.0390 N.2   501  C2E501     -0.2485
     20  C2       -31.7990   -2.2930   -6.7980 C.1   501  C2E501      0.2531
     21  N2       -32.7300   -1.3230   -6.6600 N.pl3 501  C2E501     -0.0226
     22  N3       -31.1290   -2.7610   -5.7120 N.2   501  C2E501     -0.3074
     23  C4       -30.1980   -3.7360   -5.8820 C.2   501  C2E501      0.2300
     24  P11      -29.6060   -4.6860    0.8120 P.3   501  C2E501      0.2141
     25  O21      -31.1250   -4.6770    1.3210 O.3   501  C2E501     -0.4373
     26  O11      -29.1240   -6.2030    0.9530 O.2   501  C2E501     -0.5172
     27  O5A      -28.4460   -3.9160    1.6100 O.3   501  C2E501     -0.3114
     28  C5A      -28.5840   -2.6020    2.1320 C.3   501  C2E501      0.1812
     29  C4A      -27.1310   -2.3100    2.5020 C.3   501  C2E501      0.1771
     30  O4A      -26.8370   -2.8090    3.8110 O.3   501  C2E501     -0.3327
     31  C3A      -26.0470   -2.9290    1.6110 C.3   501  C2E501      0.1857
     32  O3A      -25.7370   -2.1490    0.4630 O.3   501  C2E501     -0.3112
     33  C2A      -24.9000   -3.0570    2.5680 C.3   501  C2E501      0.2282
     34  O2A      -24.4180   -1.8380    2.8240 O.3   501  C2E501     -0.2159
     35  C1A      -25.5890   -3.5090    3.6110 C.3   501  C2E501      0.2292
     36  N91      -25.1940   -4.6270    4.2890 N.pl3 501  C2E501     -0.2354
     37  C81      -25.5690   -5.8370    3.8850 C.3   501  C2E501      0.2246
     38  N71      -24.9790   -6.7000    4.7430 N.2   501  C2E501     -0.2322
     39  C51      -24.2470   -5.9920    5.6400 C.2   501  C2E501      0.2182
     40  C61      -23.4490   -6.3600    6.7200 C.1   501  C2E501      0.2372
     41  O61      -23.2970   -7.5630    7.0230 O.2   501  C2E501     -0.2069
     42  N11      -22.8350   -5.3930    7.4380 N.2   501  C2E501     -0.2485
     43  C21      -22.9830   -4.0820    7.1220 C.1   501  C2E501      0.2531
     44  N21      -22.3560   -3.1370    7.8570 N.pl3 501  C2E501     -0.0226
     45  N31      -23.7490   -3.6990    6.0750 N.2   501  C2E501     -0.3074
     46  C41      -24.3810   -4.6390    5.3350 C.2   501  C2E501      0.2300
@<TRIPOS>BOND
     1    18    17    2
     2    17    19    2
     3    17    16    1
     4    19    20    2
     5    16    15    2
     6    16    23    1
     7    15    14    1
     8    20    21    1
     9    20    22    2
    10    23    22    2
    11    23    13    1
    12    14    13    1
    13    13    12    1
    14    12     7    1
    15    12    10    1
    16     7     6    1
    17    10    11    1
    18    10     8    1
    19     5     6    1
    20     5     4    1
    21     6     8    1
    22     3     1    2
    23     8     9    1
    24     4     1    1
    25     9    24    1
    26     1     2    1
    27     1    32    1
    28    32    31    1
    29    24    26    2
    30    24    25    1
    31    24    27    1
    32    27    28    1
    33    31    29    1
    34    31    33    1
    35    28    29    1
    36    29    30    1
    37    33    34    1
    38    33    35    1
    39    35    30    1
    40    35    36    1
    41    37    36    1
    42    37    38    1
    43    36    46    1
    44    38    39    2
    45    46    39    1
    46    46    45    2
    47    39    40    1
    48    45    43    2
    49    40    41    2
    50    40    42    2
    51    43    42    2
    52    43    44    1
