@<TRIPOS>MOLECULE
3gg1_FMN_A_1.pdb
 31 33 0 0 0
SMALL
GASTEIGER

@<TRIPOS>ATOM
      1  N1       -38.0360   20.3180  -33.3870 N.2   504  FMN504     -0.2887
      2  C2       -38.0790   21.6470  -33.0470 C.1   504  FMN504      0.3669
      3  O2       -39.1660   22.2130  -32.9720 O.2   504  FMN504     -0.1744
      4  N3       -36.9080   22.3400  -32.8120 N.2   504  FMN504     -0.2300
      5  C4       -35.6970   21.6800  -32.8850 C.1   504  FMN504      0.2513
      6  O4       -34.6710   22.2960  -32.6000 O.2   504  FMN504     -0.2057
      7  C4A      -35.6520   20.3290  -33.2310 C.2   504  FMN504      0.2703
      8  N5       -34.4500   19.6530  -33.3250 N.2   504  FMN504     -0.3882
      9  C5A      -34.4290   18.3140  -33.6650 C.2   504  FMN504      0.1277
     10  C6       -33.2070   17.6540  -33.7590 C.3   504  FMN504      0.0820
     11  C7       -33.1620   16.3030  -34.0980 C.2   504  FMN504     -0.0408
     12  C7M      -31.8200   15.6640  -34.3160 C.3   504  FMN504      0.0265
     13  C8       -34.3550   15.6170  -34.3490 C.2   504  FMN504     -0.0280
     14  C8M      -34.3540   14.2200  -34.9010 C.3   504  FMN504      0.0304
     15  C9       -35.5770   16.2720  -34.2450 C.2   504  FMN504      0.0123
     16  C9A      -35.6240   17.6290  -33.9180 C.2   504  FMN504      0.0793
     17  N10      -36.8360   18.3090  -33.8180 N.pl3 504  FMN504     -0.2545
     18  C10      -36.8390   19.6490  -33.4780 C.2   504  FMN504      0.2449
     19  C1'      -38.1480   17.6880  -34.2280 C.3   504  FMN504      0.1336
     20  C2'      -38.9630   17.3170  -32.9890 C.3   504  FMN504      0.2048
     21  O2'      -38.5000   16.0940  -32.4570 O.3   504  FMN504     -0.2185
     22  C3'      -40.4540   17.1890  -33.3010 C.3   504  FMN504      0.2165
     23  O3'      -40.6290   16.3810  -34.4440 O.3   504  FMN504     -0.2175
     24  C4'      -41.1440   18.5280  -33.5460 C.3   504  FMN504      0.2147
     25  O4'      -40.7400   19.4940  -32.5980 O.3   504  FMN504     -0.2176
     26  C5'      -42.6570   18.3450  -33.4830 C.3   504  FMN504      0.1892
     27  O5'      -43.3130   19.5900  -33.5950 O.3   504  FMN504     -0.2674
     28  P        -44.2690   19.8830  -34.8580 P.3   504  FMN504      0.5327
     29  O1P      -45.4800   18.9810  -34.7420 O.3   504  FMN504     -0.1145
     30  O2P      -44.7030   21.3340  -34.8550 O.3   504  FMN504     -0.1145
     31  O3P      -43.5150   19.5750  -36.1290 O.2   504  FMN504     -0.2224
@<TRIPOS>BOND
     1    31    28    2
     2    14    13    1
     3    28    30    1
     4    28    29    1
     5    28    27    1
     6    23    22    1
     7    13    15    1
     8    13    11    2
     9    12    11    1
    10    15    16    2
    11    19    17    1
    12    19    20    1
    13    11    10    1
    14    16    17    1
    15    16     9    1
    16    17    18    1
    17    10     9    1
    18     9     8    2
    19    27    26    1
    20    24    26    1
    21    24    22    1
    22    24    25    1
    23    18     1    2
    24    18     7    1
    25     1     2    2
    26     8     7    2
    27    22    20    1
    28     7     5    1
    29     2     3    2
    30     2     4    2
    31    20    21    1
    32     5     4    2
    33     5     6    2
