@<TRIPOS>MOLECULE
3gg2_UGA_A_1.pdb
 37 39 0 0 0
SMALL
GASTEIGER

@<TRIPOS>ATOM
      1  C1'       36.1110   59.1120   89.0450 C.3   1000  UGA1000     0.2746
      2  C2'       35.3250   59.2190   87.7150 C.3   1000  UGA1000     0.2409
      3  O2'       35.1880   60.5810   87.3300 O.3   1000  UGA1000    -0.2149
      4  C3'       33.9390   58.6200   87.9820 C.3   1000  UGA1000     0.2203
      5  O3'       33.2180   58.5730   86.7610 O.3   1000  UGA1000    -0.2174
      6  C4'       34.0900   57.2090   88.5050 C.3   1000  UGA1000     0.2229
      7  O4'       32.8220   56.6090   88.7560 O.3   1000  UGA1000    -0.2171
      8  C5'       34.8280   57.2570   89.8320 C.3   1000  UGA1000     0.2529
      9  O5'       36.1180   57.7740   89.5370 O.3   1000  UGA1000    -0.3167
     10  C6'       34.8330   55.8280   90.2830 C.2   1000  UGA1000     0.3941
     11  O'P       35.3500   54.9060   89.5880 O.co2 1000  UGA1000    -0.2429
     12  O'Q       34.2260   55.6350   91.3480 O.co2 1000  UGA1000    -0.2429
     13  PB        36.3670   60.5550   91.2930 P.3   1000  UGA1000     0.2208
     14  O1B       37.7550   59.9330   91.3310 O.2   1000  UGA1000    -0.5170
     15  O2B       35.4870   60.5090   92.5070 O.3   1000  UGA1000    -0.4371
     16  O3B       35.5320   59.9230   90.0430 O.3   1000  UGA1000    -0.2857
     17  O3A       36.4710   62.1260   90.8960 O.3   1000  UGA1000    -0.2703
     18  PA        36.9770   62.9010   89.5730 P.3   1000  UGA1000     0.2189
     19  O1A       36.1410   64.1280   89.4890 O.3   1000  UGA1000    -0.4371
     20  O2A       37.1420   61.9870   88.3930 O.2   1000  UGA1000    -0.5170
     21  O5D       38.4540   63.3860   89.9730 O.3   1000  UGA1000    -0.3112
     22  C5D       39.5980   62.5620   89.9340 C.3   1000  UGA1000     0.1813
     23  C4D       40.8640   63.4240   90.0710 C.3   1000  UGA1000     0.1799
     24  O4D       41.1490   63.9880   88.7510 O.3   1000  UGA1000    -0.3320
     25  C3D       40.7680   64.5570   91.0840 C.3   1000  UGA1000     0.2158
     26  O3D       42.0420   64.6220   91.7830 O.3   1000  UGA1000    -0.2175
     27  C2D       40.5890   65.7470   90.1620 C.3   1000  UGA1000     0.2319
     28  O2D       40.9520   66.9890   90.7720 O.3   1000  UGA1000    -0.2157
     29  C1D       41.4350   65.3990   88.9630 C.3   1000  UGA1000     0.2401
     30  N1        41.0970   66.0530   87.7220 N.am  1000  UGA1000    -0.1766
     31  C6        39.8150   65.9400   87.2350 C.2   1000  UGA1000     0.0929
     32  C2        42.0530   66.7270   87.0180 C.1   1000  UGA1000     0.2845
     33  O2        43.2270   66.8370   87.4240 O.2   1000  UGA1000    -0.1918
     34  N3        41.7410   67.3160   85.8450 N.2   1000  UGA1000    -0.2452
     35  C4        40.5040   67.1860   85.3310 C.1   1000  UGA1000     0.2182
     36  O4        40.2510   67.7000   84.2130 O.2   1000  UGA1000    -0.2085
     37  C5        39.5030   66.4940   86.0070 C.2   1000  UGA1000     0.1242
@<TRIPOS>BOND
     1    36    35    2
     2    35    34    2
     3    35    37    1
     4    34    32    2
     5    37    31    2
     6     5     4    1
     7    32    33    2
     8    32    30   am
     9    31    30    1
    10     3     2    1
    11     2     4    1
    12     2     1    1
    13    30    29    1
    14     4     6    1
    15    20    18    2
    16     6     7    1
    17     6     8    1
    18    24    29    1
    19    24    23    1
    20    29    27    1
    21     1     9    1
    22     1    16    1
    23    19    18    1
    24     9     8    1
    25    18    21    1
    26    18    17    1
    27    11    10   ar
    28     8    10    1
    29    22    21    1
    30    22    23    1
    31    16    13    1
    32    23    25    1
    33    27    28    1
    34    27    25    1
    35    10    12   ar
    36    17    13    1
    37    25    26    1
    38    13    14    2
    39    13    15    1
