@<TRIPOS>MOLECULE
3ggc_H26_A_1.pdb
 19 20 0 0 0
SMALL
GASTEIGER

@<TRIPOS>ATOM
      1  OAD       21.7310   60.1660   12.0890 O.2   218  H26218     -0.4600
      2  PAT       20.6880   60.3340   13.1700 P.3   218  H26218      0.1197
      3  OAE       20.3250   61.7710   13.4730 O.3   218  H26218     -0.3571
      4  OAC       20.9540   59.4800   14.3890 O.3   218  H26218     -0.3571
      5  CAJ       19.1820   59.6540   12.4340 C.3   218  H26218      0.0909
      6  CAH       19.4320   59.5390   10.9380 C.3   218  H26218      0.1500
      7  OAN       18.7970   58.3610   10.4480 O.3   218  H26218     -0.3489
      8  CAG       17.8870   58.6630    9.3910 C.3   218  H26218      0.1928
      9  CAI       18.6020   58.5710    8.0450 C.3   218  H26218      0.2363
     10  N9        19.3670   57.3260    7.9430 N.pl3 218  H26218     -0.1647
     11  C8        20.6190   57.1440    8.3900 C.3   218  H26218      0.3364
     12  N7        21.0090   55.8750    8.1240 N.2   218  H26218     -0.2055
     13  C4        18.9500   56.1760    7.3900 C.2   218  H26218      0.3511
     14  C5        19.9850   55.2570    7.5040 C.2   218  H26218      0.2445
     15  N3        17.7900   55.7990    6.7930 N.2   218  H26218     -0.0335
     16  C2        17.6450   54.5520    6.3190 C.3   218  H26218      0.4017
     17  N1        18.6340   53.6500    6.4190 N.2   218  H26218     -0.1458
     18  C6        19.8130   53.9720    7.0070 C.1   218  H26218      0.1792
     19  O6        20.8170   53.0490    7.1070 O.2   218  H26218     -0.2203
@<TRIPOS>BOND
     1    16    17    1
     2    16    15    1
     3    17    18    2
     4    15    13    2
     5    18    19    2
     6    18    14    1
     7    13    14    1
     8    13    10    1
     9    14    12    2
    10    10     9    1
    11    10    11    1
    12     9     8    1
    13    12    11    1
    14     8     7    1
    15     7     6    1
    16     6     5    1
    17     1     2    2
    18     5     2    1
    19     2     3    1
    20     2     4    1
