@<TRIPOS>MOLECULE
3ggd_SAH_A_1.pdb
 26 28 0 0 0
SMALL
GASTEIGER

@<TRIPOS>ATOM
      1  N         13.8000   42.1540    3.8760 N.3   248  SAH248     -0.1208
      2  CA        14.6970   41.4560    2.9180 C.3   248  SAH248      0.1952
      3  CB        15.7340   40.5370    3.5980 C.3   248  SAH248      0.0422
      4  CG        15.2490   39.4280    4.5490 C.3   248  SAH248      0.0597
      5  SD        16.5880   38.3950    5.1720 S.3   248  SAH248     -0.1375
      6  C         13.9090   40.6530    1.8940 C.2   248  SAH248      0.3819
      7  O         14.4390   40.3350    0.7990 O.co2 248  SAH248     -0.2441
      8  OXT       12.7600   40.2860    2.1390 O.co2 248  SAH248     -0.2441
      9  C5'       16.9130   39.1730    6.7290 C.3   248  SAH248      0.0899
     10  C4'       17.7660   40.4680    6.5880 C.3   248  SAH248      0.1630
     11  O4'       17.9640   41.0650    7.8920 O.3   248  SAH248     -0.3153
     12  C3'       19.1870   40.3000    6.0200 C.3   248  SAH248      0.2168
     13  O3'       19.4410   41.1620    4.9240 O.3   248  SAH248     -0.2175
     14  C2'       20.1060   40.6780    7.1750 C.3   248  SAH248      0.2569
     15  O2'       21.4180   41.1550    6.8110 O.3   248  SAH248     -0.2130
     16  C1'       19.2510   41.6640    7.9490 C.3   248  SAH248      0.3185
     17  N9        19.6780   41.8570    9.3400 N.pl3 248  SAH248     -0.1439
     18  C8        20.0530   40.8580   10.1850 C.3   248  SAH248      0.3377
     19  N7        20.3550   41.3670   11.3910 N.2   248  SAH248     -0.2095
     20  C5        20.1780   42.7200   11.3020 C.2   248  SAH248      0.2526
     21  C6        20.3870   43.8400   12.2130 C.2   248  SAH248      0.4393
     22  N6        20.8490   43.5270   13.4460 N.pl3 248  SAH248      0.2180
     23  N1        20.1530   45.0950   11.8030 N.2   248  SAH248      0.0021
     24  C2        19.7200   45.3350   10.5240 C.3   248  SAH248      0.5254
     25  N3        19.5350   44.3430    9.6530 N.2   248  SAH248     -0.0055
     26  C4        19.7660   43.0530    9.9650 C.2   248  SAH248      0.3518
@<TRIPOS>BOND
     1     7     6   ar
     2     6     8   ar
     3     6     2    1
     4     2     3    1
     5     2     1    1
     6     3     4    1
     7     4     5    1
     8    13    12    1
     9     5     9    1
    10    12    10    1
    11    12    14    1
    12    10     9    1
    13    10    11    1
    14    15    14    1
    15    14    16    1
    16    11    16    1
    17    16    17    1
    18    17    26    1
    19    17    18    1
    20    25    26    2
    21    25    24    1
    22    26    20    1
    23    18    19    1
    24    24    23    1
    25    20    19    2
    26    20    21    1
    27    23    21    2
    28    21    22    1
