@<TRIPOS>MOLECULE
3ggf_GVD_A_1.pdb
 29 33 0 0 0
SMALL
GASTEIGER

@<TRIPOS>ATOM
      1  CAL       88.3090  -11.0980   93.4520 C.3   305  GVD305      0.0061
      2  CAM       87.9880  -10.2460   92.2350 C.3   305  GVD305      0.0061
      3  CBB       88.8270  -11.5120   92.0830 C.3   305  GVD305      0.0406
      4  CAX       88.1280  -12.7620   91.4810 C.2   305  GVD305      0.0951
      5  CAK       86.8310  -13.0810   91.5020 C.3   305  GVD305      0.1690
      6  NAS       88.7940  -13.6910   90.8300 N.2   305  GVD305     -0.0426
      7  NAN       87.9980  -14.5550   90.4360 N.2   305  GVD305      0.0793
      8  CAV       86.7730  -14.2510   90.8360 C.2   305  GVD305      0.3771
      9  NAR       85.7140  -15.0620   90.5270 N.pl3 305  GVD305      0.0264
     10  C6        84.4720  -15.0650   91.1080 C.2   305  GVD305      0.3285
     11  N1        84.1550  -14.2950   92.1590 N.2   305  GVD305     -0.2832
     12  C5        83.4650  -15.9160   90.6290 C.2   305  GVD305      0.0999
     13  CAJ       83.7050  -16.7710   89.5500 C.2   305  GVD305     -0.0125
     14  CAD       82.6920  -17.6050   89.0640 C.3   305  GVD305      0.0524
     15  CAC       81.4250  -17.6190   89.6580 C.2   305  GVD305     -0.0188
     16  CAI       81.1920  -16.7940   90.7550 C.2   305  GVD305      0.0290
     17  C4        82.2070  -15.9320   91.2310 C.2   305  GVD305      0.1505
     18  N3        81.9560  -15.1440   92.2810 N.2   305  GVD305     -0.3265
     19  C2        82.9240  -14.3280   92.7210 C.1   305  GVD305      0.2278
     20  NAQ       82.6250  -13.5720   93.7730 N.pl3 305  GVD305     -0.1253
     21  CAU       83.3960  -12.6260   94.2700 C.ar  305  GVD305      0.0835
     22  CAG       83.6740  -12.6590   95.6170 C.ar  305  GVD305      0.0171
     23  CAE       84.4850  -11.6630   96.1720 C.ar  305  GVD305     -0.0019
     24  CAB       86.1880   -8.3960   95.2380 C.1   305  GVD305      0.0780
     25  NAA       86.4560   -7.4960   94.5950 N.1   305  GVD305     -0.1955
     26  CAF       84.6670  -10.5660   94.0500 C.ar  305  GVD305     -0.0019
     27  CAH       83.8580  -11.5670   93.5050 C.ar  305  GVD305      0.0171
     28  CA0       85.8450   -9.5410   96.0790 C.3   305  GVD305      0.1316
     29  CAT       84.9740  -10.6090   95.4040 C.ar  305  GVD305     -0.0070
@<TRIPOS>BOND
     1    14    13    1
     2    14    15    1
     3    13    12    2
     4    15    16    2
     5     7     6    1
     6     7     8    2
     7     9     8    1
     8     9    10    1
     9    12    10    1
    10    12    17    1
    11    16    17    1
    12     6     4    2
    13     8     5    1
    14    10    11    2
    15    17    18    2
    16     4     5    1
    17     4     3    1
    18     3     2    1
    19     3     1    1
    20    11    19    2
    21     2     1    1
    22    18    19    2
    23    19    20    1
    24    27    26   ar
    25    27    21   ar
    26    20    21    1
    27    26    29   ar
    28    21    22   ar
    29    25    24    3
    30    24    28    1
    31    29    28    1
    32    29    23   ar
    33    22    23   ar
