@<TRIPOS>MOLECULE
3ggg_NAD_A_1.pdb
 44 48 0 0 0
SMALL
GASTEIGER

@<TRIPOS>ATOM
      1  PA        12.8360  -14.5310  -37.3420 P.3   3686  NAD3686     0.2189
      2  O1A       14.1340  -14.9930  -36.8010 O.3   3686  NAD3686    -0.4371
      3  O2A       11.5970  -15.2320  -37.1030 O.2   3686  NAD3686    -0.5170
      4  O5B       12.6810  -12.9860  -36.8240 O.3   3686  NAD3686    -0.3112
      5  C5B       11.5390  -12.2180  -37.1440 C.3   3686  NAD3686     0.1813
      6  C4B       11.3330  -11.1710  -36.0480 C.3   3686  NAD3686     0.1821
      7  O4B       10.4070  -10.2160  -36.5340 O.3   3686  NAD3686    -0.3135
      8  C3B       10.7220  -11.7620  -34.7580 C.3   3686  NAD3686     0.2184
      9  O3B       11.3380  -11.0080  -33.7160 O.3   3686  NAD3686    -0.2174
     10  C2B        9.2590  -11.4190  -34.8530 C.3   3686  NAD3686     0.2570
     11  O2B        8.7390  -10.9780  -33.6150 O.3   3686  NAD3686    -0.2130
     12  C1B        9.3290  -10.1110  -35.6460 C.3   3686  NAD3686     0.3186
     13  N9A        8.0590   -9.6610  -36.2570 N.pl3 3686  NAD3686    -0.1439
     14  C8A        7.0440  -10.3800  -36.8190 C.3   3686  NAD3686     0.3377
     15  N7A        6.0550   -9.5320  -37.2590 N.2   3686  NAD3686    -0.2095
     16  C5A        6.4410   -8.2750  -36.9290 C.2   3686  NAD3686     0.2526
     17  C6A        5.8050   -7.0590  -37.0630 C.2   3686  NAD3686     0.4393
     18  N6A        4.5950   -6.9820  -37.6450 N.pl3 3686  NAD3686     0.2180
     19  N1A        6.4260   -5.9570  -36.6150 N.2   3686  NAD3686     0.0021
     20  C2A        7.6680   -5.9810  -36.0050 C.3   3686  NAD3686     0.5254
     21  N3A        8.2680   -7.2190  -35.8540 N.2   3686  NAD3686    -0.0055
     22  C4A        7.6630   -8.3430  -36.2930 C.2   3686  NAD3686     0.3518
     23  O3        12.8470  -14.3920  -38.9880 O.3   3686  NAD3686    -0.2703
     24  PN        14.2050  -14.0220  -39.6990 P.3   3686  NAD3686     0.2189
     25  O1N       15.0380  -13.1220  -38.9350 O.3   3686  NAD3686    -0.4371
     26  O2N       14.8700  -15.2240  -40.1650 O.2   3686  NAD3686    -0.5170
     27  O5D       13.6970  -13.3260  -41.0750 O.3   3686  NAD3686    -0.3112
     28  C5D       13.3150  -11.9770  -41.1250 C.3   3686  NAD3686     0.1813
     29  C4D       13.5110  -11.3380  -42.4880 C.3   3686  NAD3686     0.1799
     30  O4D       14.7600  -11.6720  -43.0280 O.3   3686  NAD3686    -0.3327
     31  C3D       12.4700  -11.7540  -43.5300 C.3   3686  NAD3686     0.2158
     32  O3D       12.2630  -10.5370  -44.2190 O.3   3686  NAD3686    -0.2175
     33  C2D       13.1820  -12.7200  -44.4470 C.3   3686  NAD3686     0.2309
     34  O2D       12.6840  -12.5510  -45.7640 O.3   3686  NAD3686    -0.2158
     35  C1D       14.5750  -12.2290  -44.3510 C.3   3686  NAD3686     0.2263
     36  N1N       15.5890  -13.2450  -44.6710 N.pl3 3686  NAD3686    -0.2787
     37  C2N       15.5720  -14.4350  -44.0040 C.3   3686  NAD3686     0.1244
     38  C3N       16.4980  -15.4230  -44.2960 C.2   3686  NAD3686     0.0544
     39  C7N       16.4170  -16.7420  -43.5320 C.2   3686  NAD3686     0.2818
     40  O7N       17.0250  -17.8870  -44.0770 O.2   3686  NAD3686    -0.2670
     41  N7N       15.7620  -16.8380  -42.3480 N.am  3686  NAD3686    -0.0839
     42  C4N       17.5100  -15.1690  -45.2480 C.2   3686  NAD3686     0.0033
     43  C5N       17.5480  -13.9340  -45.8980 C.2   3686  NAD3686     0.0157
     44  C6N       16.5810  -12.9720  -45.6160 C.2   3686  NAD3686     0.0633
@<TRIPOS>BOND
     1    43    44    2
     2    43    42    1
     3    34    33    1
     4    44    36    1
     5    42    38    2
     6    36    35    1
     7    36    37    1
     8    33    35    1
     9    33    31    1
    10    35    30    1
    11    38    37    1
    12    38    39    1
    13    32    31    1
    14    40    39    2
    15    39    41   am
    16    31    29    1
    17    30    29    1
    18    29    28    1
    19    28    27    1
    20    27    24    1
    21    26    24    2
    22    24    23    1
    23    24    25    1
    24    23     1    1
    25    18    17    1
    26     1     3    2
    27     1     4    1
    28     1     2    1
    29    15    16    2
    30    15    14    1
    31     5     4    1
    32     5     6    1
    33    17    16    1
    34    17    19    2
    35    16    22    1
    36    14    13    1
    37    19    20    1
    38     7     6    1
    39     7    12    1
    40    22    13    1
    41    22    21    2
    42    13    12    1
    43     6     8    1
    44    20    21    1
    45    12    10    1
    46    10     8    1
    47    10    11    1
    48     8     9    1
