@<TRIPOS>MOLECULE
3ggg_TYR_B_1.pdb
 12 12 0 0 0
SMALL
GASTEIGER

@<TRIPOS>ATOM
      1  N         23.0910    4.6500  -12.4590 N.3   6959  TYR6959    -0.1241
      2  CA        21.7230    4.1960  -12.0550 C.3   6959  TYR6959     0.1605
      3  C         21.2970    3.0040  -12.9400 C.2   6959  TYR6959     0.2264
      4  O         22.1320    2.6210  -13.7760 O.2   6959  TYR6959    -0.2867
      5  CB        20.7010    5.3210  -12.2010 C.3   6959  TYR6959     0.0534
      6  CG        20.9570    6.5720  -11.3490 C.ar  6959  TYR6959    -0.0201
      7  CD1       20.1920    7.7440  -11.5660 C.ar  6959  TYR6959    -0.0009
      8  CD2       21.9550    6.5950  -10.3550 C.ar  6959  TYR6959    -0.0009
      9  CE1       20.3830    8.9140  -10.8030 C.ar  6959  TYR6959     0.0417
     10  CE2       22.1530    7.7530   -9.5910 C.ar  6959  TYR6959     0.0417
     11  CZ        21.3770    8.9010   -9.8120 C.ar  6959  TYR6959     0.1957
     12  OH        21.6300   10.0470   -9.0670 O.3   6959  TYR6959    -0.2866
@<TRIPOS>BOND
     1     4     3    2
     2     3     2    1
     3     1     2    1
     4     5     2    1
     5     5     6    1
     6     7     6   ar
     7     7     9   ar
     8     6     8   ar
     9     9    11   ar
    10     8    10   ar
    11    11    10   ar
    12    11    12    1
