@<TRIPOS>MOLECULE
3ggj_25H_A_1.pdb
 20 21 0 0 0
SMALL
GASTEIGER

@<TRIPOS>ATOM
      1  N1        18.7860   53.5100    6.7100 N.2   218  25H218     -0.2485
      2  C8        20.6450   57.1360    8.6610 C.3   218  25H218      0.2229
      3  C6        19.9500   53.9050    7.3010 C.1   218  25H218      0.2372
      4  N7        21.0780   55.8700    8.4050 N.2   218  25H218     -0.2323
      5  C5        20.0710   55.2070    7.7790 C.2   218  25H218      0.2181
      6  C2        17.7550   54.3900    6.5930 C.1   218  25H218      0.2531
      7  OAD       21.7210   60.0450   12.3500 O.2   218  25H218     -0.4600
      8  PAT       20.6430   60.1770   13.4040 P.3   218  25H218      0.1197
      9  OAE       20.2860   61.6220   13.7150 O.3   218  25H218     -0.3571
     10  OAC       20.8850   59.3070   14.6200 O.3   218  25H218     -0.3571
     11  CAJ       19.1100   59.5380   12.6830 C.3   218  25H218      0.0909
     12  CAH       19.3030   59.3850   11.1850 C.3   218  25H218      0.1499
     13  OAN       18.5850   58.2240   10.7680 O.3   218  25H218     -0.3515
     14  CAG       17.7700   58.4770    9.6090 C.3   218  25H218      0.1636
     15  CAI       18.5850   58.4850    8.3050 C.3   218  25H218      0.1270
     16  N9        19.3860   57.2700    8.1990 N.pl3 218  25H218     -0.2576
     17  C4        19.0000   56.0900    7.6490 C.2   218  25H218      0.2283
     18  N3        17.8480   55.6580    7.0580 N.2   218  25H218     -0.3075
     19  N2        16.6060   53.9970    6.0060 N.pl3 218  25H218     -0.0226
     20  O6        20.9690   53.0820    7.4240 O.2   218  25H218     -0.2069
@<TRIPOS>BOND
     1    19     6    1
     2     6     1    2
     3     6    18    2
     4     1     3    2
     5    18    17    2
     6     3    20    2
     7     3     5    1
     8    17     5    1
     9    17    16    1
    10     5     4    2
    11    16    15    1
    12    16     2    1
    13    15    14    1
    14     4     2    1
    15    14    13    1
    16    13    12    1
    17    12    11    1
    18     7     8    2
    19    11     8    1
    20     8     9    1
    21     8    10    1
