@<TRIPOS>MOLECULE
3ggo_ENO_B_1.pdb
 13 13 0 0 0
SMALL
GASTEIGER

@<TRIPOS>ATOM
      1  O4        23.5400    3.8870  -11.0790 O.2   3168  ENO3168    -0.2839
      2  C9        23.3640    7.6950  -11.9280 C.ar  3168  ENO3168    -0.0005
      3  C8        23.3820    8.7850  -11.0290 C.ar  3168  ENO3168     0.0417
      4  C7        24.3500    8.8040  -10.0210 C.ar  3168  ENO3168     0.1957
      5  C6        25.2100    7.7030   -9.8920 C.ar  3168  ENO3168     0.0417
      6  C5        25.1830    6.6360  -10.7740 C.ar  3168  ENO3168    -0.0005
      7  C4        24.2610    6.6150  -11.7950 C.ar  3168  ENO3168    -0.0140
      8  O3        24.4650    9.8690   -9.1420 O.3   3168  ENO3168    -0.2866
      9  C3        24.2070    5.4850  -12.7790 C.3   3168  ENO3168     0.1025
     10  C2        23.8470    4.1080  -12.2490 C.2   3168  ENO3168     0.2564
     11  C1        24.0300    2.9800  -13.1500 C.2   3168  ENO3168     0.4222
     12  O2        25.2120    2.5440  -13.3760 O.co2 3168  ENO3168    -0.2373
     13  O1        23.0210    2.4390  -13.6410 O.co2 3168  ENO3168    -0.2373
@<TRIPOS>BOND
     1    13    11   ar
     2    12    11   ar
     3    11    10    1
     4     9    10    1
     5     9     7    1
     6    10     1    2
     7     2     7   ar
     8     2     3   ar
     9     7     6   ar
    10     3     4   ar
    11     6     5   ar
    12     4     5   ar
    13     4     8    1
