@<TRIPOS>MOLECULE
3ggo_NAI_A_1.pdb
 44 48 0 0 0
SMALL
GASTEIGER

@<TRIPOS>ATOM
      1  PA        28.9670  -77.6530   43.9620 P.3   2372  NAI2372     0.2189
      2  O1A       30.2520  -76.8110   43.8610 O.2   2372  NAI2372    -0.5170
      3  O2A       27.8060  -77.1960   44.7680 O.3   2372  NAI2372    -0.4371
      4  O5B       29.1920  -79.1230   44.5590 O.3   2372  NAI2372    -0.3112
      5  C5B       30.2780  -79.9540   44.1050 C.3   2372  NAI2372     0.1813
      6  C4B       30.4360  -80.9710   45.2400 C.3   2372  NAI2372     0.1821
      7  O4B       31.3970  -81.9450   44.7470 O.3   2372  NAI2372    -0.3135
      8  C3B       31.0370  -80.3190   46.5120 C.3   2372  NAI2372     0.2184
      9  O3B       30.4680  -80.9310   47.6710 O.3   2372  NAI2372    -0.2174
     10  C2B       32.5220  -80.7570   46.4360 C.3   2372  NAI2372     0.2570
     11  O2B       33.0960  -81.0100   47.6930 O.3   2372  NAI2372    -0.2130
     12  C1B       32.3790  -82.1520   45.7530 C.3   2372  NAI2372     0.3186
     13  N9A       33.6310  -82.5910   45.1040 N.pl3 2372  NAI2372    -0.1439
     14  C8A       34.4760  -81.7960   44.4320 C.3   2372  NAI2372     0.3377
     15  N7A       35.5360  -82.4960   43.9440 N.2   2372  NAI2372    -0.2095
     16  C5A       35.3030  -83.7760   44.3120 C.2   2372  NAI2372     0.2526
     17  C6A       36.0130  -85.0440   44.1300 C.2   2372  NAI2372     0.4393
     18  N6A       37.1600  -85.0360   43.4320 N.pl3 2372  NAI2372     0.2180
     19  N1A       35.4770  -86.1530   44.6370 N.2   2372  NAI2372     0.0021
     20  C2A       34.3190  -86.1550   45.3270 C.3   2372  NAI2372     0.5254
     21  N3A       33.6070  -85.0230   45.5090 N.2   2372  NAI2372    -0.0055
     22  C4A       34.0590  -83.8350   45.0500 C.2   2372  NAI2372     0.3518
     23  O3        28.7200  -77.8660   42.3880 O.3   2372  NAI2372    -0.2703
     24  PN        27.2640  -78.1320   41.6700 P.3   2372  NAI2372     0.2189
     25  O1N       26.6190  -76.8110   41.2570 O.2   2372  NAI2372    -0.5170
     26  O2N       26.6880  -79.1200   42.6020 O.3   2372  NAI2372    -0.4371
     27  O5D       27.8350  -78.7160   40.2610 O.3   2372  NAI2372    -0.3112
     28  C5D       28.2650  -80.1030   40.2640 C.3   2372  NAI2372     0.1813
     29  C4D       28.0990  -80.7470   38.9070 C.3   2372  NAI2372     0.1799
     30  O4D       26.8100  -80.4880   38.3450 O.3   2372  NAI2372    -0.3327
     31  C3D       29.1340  -80.2970   37.8900 C.3   2372  NAI2372     0.2158
     32  O3D       29.5400  -81.4570   37.1510 O.3   2372  NAI2372    -0.2175
     33  C2D       28.3300  -79.4710   36.9330 C.3   2372  NAI2372     0.2309
     34  O2D       28.8560  -79.4890   35.6160 O.3   2372  NAI2372    -0.2158
     35  C1D       26.9340  -80.0510   37.0080 C.3   2372  NAI2372     0.2263
     36  N1N       25.8690  -79.0930   36.6760 N.pl3 2372  NAI2372    -0.2787
     37  C2N       25.7490  -77.8700   37.2910 C.3   2372  NAI2372     0.1244
     38  C3N       24.6710  -76.9800   36.9270 C.2   2372  NAI2372     0.0544
     39  C7N       24.5250  -75.6060   37.5930 C.2   2372  NAI2372     0.2818
     40  O7N       23.4710  -74.9600   37.4320 O.2   2372  NAI2372    -0.2670
     41  N7N       25.5530  -75.1460   38.3400 N.am  2372  NAI2372    -0.0839
     42  C4N       23.7080  -77.3840   35.9470 C.2   2372  NAI2372     0.0033
     43  C5N       23.8510  -78.6450   35.3400 C.2   2372  NAI2372     0.0157
     44  C6N       24.9410  -79.4700   35.7190 C.2   2372  NAI2372     0.0633
@<TRIPOS>BOND
     1    43    44    2
     2    43    42    1
     3    34    33    1
     4    44    36    1
     5    42    38    2
     6    36    35    1
     7    36    37    1
     8    38    37    1
     9    38    39    1
    10    33    35    1
    11    33    31    1
    12    35    30    1
    13    32    31    1
    14    40    39    2
    15    39    41   am
    16    31    29    1
    17    30    29    1
    18    29    28    1
    19    27    28    1
    20    27    24    1
    21    25    24    2
    22    24    23    1
    23    24    26    1
    24    23     1    1
    25    18    17    1
    26     2     1    2
    27    15    16    2
    28    15    14    1
    29     1     4    1
    30     1     3    1
    31     5     4    1
    32     5     6    1
    33    17    16    1
    34    17    19    2
    35    16    22    1
    36    14    13    1
    37    19    20    1
    38     7     6    1
    39     7    12    1
    40    22    13    1
    41    22    21    2
    42    13    12    1
    43     6     8    1
    44    20    21    1
    45    12    10    1
    46    10     8    1
    47    10    11    1
    48     8     9    1
