@<TRIPOS>MOLECULE
3ggp_HPP_B_1.pdb
 12 12 0 0 0
SMALL
GASTEIGER

@<TRIPOS>ATOM
      1  C1        23.8100    6.6500  -11.8390 C.ar  313  HPP313     -0.0214
      2  C2        24.6960    6.6610  -10.7940 C.ar  313  HPP313     -0.0010
      3  C3        24.7280    7.7600   -9.9390 C.ar  313  HPP313      0.0417
      4  C4        23.8850    8.8600  -10.1020 C.ar  313  HPP313      0.1957
      5  O4        24.0720    9.9490   -9.2430 O.3   313  HPP313     -0.2866
      6  C5        22.9200    8.8560  -11.1340 C.ar  313  HPP313      0.0417
      7  C6        22.8940    7.7250  -11.9880 C.ar  313  HPP313     -0.0010
      8  C7        23.7970    5.4160  -12.7570 C.3   313  HPP313      0.0382
      9  C8        23.1530    4.1550  -12.1800 C.3   313  HPP313      0.1187
     10  C9        23.4940    3.0260  -13.1250 C.2   313  HPP313      0.3652
     11  O1        24.6690    2.5800  -13.2430 O.co2 313  HPP313     -0.2456
     12  O2        22.5370    2.5530  -13.7640 O.co2 313  HPP313     -0.2456
@<TRIPOS>BOND
     1    12    10   ar
     2    11    10   ar
     3    10     9    1
     4     8     9    1
     5     8     1    1
     6     7     1   ar
     7     7     6   ar
     8     1     2   ar
     9     6     4   ar
    10     2     3   ar
    11     4     3   ar
    12     4     5    1
