@<TRIPOS>MOLECULE
3ggp_NAD_A_1.pdb
 44 48 0 0 0
SMALL
GASTEIGER

@<TRIPOS>ATOM
      1  PA        28.8720  -77.4530   43.7460 P.3   312  NAD312      0.2189
      2  O1A       30.0130  -76.5370   43.6910 O.2   312  NAD312     -0.5170
      3  O2A       27.8100  -77.1800   44.7280 O.3   312  NAD312     -0.4371
      4  O5B       29.2550  -78.8990   44.3230 O.3   312  NAD312     -0.3112
      5  C5B       30.2990  -79.6670   43.8070 C.3   312  NAD312      0.1813
      6  C4B       30.3310  -80.6720   44.9480 C.3   312  NAD312      0.1821
      7  O4B       31.1850  -81.7440   44.5360 O.3   312  NAD312     -0.3135
      8  C3B       30.9670  -80.0380   46.2200 C.3   312  NAD312      0.2184
      9  O3B       30.3790  -80.6180   47.3760 O.3   312  NAD312     -0.2174
     10  C2B       32.4160  -80.5270   46.1730 C.3   312  NAD312      0.2570
     11  O2B       32.8790  -80.7740   47.4780 O.3   312  NAD312     -0.2130
     12  C1B       32.2360  -81.9360   45.4940 C.3   312  NAD312      0.3186
     13  N9A       33.4900  -82.4330   44.8890 N.pl3 312  NAD312     -0.1439
     14  C8A       34.4330  -81.6860   44.2140 C.3   312  NAD312      0.3377
     15  N7A       35.4480  -82.4750   43.8370 N.2   312  NAD312     -0.2095
     16  C5A       35.1310  -83.7490   44.2530 C.2   312  NAD312      0.2526
     17  C6A       35.7990  -84.9530   44.1340 C.2   312  NAD312      0.4393
     18  N6A       36.9650  -85.0040   43.5120 N.pl3 312  NAD312      0.2180
     19  N1A       35.2850  -86.0950   44.6340 N.2   312  NAD312      0.0021
     20  C2A       34.0780  -86.0730   45.3050 C.3   312  NAD312      0.5254
     21  N3A       33.4090  -84.8620   45.4130 N.2   312  NAD312     -0.0055
     22  C4A       33.9380  -83.7230   44.9170 C.2   312  NAD312      0.3518
     23  O3        28.5800  -77.7310   42.1730 O.3   312  NAD312     -0.2703
     24  PN        27.1630  -78.0220   41.3840 P.3   312  NAD312      0.2189
     25  O1N       26.6840  -76.7610   40.6910 O.2   312  NAD312     -0.5170
     26  O2N       26.4250  -78.8280   42.3550 O.3   312  NAD312     -0.4371
     27  O5D       27.7480  -78.8950   40.1360 O.3   312  NAD312     -0.3112
     28  C5D       28.0790  -80.2920   40.1230 C.3   312  NAD312      0.1813
     29  C4D       27.8570  -80.8300   38.7000 C.3   312  NAD312      0.1799
     30  O4D       26.6150  -80.3660   38.2260 O.3   312  NAD312     -0.3327
     31  C3D       28.8890  -80.4000   37.6480 C.3   312  NAD312      0.2158
     32  O3D       29.2880  -81.5300   36.8730 O.3   312  NAD312     -0.2175
     33  C2D       28.1300  -79.4580   36.7480 C.3   312  NAD312      0.2309
     34  O2D       28.6090  -79.4660   35.4130 O.3   312  NAD312     -0.2158
     35  C1D       26.7120  -79.9830   36.8900 C.3   312  NAD312      0.2263
     36  N1N       25.6730  -78.9810   36.5600 N.pl3 312  NAD312     -0.2787
     37  C2N       25.5540  -77.7700   37.2680 C.3   312  NAD312      0.1244
     38  C3N       24.5280  -76.8360   36.8770 C.2   312  NAD312      0.0544
     39  C7N       24.4560  -75.4570   37.5090 C.2   312  NAD312      0.2818
     40  O7N       25.0160  -75.3020   38.7930 O.2   312  NAD312     -0.2670
     41  N7N       23.8880  -74.4730   36.8250 N.am  312  NAD312     -0.0839
     42  C4N       23.6390  -77.1410   35.8150 C.2   312  NAD312      0.0033
     43  C5N       23.7880  -78.3580   35.1390 C.2   312  NAD312      0.0157
     44  C6N       24.8120  -79.2520   35.5040 C.2   312  NAD312      0.0633
@<TRIPOS>BOND
     1    43    44    2
     2    43    42    1
     3    34    33    1
     4    44    36    1
     5    42    38    2
     6    36    35    1
     7    36    37    1
     8    33    35    1
     9    33    31    1
    10    41    39   am
    11    32    31    1
    12    38    37    1
    13    38    39    1
    14    35    30    1
    15    39    40    2
    16    31    29    1
    17    30    29    1
    18    29    28    1
    19    28    27    1
    20    27    24    1
    21    25    24    2
    22    24    23    1
    23    24    26    1
    24    23     1    1
    25    18    17    1
    26     2     1    2
    27     1     4    1
    28     1     3    1
    29     5     4    1
    30     5     6    1
    31    15    14    1
    32    15    16    2
    33    17    16    1
    34    17    19    2
    35    14    13    1
    36    16    22    1
    37     7     6    1
    38     7    12    1
    39    19    20    1
    40    13    22    1
    41    13    12    1
    42    22    21    2
    43     6     8    1
    44    20    21    1
    45    12    10    1
    46    10     8    1
    47    10    11    1
    48     8     9    1
