@<TRIPOS>MOLECULE
3ggs_2FD_A_1.pdb
 19 21 0 0 0
SMALL
GASTEIGER

@<TRIPOS>ATOM
      1  O5'      -14.6890    0.5640  -44.5820 O.3   300  2FD300     -0.2176
      2  C5'      -15.8600    0.2370  -43.8070 C.3   300  2FD300      0.2141
      3  C4'      -16.8410   -0.5740  -44.6480 C.3   300  2FD300      0.1802
      4  O4'      -17.9890   -0.9210  -43.8780 O.3   300  2FD300     -0.3346
      5  C1'      -19.2020   -0.6870  -44.6140 C.3   300  2FD300      0.1981
      6  N9       -20.2580   -0.1600  -43.7130 N.pl3 300  2FD300     -0.2380
      7  C4       -20.2210    0.9480  -42.9550 C.2   300  2FD300      0.2223
      8  N3       -19.3060    1.9380  -42.7750 N.2   300  2FD300     -0.3001
      9  C2       -19.5630    2.9610  -41.9210 C.1   300  2FD300      0.2998
     10  F        -18.6320    3.9160  -41.7700 F     300  2FD300     -0.0976
     11  N1       -20.7270    3.0210  -41.2280 N.2   300  2FD300     -0.2971
     12  C6       -21.6540    2.0430  -41.3800 C.2   300  2FD300      0.2545
     13  N6       -22.8380    2.0480  -40.7180 N.pl3 300  2FD300     -0.0903
     14  C5       -21.4120    1.0000  -42.2530 C.2   300  2FD300      0.1707
     15  N7       -22.1390   -0.0790  -42.5950 N.2   300  2FD300     -0.2401
     16  C8       -21.4210   -0.7840  -43.4910 C.3   300  2FD300      0.2238
     17  C2'      -18.8580    0.2590  -45.7310 C.3   300  2FD300      0.0865
     18  C3'      -17.3460    0.2150  -45.8460 C.3   300  2FD300      0.1858
     19  O3'      -16.9580   -0.4210  -47.0720 O.3   300  2FD300     -0.2203
@<TRIPOS>BOND
     1    19    18    1
     2    18    17    1
     3    18     3    1
     4    17     5    1
     5     3     4    1
     6     3     2    1
     7     5     4    1
     8     5     6    1
     9     1     2    1
    10     6    16    1
    11     6     7    1
    12    16    15    1
    13     7     8    2
    14     7    14    1
    15     8     9    2
    16    15    14    2
    17    14    12    1
    18     9    10    1
    19     9    11    2
    20    12    11    2
    21    12    13    1
