@<TRIPOS>MOLECULE
3ggu_017_B_1.pdb
 38 41 0 0 0
SMALL
GASTEIGER

@<TRIPOS>ATOM
      1  N1        -9.3630   16.8160   18.7360 N.pl3 201  017201     -0.1281
      2  C2        -9.1960   16.5170   20.0320 C.ar  201  017201      0.0892
      3  C3       -10.3240   16.4200   20.8380 C.ar  201  017201      0.0194
      4  C4       -10.1840   16.1130   22.1820 C.ar  201  017201      0.0213
      5  C5        -8.9080   15.8960   22.7100 C.ar  201  017201      0.1223
      6  C6        -7.7810   15.9870   21.8870 C.ar  201  017201      0.0213
      7  C7        -7.9200   16.3050   20.5390 C.ar  201  017201      0.0194
      8  S8        -8.7740   15.5360   24.2600 S.O2  201  017201      0.0634
      9  O9        -9.9220   14.7830   24.6610 O.2   201  017201     -0.1528
     10  O10       -7.5990   14.7620   24.4660 O.2   201  017201     -0.1528
     11  N11       -8.6080   16.8270   25.2560 N.3   201  017201     -0.1529
     12  C12       -7.4760   17.7030   24.8680 C.3   201  017201      0.0958
     13  C13       -6.9370   18.4360   26.1080 C.3   201  017201      0.0178
     14  C14       -6.3150   17.4760   27.1190 C.3   201  017201      0.0015
     15  C15       -5.9480   19.5240   25.7120 C.3   201  017201      0.0015
     16  C16       -9.8680   17.5970   25.3870 C.3   201  017201      0.1304
     17  C17      -10.3380   17.6320   26.8480 C.3   201  017201      0.1898
     18  O18      -11.3910   18.5840   27.0110 O.3   201  017201     -0.2197
     19  C19      -10.8000   16.2660   27.3620 C.3   201  017201      0.1347
     20  N20      -10.8560   16.4080   28.8070 N.am  201  017201     -0.1675
     21  C21       -9.9920   15.8310   29.6430 C.2   201  017201      0.4211
     22  O22       -9.0390   15.1110   29.3290 O.2   201  017201     -0.2246
     23  O23      -10.2390   16.1190   31.0320 O.3   201  017201     -0.4341
     24  C24       -9.5500   15.3460   32.0010 C.3   201  017201      0.2102
     25  C25       -9.2420   16.3700   33.0730 C.3   201  017201      0.1899
     26  O26      -10.4870   16.5310   33.7560 O.3   201  017201     -0.3164
     27  C27      -11.1740   15.2720   33.7600 C.3   201  017201      0.2955
     28  O28      -12.5360   15.4970   33.4170 O.2   201  017201     -0.4493
     29  C29      -12.9000   14.7710   32.2320 C.2   201  017201      0.1708
     30  C30      -11.6850   13.9630   31.7920 C.2   201  017201      0.0237
     31  C31      -10.5390   14.4150   32.6790 C.3   201  017201      0.1379
     32  C32      -12.2200   15.8860   26.9260 C.3   201  017201      0.0508
     33  C33      -13.5770   14.3570   28.3480 C.ar  201  017201     -0.0042
     34  C34      -13.8270   13.0950   28.8470 C.ar  201  017201     -0.0003
     35  C35      -13.0520   12.0110   28.4690 C.ar  201  017201     -0.0000
     36  C36      -11.9960   12.1870   27.5850 C.ar  201  017201     -0.0003
     37  C37      -11.7260   13.4490   27.0740 C.ar  201  017201     -0.0042
     38  C38      -12.5230   14.5300   27.4540 C.ar  201  017201     -0.0204
@<TRIPOS>BOND
     1     1     2    1
     2     2     7   ar
     3     2     3   ar
     4     7     6   ar
     5     3     4   ar
     6     6     5   ar
     7     4     5   ar
     8     5     8    1
     9     8    10    2
    10     8     9    2
    11     8    11    1
    12    12    11    1
    13    12    13    1
    14    11    16    1
    15    16    17    1
    16    15    13    1
    17    13    14    1
    18    17    18    1
    19    17    19    1
    20    32    19    1
    21    32    38    1
    22    37    38   ar
    23    37    36   ar
    24    19    20    1
    25    38    33   ar
    26    36    35   ar
    27    33    34   ar
    28    35    34   ar
    29    20    21   am
    30    22    21    2
    31    21    23    1
    32    23    24    1
    33    30    29    2
    34    30    31    1
    35    24    31    1
    36    24    25    1
    37    29    28    1
    38    31    27    1
    39    25    26    1
    40    28    27    1
    41    26    27    1
