@<TRIPOS>MOLECULE
3gh5_NAG_A_1.pdb
 15 15 0 0 0
SMALL
GASTEIGER

@<TRIPOS>ATOM
      1  C1        35.5530   19.0330   38.1240 C.3   1300  NAG1300     0.2917
      2  C2        35.1980   18.1100   36.9480 C.3   1300  NAG1300     0.1871
      3  C3        34.5950   16.7750   37.3800 C.3   1300  NAG1300     0.2095
      4  C4        35.2210   16.3040   38.6950 C.3   1300  NAG1300     0.2136
      5  C5        35.0000   17.3810   39.7570 C.3   1300  NAG1300     0.1835
      6  C6        35.4820   16.9550   41.1350 C.3   1300  NAG1300     0.2142
      7  C7        33.3170   19.6380   36.7650 C.2   1300  NAG1300     0.2421
      8  C8        32.3000   20.3240   35.9020 C.3   1300  NAG1300     0.0964
      9  N2        34.2490   18.8840   36.1520 N.am  1300  NAG1300    -0.1991
     10  O1        36.5770   19.8870   37.7880 O.3   1300  NAG1300    -0.1879
     11  O3        34.7950   15.8210   36.3620 O.3   1300  NAG1300    -0.2183
     12  O4        34.6530   15.0800   39.1140 O.3   1300  NAG1300    -0.2176
     13  O5        35.7790   18.5090   39.4040 O.3   1300  NAG1300    -0.3242
     14  O6        35.2140   17.9900   42.0560 O.3   1300  NAG1300    -0.2176
     15  O7        33.2810   19.7660   37.9970 O.2   1300  NAG1300    -0.2733
@<TRIPOS>BOND
     1     8     7    1
     2     9     7   am
     3     9     2    1
     4    11     3    1
     5     7    15    2
     6     2     3    1
     7     2     1    1
     8     3     4    1
     9    10     1    1
    10     1    13    1
    11     4    12    1
    12     4     5    1
    13    13     5    1
    14     5     6    1
    15     6    14    1
