@<TRIPOS>MOLECULE
3gh6_GSH_A_1.pdb
 20 19 0 0 0
SMALL
GASTEIGER

@<TRIPOS>ATOM
      1  N1        15.8800    7.4580   46.5780 N.3   211  GSH211     -0.1208
      2  CA1       15.2720    7.2250   45.2680 C.3   211  GSH211      0.1948
      3  C1        15.9860    6.0870   44.6200 C.2   211  GSH211      0.3819
      4  O11       15.4550    5.4380   43.6800 O.co2 211  GSH211     -0.2441
      5  O12       17.1170    5.7470   45.0390 O.co2 211  GSH211     -0.2441
      6  CB1       15.4130    8.5040   44.4380 C.3   211  GSH211      0.0402
      7  CG1       14.5320    8.4290   43.1900 C.3   211  GSH211      0.0889
      8  CD1       14.2240    9.8110   42.6610 C.2   211  GSH211      0.2418
      9  OE1       14.0080   10.8730   43.5550 O.2   211  GSH211     -0.2733
     10  N2        14.1560    9.9550   41.3400 N.am  211  GSH211     -0.1968
     11  CA2       13.8930   11.2410   40.7020 C.3   211  GSH211      0.1843
     12  C2        12.4300   11.3740   40.3960 C.2   211  GSH211      0.2627
     13  O2        11.6860   10.2220   40.1520 O.2   211  GSH211     -0.2714
     14  CB2       14.7340   11.3690   39.4330 C.3   211  GSH211      0.0997
     15  SG2       16.5120   11.2500   39.7840 S.3   211  GSH211     -0.0797
     16  N3        11.8650   12.5880   40.3860 N.am  211  GSH211     -0.1917
     17  CA3       10.5070   12.7880   39.8890 C.3   211  GSH211      0.2285
     18  C3         9.4300   12.8280   40.9580 C.2   211  GSH211      0.3865
     19  O31        8.2680   13.2150   40.6630 O.co2 211  GSH211     -0.2437
     20  O32        9.6750   12.4760   42.1400 O.co2 211  GSH211     -0.2437
@<TRIPOS>BOND
     1    14    15    1
     2    14    11    1
     3    17    16    1
     4    17    18    1
     5    13    12    2
     6    16    12   am
     7    12    11    1
     8    19    18   ar
     9    11    10    1
    10    18    20   ar
    11    10     8   am
    12     8     7    1
    13     8     9    2
    14     7     6    1
    15     4     3   ar
    16     6     2    1
    17     3     5   ar
    18     3     2    1
    19     2     1    1
