@<TRIPOS>MOLECULE
3gh7_NGA_A_1.pdb
 15 15 0 0 0
SMALL
GASTEIGER

@<TRIPOS>ATOM
      1  C1        35.8200   69.9030   38.0590 C.3   1300  NGA1300     0.2917
      2  C2        35.0030   69.0900   37.0210 C.3   1300  NGA1300     0.1871
      3  C3        34.2920   67.8500   37.5830 C.3   1300  NGA1300     0.2095
      4  C4        34.9510   67.3830   38.8880 C.3   1300  NGA1300     0.2136
      5  C5        34.8710   68.5080   39.9210 C.3   1300  NGA1300     0.1835
      6  C6        35.5160   68.1310   41.2470 C.3   1300  NGA1300     0.2142
      7  C7        33.1230   70.6960   36.9090 C.2   1300  NGA1300     0.2421
      8  C8        32.1530   71.3720   35.9870 C.3   1300  NGA1300     0.0964
      9  N2        34.0670   69.9680   36.2980 N.am  1300  NGA1300    -0.1991
     10  O1        37.2180   69.5710   37.9390 O.3   1300  NGA1300    -0.1879
     11  O3        34.2960   66.8000   36.6080 O.3   1300  NGA1300    -0.2183
     12  O4        36.3260   67.0240   38.6660 O.3   1300  NGA1300    -0.2176
     13  O5        35.4450   69.7470   39.4490 O.3   1300  NGA1300    -0.3242
     14  O6        35.1740   69.1820   42.1630 O.3   1300  NGA1300    -0.2176
     15  O7        33.0410   70.8120   38.1310 O.2   1300  NGA1300    -0.2733
@<TRIPOS>BOND
     1     8     7    1
     2     9     7   am
     3     9     2    1
     4    11     3    1
     5     7    15    2
     6     2     3    1
     7     2     1    1
     8     3     4    1
     9    10     1    1
    10     1    13    1
    11    12     4    1
    12     4     5    1
    13    13     5    1
    14     5     6    1
    15     6    14    1
