@<TRIPOS>MOLECULE
3gh8_FMN_A_1.pdb
 31 33 0 0 0
SMALL
GASTEIGER

@<TRIPOS>ATOM
      1  N1         3.8940    9.4300   99.8630 N.2   301  FMN301     -0.2887
      2  C2         3.6130   10.7900   99.8220 C.1   301  FMN301      0.3669
      3  O2         3.9560   11.4310   98.8020 O.2   301  FMN301     -0.1744
      4  N3         2.9790   11.3610  100.9350 N.2   301  FMN301     -0.2300
      5  C4         2.6140   10.6010  102.0430 C.1   301  FMN301      0.2513
      6  O4         1.7390   10.9760  102.8270 O.2   301  FMN301     -0.2057
      7  C4A        2.8850    9.2500  102.0380 C.2   301  FMN301      0.2703
      8  N5         2.5170    8.5100  103.1280 N.2   301  FMN301     -0.3885
      9  C5A        2.7840    7.1700  103.1030 C.2   301  FMN301      0.1233
     10  C6         2.3990    6.4250  104.2070 C.3   301  FMN301      0.0606
     11  C7         2.6130    5.0640  104.2420 C.3   301  FMN301      0.0111
     12  C7M        1.5230    4.3380  104.9290 C.3   301  FMN301      0.0008
     13  C8         3.2460    4.4490  103.1430 C.3   301  FMN301      0.0238
     14  C8M        3.2110    2.9570  102.9730 C.3   301  FMN301      0.0047
     15  C9         3.6280    5.1920  102.0330 C.2   301  FMN301     -0.0093
     16  C9A        3.4090    6.5620  102.0010 C.2   301  FMN301      0.0750
     17  N10        3.7970    7.3270  100.8920 N.pl3 301  FMN301     -0.2548
     18  C10        3.5270    8.6660  100.9440 C.2   301  FMN301      0.2449
     19  C1'        4.6020    6.7920   99.7110 C.3   301  FMN301      0.1336
     20  C2'        6.0390    6.5020  100.1120 C.3   301  FMN301      0.2048
     21  O2'        6.7870    7.6770  100.3470 O.3   301  FMN301     -0.2185
     22  C3'        6.7460    5.6130   99.1270 C.3   301  FMN301      0.2165
     23  O3'        6.0770    4.4090   99.2370 O.3   301  FMN301     -0.2175
     24  C4'        8.2000    5.3460   99.5350 C.3   301  FMN301      0.2147
     25  O4'        8.9500    6.5380   99.3830 O.3   301  FMN301     -0.2176
     26  C5'        8.8100    4.3210   98.6170 C.3   301  FMN301      0.1892
     27  O5'        8.4680    4.7060   97.2970 O.3   301  FMN301     -0.2674
     28  P          7.8480    3.6880   96.2620 P.3   301  FMN301      0.5327
     29  O1P        7.9770    4.1690   94.8220 O.2   301  FMN301     -0.2224
     30  O2P        6.3900    3.4760   96.5940 O.3   301  FMN301     -0.1145
     31  O3P        8.5540    2.3650   96.4270 O.3   301  FMN301     -0.1145
@<TRIPOS>BOND
     1    29    28    2
     2    28    31    1
     3    28    30    1
     4    28    27    1
     5    27    26    1
     6    26    24    1
     7     3     2    2
     8    22    23    1
     9    22    24    1
    10    22    20    1
    11    25    24    1
    12    19    20    1
    13    19    17    1
    14     2     1    2
    15     2     4    2
    16     1    18    2
    17    20    21    1
    18    17    18    1
    19    17    16    1
    20     4     5    2
    21    18     7    1
    22    16    15    2
    23    16     9    1
    24    15    13    1
    25     7     5    1
    26     7     8    2
    27     5     6    2
    28    14    13    1
    29     9     8    2
    30     9    10    1
    31    13    11    1
    32    10    11    1
    33    11    12    1
