@<TRIPOS>MOLECULE
3gh8_TYI_A_1.pdb
 15 15 0 0 0
SMALL
GASTEIGER

@<TRIPOS>ATOM
      1  N          2.0840   13.5790  103.8550 N.3   302  TYI302     -0.1205
      2  CA         3.0120   14.6100  103.3890 C.3   302  TYI302      0.1986
      3  CB         4.3760   14.2980  103.9370 C.3   302  TYI302      0.0570
      4  CG         4.9180   12.8800  103.7300 C.ar  302  TYI302     -0.0191
      5  CD1        5.6300   12.6220  102.5680 C.ar  302  TYI302      0.0048
      6  CE1        6.2100   11.3950  102.2980 C.ar  302  TYI302      0.0690
      7  CD2        4.7860   11.8490  104.6720 C.ar  302  TYI302      0.0048
      8  CE2        5.3220   10.5660  104.4530 C.ar  302  TYI302      0.0690
      9  CZ         6.0690   10.2750  103.2530 C.ar  302  TYI302      0.2062
     10  OH         6.5880    9.0200  103.1030 O.3   302  TYI302     -0.2857
     11  C          3.0050   14.7220  101.8920 C.2   302  TYI302      0.3822
     12  O          2.2730   13.9640  101.2280 O.co2 302  TYI302     -0.2440
     13  OXT        3.6910   15.5790  101.2960 O.co2 302  TYI302     -0.2440
     14  I1         7.3010   11.2180  100.5370 I     302  TYI302     -0.0392
     15  I2         5.3440    8.9830  105.8180 I     302  TYI302     -0.0392
@<TRIPOS>BOND
     1    14     6    1
     2    12    11   ar
     3    13    11   ar
     4    11     2    1
     5     6     5   ar
     6     6     9   ar
     7     5     4   ar
     8    10     9    1
     9     9     8   ar
    10     2     1    1
    11     2     3    1
    12     4     3    1
    13     4     7   ar
    14     8     7   ar
    15     8    15    1
