@<TRIPOS>MOLECULE
3ghc_GHC_A_1.pdb
 32 34 0 0 0
SMALL
GASTEIGER

@<TRIPOS>ATOM
      1  C4        -2.9520   19.3000   -1.3210 C.2   187  GHC187      0.1728
      2  C5        -3.5210   18.0430   -1.1240 C.3   187  GHC187      0.2064
      3  C6        -4.0120   17.3420   -2.2520 C.1   187  GHC187      0.2029
      4  C13       -2.7770   18.6450    2.5800 C.3   187  GHC187      0.0333
      5  N1        -3.6780   17.9290   -3.4970 N.2   187  GHC187     -0.2537
      6  N2        -2.8680   19.6190   -4.8550 N.pl3 187  GHC187     -0.0226
      7  C3        -3.0220   18.7390    1.0400 C.2   187  GHC187      0.0128
      8  N3        -2.7530   19.8960   -2.5800 N.2   187  GHC187     -0.3216
      9  C29       -1.4070   17.9220    2.8460 C.3   187  GHC187      0.0056
     10  S4        -2.4740   20.0610    0.1120 S.3   187  GHC187     -0.0615
     11  C2        -3.0940   19.1500   -3.5890 C.1   187  GHC187      0.2517
     12  O6        -4.5980   16.2580   -2.2680 O.2   187  GHC187     -0.2126
     13  C1        -3.5560   17.7600    0.2640 C.2   187  GHC187      0.0329
     14  SAT       -4.2810   16.2880    0.9860 S.3   187  GHC187     -0.0896
     15  CAZ       -2.9360   15.1210    0.8720 C.ar  187  GHC187      0.0292
     16  CAJ       -1.8900   15.3450    0.0510 C.ar  187  GHC187      0.0066
     17  CAL       -0.8500   14.4050    0.0140 C.ar  187  GHC187      0.0051
     18  CAI       -2.9900   13.9820    1.6730 C.ar  187  GHC187      0.0066
     19  CAK       -1.9940   13.0250    1.6360 C.ar  187  GHC187      0.0051
     20  CBA       -0.9200   13.2720    0.8330 C.ar  187  GHC187      0.0551
     21  CAX        0.2200   12.2840    0.8400 C.2   187  GHC187      0.2652
     22  OAE        0.0740   11.1650    1.4150 O.2   187  GHC187     -0.2684
     23  NAS        1.3310   12.5960    0.1940 N.am  187  GHC187     -0.1918
     24  CAP        2.5210   11.7040    0.1930 C.3   187  GHC187      0.1986
     25  CAW        3.6960   12.5700   -0.1970 C.2   187  GHC187      0.3842
     26  OAG        4.8520   12.0830   -0.0270 O.co2 187  GHC187     -0.2437
     27  OAD        3.5080   13.7520   -0.6140 O.co2 187  GHC187     -0.2437
     28  CBG        2.3750   10.5870   -0.8070 C.3   187  GHC187      0.0451
     29  CAN        2.2290   11.0600   -2.2640 C.3   187  GHC187      0.1164
     30  CAV        1.7460    9.9460   -3.2270 C.2   187  GHC187      0.3649
     31  OAF        0.7600    9.2700   -2.9140 O.co2 187  GHC187     -0.2457
     32  OAC        2.1990   10.0290   -4.3120 O.co2 187  GHC187     -0.2457
@<TRIPOS>BOND
     1     6    11    1
     2    32    30   ar
     3    11     5    2
     4    11     8    2
     5     5     3    2
     6    30    31   ar
     7    30    29    1
     8     8     1    2
     9    12     3    2
    10    29    28    1
    11     3     2    1
    12     1     2    1
    13     1    10    1
    14     2    13    1
    15    28    24    1
    16    27    25   ar
    17    25    26   ar
    18    25    24    1
    19    17    16   ar
    20    17    20   ar
    21    16    15   ar
    22    10     7    1
    23    24    23    1
    24    23    21   am
    25    13    14    1
    26    13     7    2
    27    20    21    1
    28    20    19   ar
    29    21    22    2
    30    15    14    1
    31    15    18   ar
    32     7     4    1
    33    19    18   ar
    34     4     9    1
