@<TRIPOS>MOLECULE
3ghc_NDP_A_1.pdb
 48 52 0 0 0
SMALL
GASTEIGER

@<TRIPOS>ATOM
      1  PA        -6.2260   22.4330   10.1020 P.3   188  NDP188      0.2189
      2  O1A       -5.3620   21.5220    9.4170 O.2   188  NDP188     -0.5170
      3  O2A       -6.0970   23.8620    9.8290 O.3   188  NDP188     -0.4371
      4  O5B       -6.0580   22.1250   11.6700 O.3   188  NDP188     -0.3112
      5  C5B       -6.7110   23.0080   12.6070 C.3   188  NDP188      0.1813
      6  C4B       -5.9200   22.9500   13.9070 C.3   188  NDP188      0.1820
      7  O4B       -4.5770   23.3920   13.5890 O.3   188  NDP188     -0.3136
      8  C3B       -6.3900   24.0220   14.8690 C.3   188  NDP188      0.2157
      9  O3B       -7.4210   23.4790   15.7680 O.3   188  NDP188     -0.2175
     10  C2B       -5.1230   24.2800   15.5840 C.3   188  NDP188      0.2314
     11  O2B       -4.7100   23.3940   16.5410 O.3   188  NDP188     -0.2630
     12  C1B       -4.1030   24.4000   14.5490 C.3   188  NDP188      0.3158
     13  N9A       -3.9350   25.6140   13.8330 N.pl3 188  NDP188     -0.1439
     14  C8A       -4.4500   25.9790   12.6080 C.3   188  NDP188      0.3377
     15  N7A       -3.9260   27.1430   12.2580 N.2   188  NDP188     -0.2095
     16  C5A       -3.0670   27.5440   13.2200 C.2   188  NDP188      0.2526
     17  C6A       -2.2990   28.6910   13.3700 C.2   188  NDP188      0.4393
     18  N6A       -2.2460   29.6090   12.3910 N.pl3 188  NDP188      0.2180
     19  N1A       -1.4830   28.7620   14.4710 N.2   188  NDP188      0.0021
     20  C2A       -1.5490   27.7850   15.4210 C.3   188  NDP188      0.5254
     21  N3A       -2.3240   26.6600   15.3290 N.2   188  NDP188     -0.0055
     22  C4A       -3.0810   26.5640   14.2070 C.2   188  NDP188      0.3518
     23  O3        -7.7690   21.9270    9.9010 O.3   188  NDP188     -0.2703
     24  PN        -8.8630   21.9620    8.7280 P.3   188  NDP188      0.2189
     25  O1N      -10.0320   21.2380    9.3060 O.3   188  NDP188     -0.4371
     26  O2N       -8.9770   23.2930    8.1560 O.2   188  NDP188     -0.5170
     27  O5D       -8.2580   21.0620    7.6410 O.3   188  NDP188     -0.3112
     28  C5D       -8.2330   19.6360    7.6660 C.3   188  NDP188      0.1813
     29  C4D       -9.2280   19.0110    6.6650 C.3   188  NDP188      0.1799
     30  O4D       -8.9730   19.6400    5.3010 O.3   188  NDP188     -0.3327
     31  C3D       -9.1250   17.5730    6.4490 C.3   188  NDP188      0.2158
     32  O3D      -10.4220   17.1000    5.9290 O.3   188  NDP188     -0.2175
     33  C2D       -8.1100   17.4640    5.3140 C.3   188  NDP188      0.2309
     34  O2D       -8.2420   16.2400    4.6100 O.3   188  NDP188     -0.2158
     35  C1D       -8.5190   18.6790    4.4240 C.3   188  NDP188      0.2263
     36  N1N       -7.4080   19.2810    3.6850 N.pl3 188  NDP188     -0.2787
     37  C2N       -7.4950   19.2230    2.3240 C.3   188  NDP188      0.1244
     38  C3N       -6.5520   19.8660    1.5240 C.2   188  NDP188      0.0544
     39  C7N       -6.7370   19.8720    0.0550 C.2   188  NDP188      0.2818
     40  O7N       -5.8370   20.4140   -0.6520 O.2   188  NDP188     -0.2670
     41  N7N       -7.8100   19.3710   -0.5060 N.am  188  NDP188     -0.0839
     42  C4N       -5.5270   20.5880    2.1530 C.2   188  NDP188      0.0033
     43  C5N       -5.3730   20.5520    3.5650 C.2   188  NDP188      0.0157
     44  C6N       -6.3640   19.9340    4.3710 C.2   188  NDP188      0.0633
     45  P2B       -4.7620   23.6210   18.1430 P.3   188  NDP188      0.5328
     46  O1X       -4.1380   24.9740   18.4600 O.2   188  NDP188     -0.2224
     47  O2X       -3.9710   22.4930   18.6850 O.3   188  NDP188     -0.1145
     48  O3X       -6.1780   23.5990   18.5540 O.3   188  NDP188     -0.1145
@<TRIPOS>BOND
     1    40    39    2
     2    41    39   am
     3    39    38    1
     4    38    42    2
     5    38    37    1
     6    42    43    1
     7    37    36    1
     8    43    44    2
     9    36    44    1
    10    36    35    1
    11    35    30    1
    12    35    33    1
    13    34    33    1
    14    30    29    1
    15    33    31    1
    16    32    31    1
    17    31    29    1
    18    29    28    1
    19    27    28    1
    20    27    24    1
    21    26    24    2
    22    24    25    1
    23    24    23    1
    24     2     1    2
    25     3     1    1
    26    23     1    1
    27     1     4    1
    28     4     5    1
    29    15    14    1
    30    15    16    2
    31    18    17    1
    32     5     6    1
    33    14    13    1
    34    16    17    1
    35    16    22    1
    36    17    19    2
    37     7     6    1
    38     7    12    1
    39    13    22    1
    40    13    12    1
    41     6     8    1
    42    22    21    2
    43    19    20    1
    44    12    10    1
    45     8    10    1
    46     8     9    1
    47    21    20    1
    48    10    11    1
    49    11    45    1
    50    45    46    2
    51    45    48    1
    52    45    47    1
