@<TRIPOS>MOLECULE
3ghg_III_M_1.pdb
 30 31 0 0 0
SMALL
GASTEIGER

@<TRIPOS>ATOM
      1  N       -145.1440  -22.9130    7.3260 N.3     1  GLY1       -0.1210
      2  CA      -145.6300  -22.1450    8.4950 C.3     1  GLY1        0.1940
      3  C       -145.6420  -22.9800    9.7660 C.2     1  GLY1        0.2454
      4  O       -144.8380  -22.7180   10.6620 O.2     1  GLY1       -0.2732
      5  N       -146.5460  -23.9930    9.8550 N.am    2  PRO2       -0.2717
      6  CA      -146.7000  -24.8240   11.0530 C.3     2  PRO2        0.1535
      7  C       -145.9380  -26.1530   10.9920 C.2     2  PRO2        0.2598
      8  O       -145.3350  -26.4700    9.9590 O.2     2  PRO2       -0.2715
      9  CB      -148.2070  -25.0790   11.0910 C.3     2  PRO2        0.0310
     10  CG      -148.6930  -24.8630    9.6390 C.3     2  PRO2        0.0237
     11  CD      -147.5220  -24.4000    8.8290 C.3     2  PRO2        0.0939
     12  N       -145.9660  -26.9150   12.0900 N.am    3  ARG3       -0.1964
     13  CA      -145.3080  -28.2270   12.1330 C.3     3  ARG3        0.1714
     14  C       -146.3320  -29.3680   11.9510 C.2     3  ARG3        0.2459
     15  O       -147.5400  -29.1330   12.0340 O.2     3  ARG3       -0.2730
     16  CB      -144.4890  -28.4110   13.4310 C.3     3  ARG3        0.0347
     17  CG      -145.1700  -29.2500   14.5580 C.3     3  ARG3        0.0492
     18  CD      -144.3020  -30.4510   15.0970 C.3     3  ARG3        0.2205
     19  NE      -143.6900  -31.2890   14.0480 N.pl3   3  ARG3       -0.0865
     20  CZ      -142.5810  -32.0270   14.1860 C.cat   3  ARG3        0.5346
     21  NH1     -142.1370  -32.7290   13.1470 N.pl3   3  ARG3        0.1354
     22  NH2     -141.9080  -32.0770   15.3380 N.pl3   3  ARG3        0.1354
     23  N       -145.8470  -30.5950   11.6580 N.am    4  PRO4       -0.2699
     24  CA      -146.6530  -31.8090   11.7450 C.3     4  PRO4        0.1791
     25  C       -147.2020  -32.1130   13.1490 C.2     4  PRO4        0.3825
     26  O       -146.8250  -31.5130   14.1540 O.co2   4  PRO4       -0.2438
     27  CB      -145.6740  -32.9050   11.3090 C.3     4  PRO4        0.0332
     28  CG      -144.7660  -32.2390   10.3720 C.3     4  PRO4        0.0238
     29  CD      -144.6390  -30.8150   10.8350 C.3     4  PRO4        0.0940
     30  OXT     -148.0600  -32.9900   13.3160 O.co2   4  PRO4       -0.2438
@<TRIPOS>BOND
     1     1     2    1
     2     2     3    1
     3    11    10    1
     4    11     5    1
     5    10     9    1
     6     3     5   am
     7     3     4    2
     8     5     6    1
     9     8     7    2
    10    28    29    1
    11    28    27    1
    12    29    23    1
    13     7     6    1
    14     7    12   am
    15     6     9    1
    16    27    24    1
    17    23    24    1
    18    23    14   am
    19    24    25    1
    20    14    15    2
    21    14    13    1
    22    12    13    1
    23    13    16    1
    24    21    20    1
    25    25    30   ar
    26    25    26   ar
    27    16    17    1
    28    19    20    2
    29    19    18    1
    30    20    22    1
    31    17    18    1
