@<TRIPOS>MOLECULE
3ghh_2NF_B_1.pdb
 44 48 0 0 0
SMALL
GASTEIGER

@<TRIPOS>ATOM
      1  O7N       23.8750   -4.8780    1.0790 O.2   301  2NF301     -0.2666
      2  C7N       23.3960   -3.5980    1.4440 C.2   301  2NF301      0.2854
      3  N7N       24.2620   -2.6000    1.6640 N.am  301  2NF301     -0.0837
      4  C3N       21.9070   -3.4050    1.6400 C.2   301  2NF301      0.0710
      5  C4N       21.1170   -4.5540    1.5440 C.2   301  2NF301      0.0030
      6  C5N       19.7440   -4.4510    1.7360 C.2   301  2NF301     -0.0045
      7  C6N       19.1810   -3.1990    2.0260 C.3   301  2NF301      0.1195
      8  C2N       21.3090   -2.1570    1.9340 C.2   301  2NF301      0.0679
      9  N1N       19.9420   -2.0560    2.1270 N.pl3 301  2NF301     -0.2786
     10  C1D       19.2130   -0.7770    2.4510 C.3   301  2NF301      0.2286
     11  C2D       19.8200    0.5680    2.0040 C.3   301  2NF301      0.2398
     12  F2D       19.4720    1.5560    2.9600 F     301  2NF301     -0.2299
     13  C3D       19.0550    0.9650    0.7590 C.3   301  2NF301      0.2180
     14  O3D       18.3710    2.1780    0.9360 O.3   301  2NF301     -0.2173
     15  O4D       17.9280   -0.7720    1.8440 O.3   301  2NF301     -0.3325
     16  C4D       17.9960   -0.1260    0.5760 C.3   301  2NF301      0.1801
     17  C5D       18.3820   -1.0410   -0.6060 C.3   301  2NF301      0.1813
     18  O5D       17.6990   -2.2900   -0.5680 O.3   301  2NF301     -0.3112
     19  PN        16.6160   -2.6590   -1.7240 P.3   301  2NF301      0.2189
     20  O1N       15.7060   -1.4900   -1.8220 O.2   301  2NF301     -0.5170
     21  O2N       16.1220   -4.0550   -1.5010 O.3   301  2NF301     -0.4371
     22  O3        17.5060   -2.5180   -3.0210 O.3   301  2NF301     -0.2703
     23  PA        17.9630   -3.6830   -4.0390 P.3   301  2NF301      0.2189
     24  O1A       19.0140   -2.9750   -4.8270 O.2   301  2NF301     -0.5170
     25  O2A       16.6960   -4.2610   -4.5100 O.3   301  2NF301     -0.4371
     26  O5B       18.7410   -4.7650   -3.1720 O.3   301  2NF301     -0.3112
     27  C5B       20.0150   -4.4570   -2.6170 C.3   301  2NF301      0.1813
     28  C4B       20.5210   -5.7990   -2.1390 C.3   301  2NF301      0.1821
     29  O4B       19.6460   -6.3100   -1.1330 O.3   301  2NF301     -0.3135
     30  C1B       19.1500   -7.5710   -1.5500 C.3   301  2NF301      0.3186
     31  C2B       19.2010   -7.6070   -3.0760 C.3   301  2NF301      0.2570
     32  O2B       19.2100   -8.9170   -3.6020 O.3   301  2NF301     -0.2130
     33  C3B       20.4380   -6.7380   -3.3410 C.3   301  2NF301      0.2184
     34  O3B       21.6660   -7.4070   -3.4510 O.3   301  2NF301     -0.2174
     35  N9A       17.8050   -7.8590   -1.0360 N.pl3 301  2NF301     -0.1439
     36  C8A       16.5860   -7.3500   -1.3900 C.3   301  2NF301      0.3377
     37  N7A       15.6700   -7.9560   -0.6070 N.2   301  2NF301     -0.2095
     38  C5A       16.3080   -8.8300    0.2290 C.2   301  2NF301      0.2526
     39  C6A       15.8910   -9.6970    1.2200 C.2   301  2NF301      0.4393
     40  N6A       14.5980   -9.7550    1.5260 N.pl3 301  2NF301      0.2180
     41  C4A       17.6500   -8.7790   -0.0320 C.2   301  2NF301      0.3518
     42  N3A       18.5700   -9.5450    0.6460 N.2   301  2NF301     -0.0055
     43  C2A       18.1770  -10.4070    1.6260 C.3   301  2NF301      0.5254
     44  N1A       16.8070  -10.4720    1.9050 N.2   301  2NF301      0.0021
@<TRIPOS>BOND
     1    24    23    2
     2    25    23    1
     3    23    26    1
     4    23    22    1
     5    32    31    1
     6    34    33    1
     7    33    31    1
     8    33    28    1
     9    26    27    1
    10    31    30    1
    11    22    19    1
    12    27    28    1
    13    28    29    1
    14    20    19    2
    15    19    21    1
    16    19    18    1
    17    30    29    1
    18    30    35    1
    19    36    35    1
    20    36    37    1
    21    35    41    1
    22    37    38    2
    23    17    18    1
    24    17    16    1
    25    41    38    1
    26    41    42    2
    27    38    39    1
    28    16    13    1
    29    16    15    1
    30    42    43    1
    31    13    14    1
    32    13    11    1
    33     1     2    2
    34    39    40    1
    35    39    44    2
    36     2     4    1
    37     2     3   am
    38     5     4    1
    39     5     6    2
    40    43    44    1
    41     4     8    2
    42     6     7    1
    43    15    10    1
    44     8     9    1
    45    11    10    1
    46    11    12    1
    47     7     9    1
    48     9    10    1
