@<TRIPOS>MOLECULE
3ghq_HEM_A_1.pdb
 43 50 0 0 0
SMALL
GASTEIGER

@<TRIPOS>ATOM
      1  CHA      -88.9930  -50.5150    0.2700 C.2   200  HEM200      0.0000
      2  CHB      -92.5880  -52.6960    2.8050 C.2   200  HEM200      0.0000
      3  CHC      -96.0320  -50.4400    0.1200 C.2   200  HEM200      0.0000
      4  CHD      -92.4770  -48.1910   -2.4150 C.2   200  HEM200      0.0000
      5  C1A      -89.6460  -51.2720    1.2430 C.2   200  HEM200      0.0000
      6  C2A      -89.0530  -51.9780    2.3710 C.2   200  HEM200      0.0000
      7  C3A      -90.0340  -52.5780    3.0580 C.2   200  HEM200      0.0000
      8  C4A      -91.3080  -52.2790    2.4180 C.2   200  HEM200      0.0000
      9  CMA      -89.8340  -53.4330    4.3270 C.3   200  HEM200      0.0000
     10  CAA      -87.5450  -52.0470    2.7140 C.3   200  HEM200      0.0000
     11  CBA      -87.0590  -50.8090    3.4530 C.3   200  HEM200      0.0000
     12  CGA      -85.7920  -50.2800    2.8110 C.2   200  HEM200      0.0000
     13  O1A      -84.7600  -50.1700    3.5180 O.co2 200  HEM200      0.0000
     14  O2A      -85.8070  -49.9520    1.5900 O.co2 200  HEM200      0.0000
     15  C1B      -93.8420  -52.2940    2.3190 C.ar  200  HEM200      0.0000
     16  C2B      -95.1590  -52.7110    2.7910 C.ar  200  HEM200      0.0000
     17  C3B      -96.0820  -52.0890    2.0470 C.ar  200  HEM200      0.0000
     18  C4B      -95.4240  -51.2480    1.0700 C.ar  200  HEM200      0.0000
     19  CMB      -95.4490  -53.6920    3.9410 C.3   200  HEM200      0.0000
     20  CAB      -97.6040  -52.2120    2.1830 C.2   200  HEM200      0.0000
     21  CBB      -98.3510  -51.2410    1.6550 C.2   200  HEM200      0.0000
     22  C1C      -95.4020  -49.5990   -0.7790 C.2   200  HEM200      0.0000
     23  C2C      -96.0200  -48.6660   -1.6850 C.2   200  HEM200      0.0000
     24  C3C      -95.0620  -48.0500   -2.3800 C.2   200  HEM200      0.0000
     25  C4C      -93.7610  -48.5580   -1.9590 C.2   200  HEM200      0.0000
     26  CMC      -97.5310  -48.4320   -1.8200 C.3   200  HEM200      0.0000
     27  CAC      -95.3170  -46.9800   -3.4430 C.2   200  HEM200      0.0000
     28  CBC      -94.6750  -47.0670   -4.6020 C.2   200  HEM200      0.0000
     29  C1D      -91.1980  -48.6170   -2.0000 C.ar  200  HEM200      0.0000
     30  C2D      -89.9120  -48.2920   -2.5990 C.ar  200  HEM200      0.0000
     31  C3D      -88.8420  -49.0140   -1.7710 C.ar  200  HEM200      0.0000
     32  C4D      -89.5600  -49.7150   -0.7280 C.ar  200  HEM200      0.0000
     33  CMD      -89.6450  -47.4050   -3.8240 C.3   200  HEM200      0.0000
     34  CAD      -87.3150  -48.9940   -1.9890 C.3   200  HEM200      0.0000
     35  CBD      -86.8590  -50.1320   -2.8980 C.3   200  HEM200      0.0000
     36  CGD      -85.3480  -50.1730   -2.9590 C.2   200  HEM200      0.0000
     37  O1D      -84.7350  -51.1760   -2.5150 O.co2 200  HEM200      0.0000
     38  O2D      -84.7410  -49.1990   -3.4540 O.co2 200  HEM200      0.0000
     39  NA       -91.0140  -51.4830    1.3200 N.2   200  HEM200      0.0000
     40  NB       -94.0670  -51.4070    1.2680 N.ar  200  HEM200      0.0000
     41  NC       -94.0390  -49.4990   -0.9780 N.2   200  HEM200      0.0000
     42  ND       -90.9220  -49.4490   -0.9100 N.ar  200  HEM200      0.0000
     43 FE        -92.5590  -50.4230    0.1420 Fe    200  HEM200      0.0000
@<TRIPOS>BOND
     1    28    27    2
     2    33    30    1
     3    38    36   ar
     4    27    24    1
     5    36    35    1
     6    36    37   ar
     7    35    34    1
     8    30    29   ar
     9    30    31   ar
    10     4    29    2
    11     4    25    1
    12    24    25    1
    13    24    23    2
    14    29    42   ar
    15    34    31    1
    16    25    41    2
    17    26    23    1
    18    31    32   ar
    19    23    22    1
    20    41    22    1
    21    41    43    1
    22    42    32   ar
    23    42    43    1
    24    22     3    2
    25    32     1    2
    26     3    18    1
    27    43    40    1
    28    43    39    1
    29     1     5    1
    30    18    40   ar
    31    18    17   ar
    32     5    39    2
    33     5     6    1
    34    40    15   ar
    35    39     8    1
    36    14    12   ar
    37    21    20    2
    38    17    20    1
    39    17    16   ar
    40    15    16   ar
    41    15     2    1
    42     6    10    1
    43     6     7    2
    44     8     2    2
    45     8     7    1
    46    10    11    1
    47    16    19    1
    48    12    11    1
    49    12    13   ar
    50     7     9    1
