@<TRIPOS>MOLECULE
3ghr_LDT_A_1.pdb
 24 25 0 0 0
SMALL
GASTEIGER

@<TRIPOS>ATOM
      1  C2        15.7100   -9.4160   18.1130 C.ar  320  LDT320      0.0666
      2  C3        16.0510  -10.3580   15.5400 C.ar  320  LDT320      0.0071
      3  C4        16.6000   -8.7530   17.2650 C.ar  320  LDT320      0.1433
      4  C5        15.0340  -10.5370   17.6440 C.ar  320  LDT320      0.1432
      5  C6        15.1770  -11.0180   16.3620 C.ar  320  LDT320      0.0299
      6  C7        16.7450   -9.2080   15.9430 C.ar  320  LDT320      0.0556
      7 BR8        14.8950   -3.7290    9.6910 Br    320  LDT320     -0.0489
      8  F9        14.1990  -11.1600   18.4920 F     320  LDT320     -0.2041
      9  C11       17.6350   -8.4990   14.9780 C.2   320  LDT320      0.1039
     10  C13       18.3160   -6.3420   14.1330 C.3   320  LDT320      0.1414
     11  F14       19.2570   -4.3880   12.4300 F     320  LDT320     -0.2044
     12  O15       17.4180   -7.7330   17.6740 O.3   320  LDT320     -0.4636
     13  S16       18.5620   -9.3760   13.9100 S.2   320  LDT320     -0.0331
     14  N17       17.5820   -7.2000   15.0150 N.am  320  LDT320     -0.2257
     15  C20       16.9170   -6.8770   18.6880 C.3   320  LDT320      0.3186
     16  C24       17.4740   -5.7740   13.0320 C.ar  320  LDT320      0.0269
     17  C25       15.9830   -4.6110   10.9450 C.ar  320  LDT320      0.0368
     18  C26       16.1580   -6.1930   12.7660 C.ar  320  LDT320      0.0002
     19  C27       17.9990   -4.7870   12.2100 C.ar  320  LDT320      0.1383
     20  C28       17.2840   -4.2220   11.1550 C.ar  320  LDT320      0.0361
     21  C29       15.4230   -5.6310   11.7510 C.ar  320  LDT320      0.0066
     22  C32       15.7570   -6.0170   18.1870 C.2   320  LDT320      0.4084
     23  O33       15.0480   -5.4890   19.0930 O.co2 320  LDT320     -0.2415
     24  O34       15.5980   -5.8810   16.9510 O.co2 320  LDT320     -0.2415
@<TRIPOS>BOND
     1     7    17    1
     2    17    20   ar
     3    17    21   ar
     4    20    19   ar
     5    21    18   ar
     6    19    11    1
     7    19    16   ar
     8    18    16   ar
     9    16    10    1
    10    13     9    2
    11    10    14    1
    12     9    14    1
    13     9     6    1
    14     2     6   ar
    15     2     5   ar
    16     6     3   ar
    17     5     4   ar
    18    24    22   ar
    19     3    12    1
    20     3     1   ar
    21     4     1   ar
    22     4     8    1
    23    12    15    1
    24    22    15    1
    25    22    23   ar
