@<TRIPOS>MOLECULE
3ghr_NDP_A_1.pdb
 48 52 0 0 0
SMALL
GASTEIGER

@<TRIPOS>ATOM
      1  PA        22.7040   -4.7580   26.9860 P.3   318  NDP318      0.2189
      2  O1A       23.6280   -3.7140   26.4690 O.2   318  NDP318     -0.5170
      3  O2A       21.6330   -4.4250   27.9210 O.3   318  NDP318     -0.4371
      4  O5B       23.6430   -5.9330   27.5130 O.3   318  NDP318     -0.3112
      5  C5B       23.0400   -7.1700   28.0160 C.3   318  NDP318      0.1813
      6  C4B       24.2020   -8.0620   28.3870 C.3   318  NDP318      0.1820
      7  O4B       24.9630   -7.4580   29.4650 O.3   318  NDP318     -0.3136
      8  C3B       23.8140   -9.4470   28.8630 C.3   318  NDP318      0.2157
      9  O3B       24.7570  -10.3880   28.3510 O.3   318  NDP318     -0.2175
     10  C2B       23.9140   -9.3320   30.3800 C.3   318  NDP318      0.2314
     11  O2B       24.2440  -10.5940   30.9920 O.3   318  NDP318     -0.2630
     12  C1B       25.0960   -8.3820   30.5530 C.3   318  NDP318      0.3158
     13  N9A       25.0460   -7.6140   31.7870 N.pl3 318  NDP318     -0.1439
     14  C8A       23.9640   -6.9730   32.3140 C.3   318  NDP318      0.3377
     15  N7A       24.2270   -6.3250   33.4480 N.2   318  NDP318     -0.2095
     16  C5A       25.5610   -6.5650   33.6310 C.2   318  NDP318      0.2526
     17  C6A       26.4210   -6.1740   34.6680 C.2   318  NDP318      0.4393
     18  N6A       25.9970   -5.4440   35.7210 N.pl3 318  NDP318      0.2180
     19  N1A       27.7040   -6.6280   34.5930 N.2   318  NDP318      0.0021
     20  C2A       28.0970   -7.3570   33.5460 C.3   318  NDP318      0.5254
     21  N3A       27.3640   -7.7790   32.5340 N.2   318  NDP318     -0.0055
     22  C4A       26.0760   -7.3520   32.6220 C.2   318  NDP318      0.3518
     23  O3        22.0790   -5.4880   25.6850 O.3   318  NDP318     -0.2703
     24  PN        20.7040   -5.5850   24.8890 P.3   318  NDP318      0.2189
     25  O1N       19.8960   -6.7110   25.4500 O.3   318  NDP318     -0.4371
     26  O2N       21.0310   -5.6020   23.4530 O.2   318  NDP318     -0.5170
     27  O5D       19.9650   -4.1780   25.1280 O.3   318  NDP318     -0.3112
     28  C5D       19.0850   -3.9250   26.2640 C.3   318  NDP318      0.1813
     29  C4D       17.6360   -4.0520   25.8440 C.3   318  NDP318      0.1799
     30  O4D       17.3090   -3.0430   24.8560 O.3   318  NDP318     -0.3327
     31  C3D       17.2180   -5.3450   25.1450 C.3   318  NDP318      0.2158
     32  O3D       17.1500   -6.4710   26.0090 O.3   318  NDP318     -0.2175
     33  C2D       15.8680   -4.9310   24.5400 C.3   318  NDP318      0.2309
     34  O2D       14.9100   -4.8880   25.6050 O.3   318  NDP318     -0.2158
     35  C1D       16.2190   -3.4870   24.0640 C.3   318  NDP318      0.2263
     36  N1N       16.6890   -3.4870   22.6220 N.pl3 318  NDP318     -0.2787
     37  C2N       15.8120   -2.9420   21.7010 C.3   318  NDP318      0.1244
     38  C3N       16.1720   -2.9500   20.3520 C.2   318  NDP318      0.0544
     39  C7N       15.2990   -2.2710   19.3410 C.2   318  NDP318      0.2818
     40  O7N       15.5020   -2.5060   18.1400 O.2   318  NDP318     -0.2670
     41  N7N       14.3640   -1.4390   19.7960 N.am  318  NDP318     -0.0839
     42  C4N       17.3790   -3.5260   19.9450 C.2   318  NDP318      0.0033
     43  C5N       18.2680   -4.0050   20.9200 C.2   318  NDP318      0.0157
     44  C6N       17.9110   -3.9670   22.2440 C.2   318  NDP318      0.0633
     45  P2B       23.1850  -11.4870   31.8260 P.3   318  NDP318      0.5328
     46  O1X       21.8250  -11.2600   31.2480 O.2   318  NDP318     -0.2224
     47  O2X       23.7490  -12.8690   31.6070 O.3   318  NDP318     -0.1145
     48  O3X       23.2960  -11.0360   33.2690 O.3   318  NDP318     -0.1145
@<TRIPOS>BOND
     1    40    39    2
     2    39    41   am
     3    39    38    1
     4    42    38    2
     5    42    43    1
     6    38    37    1
     7    43    44    2
     8    37    36    1
     9    44    36    1
    10    36    35    1
    11    26    24    2
    12    35    33    1
    13    35    30    1
    14    33    31    1
    15    33    34    1
    16    30    29    1
    17    24    27    1
    18    24    25    1
    19    24    23    1
    20    27    28    1
    21    31    29    1
    22    31    32    1
    23    23     1    1
    24    29    28    1
    25     2     1    2
    26     1     4    1
    27     1     3    1
    28     4     5    1
    29     5     6    1
    30     9     8    1
    31     6     8    1
    32     6     7    1
    33     8    10    1
    34     7    12    1
    35    10    12    1
    36    10    11    1
    37    12    13    1
    38    11    45    1
    39    46    45    2
    40    47    45    1
    41    13    14    1
    42    13    22    1
    43    45    48    1
    44    14    15    1
    45    21    22    2
    46    21    20    1
    47    22    16    1
    48    15    16    2
    49    20    19    1
    50    16    17    1
    51    19    17    2
    52    17    18    1
