@<TRIPOS>MOLECULE
3ghs_NDP_A_1.pdb
 48 52 0 0 0
SMALL
GASTEIGER

@<TRIPOS>ATOM
      1  PA        22.7080   -4.7570   26.9880 P.3   318  NDP318      0.2189
      2  O1A       23.6340   -3.7090   26.4780 O.2   318  NDP318     -0.5170
      3  O2A       21.6350   -4.4240   27.9230 O.3   318  NDP318     -0.4371
      4  O5B       23.6440   -5.9340   27.5200 O.3   318  NDP318     -0.3112
      5  C5B       23.0480   -7.1660   28.0160 C.3   318  NDP318      0.1813
      6  C4B       24.2090   -8.0640   28.3830 C.3   318  NDP318      0.1820
      7  O4B       24.9670   -7.4580   29.4680 O.3   318  NDP318     -0.3136
      8  C3B       23.8080   -9.4470   28.8630 C.3   318  NDP318      0.2157
      9  O3B       24.7640  -10.3870   28.3520 O.3   318  NDP318     -0.2175
     10  C2B       23.9200   -9.3310   30.3840 C.3   318  NDP318      0.2314
     11  O2B       24.2430  -10.6030   30.9940 O.3   318  NDP318     -0.2630
     12  C1B       25.0960   -8.3880   30.5570 C.3   318  NDP318      0.3158
     13  N9A       25.0500   -7.6180   31.7870 N.pl3 318  NDP318     -0.1439
     14  C8A       23.9620   -6.9780   32.3140 C.3   318  NDP318      0.3377
     15  N7A       24.2340   -6.3350   33.4410 N.2   318  NDP318     -0.2095
     16  C5A       25.5670   -6.5660   33.6370 C.2   318  NDP318      0.2526
     17  C6A       26.4270   -6.1840   34.6710 C.2   318  NDP318      0.4393
     18  N6A       26.0080   -5.4470   35.7220 N.pl3 318  NDP318      0.2180
     19  N1A       27.7110   -6.6220   34.5880 N.2   318  NDP318      0.0021
     20  C2A       28.1100   -7.3480   33.5450 C.3   318  NDP318      0.5254
     21  N3A       27.3640   -7.7830   32.5290 N.2   318  NDP318     -0.0055
     22  C4A       26.0720   -7.3640   32.6240 C.2   318  NDP318      0.3518
     23  O3        22.0890   -5.4840   25.6810 O.3   318  NDP318     -0.2703
     24  PN        20.7030   -5.5850   24.8940 P.3   318  NDP318      0.2189
     25  O1N       19.8970   -6.7110   25.4530 O.3   318  NDP318     -0.4371
     26  O2N       21.0360   -5.6000   23.4530 O.2   318  NDP318     -0.5170
     27  O5D       19.9720   -4.1810   25.1340 O.3   318  NDP318     -0.3112
     28  C5D       19.0830   -3.9260   26.2640 C.3   318  NDP318      0.1813
     29  C4D       17.6400   -4.0480   25.8490 C.3   318  NDP318      0.1799
     30  O4D       17.3070   -3.0430   24.8560 O.3   318  NDP318     -0.3327
     31  C3D       17.2190   -5.3420   25.1470 C.3   318  NDP318      0.2158
     32  O3D       17.1530   -6.4630   26.0140 O.3   318  NDP318     -0.2175
     33  C2D       15.8790   -4.9270   24.5480 C.3   318  NDP318      0.2309
     34  O2D       14.9110   -4.8880   25.6080 O.3   318  NDP318     -0.2158
     35  C1D       16.2200   -3.4890   24.0610 C.3   318  NDP318      0.2263
     36  N1N       16.6900   -3.4890   22.6260 N.pl3 318  NDP318     -0.2787
     37  C2N       15.8160   -2.9470   21.7030 C.3   318  NDP318      0.1244
     38  C3N       16.1680   -2.9460   20.3550 C.2   318  NDP318      0.0544
     39  C7N       15.2900   -2.2670   19.3360 C.2   318  NDP318      0.2818
     40  O7N       15.5040   -2.5050   18.1450 O.2   318  NDP318     -0.2670
     41  N7N       14.3650   -1.4390   19.8040 N.am  318  NDP318     -0.0839
     42  C4N       17.3760   -3.5290   19.9370 C.2   318  NDP318      0.0033
     43  C5N       18.2670   -4.0030   20.9210 C.2   318  NDP318      0.0157
     44  C6N       17.9150   -3.9610   22.2470 C.2   318  NDP318      0.0633
     45  P2B       23.1910  -11.4860   31.8280 P.3   318  NDP318      0.5328
     46  O1X       21.8360  -11.2630   31.2480 O.2   318  NDP318     -0.2224
     47  O2X       23.7520  -12.8720   31.6050 O.3   318  NDP318     -0.1145
     48  O3X       23.3000  -11.0400   33.2650 O.3   318  NDP318     -0.1145
@<TRIPOS>BOND
     1    40    39    2
     2    39    41   am
     3    39    38    1
     4    42    38    2
     5    42    43    1
     6    38    37    1
     7    43    44    2
     8    37    36    1
     9    44    36    1
    10    36    35    1
    11    26    24    2
    12    35    33    1
    13    35    30    1
    14    33    31    1
    15    33    34    1
    16    30    29    1
    17    24    27    1
    18    24    25    1
    19    24    23    1
    20    27    28    1
    21    31    29    1
    22    31    32    1
    23    23     1    1
    24    29    28    1
    25     2     1    2
    26     1     4    1
    27     1     3    1
    28     4     5    1
    29     5     6    1
    30     9     8    1
    31     6     8    1
    32     6     7    1
    33     8    10    1
    34     7    12    1
    35    10    12    1
    36    10    11    1
    37    12    13    1
    38    11    45    1
    39    46    45    2
    40    47    45    1
    41    13    14    1
    42    13    22    1
    43    45    48    1
    44    14    15    1
    45    21    22    2
    46    21    20    1
    47    22    16    1
    48    15    16    2
    49    20    19    1
    50    16    17    1
    51    19    17    2
    52    17    18    1
