@<TRIPOS>MOLECULE
3ghs_LDT_A_1.pdb
 24 25 0 0 0
SMALL
GASTEIGER

@<TRIPOS>ATOM
      1  C2        15.7310   -9.3900   18.1110 C.ar  320  LDT320      0.0666
      2  C3        16.0600  -10.3440   15.5270 C.ar  320  LDT320      0.0071
      3  C4        16.6130   -8.7430   17.2510 C.ar  320  LDT320      0.1433
      4  C5        15.0570  -10.5240   17.6470 C.ar  320  LDT320      0.1432
      5  C6        15.1790  -11.0050   16.3600 C.ar  320  LDT320      0.0299
      6  C7        16.7510   -9.1880   15.9290 C.ar  320  LDT320      0.0556
      7 BR8        14.8920   -3.7350    9.6820 Br    320  LDT320     -0.0489
      8  F9        14.2350  -11.1450   18.4990 F     320  LDT320     -0.2041
      9  C11       17.6390   -8.4880   14.9570 C.2   320  LDT320      0.1039
     10  C13       18.3080   -6.3390   14.0980 C.3   320  LDT320      0.1414
     11  F14       19.2350   -4.3900   12.3880 F     320  LDT320     -0.2044
     12  O15       17.4340   -7.7150   17.6490 O.3   320  LDT320     -0.4636
     13  S16       18.5600   -9.3670   13.8920 S.2   320  LDT320     -0.0331
     14  N17       17.5660   -7.1890   14.9770 N.am  320  LDT320     -0.2257
     15  C20       16.9450   -6.8560   18.6680 C.3   320  LDT320      0.3186
     16  C24       17.4550   -5.7730   13.0070 C.ar  320  LDT320      0.0269
     17  C25       15.9340   -4.6280   10.9180 C.ar  320  LDT320      0.0368
     18  C26       16.1340   -6.2010   12.7490 C.ar  320  LDT320      0.0002
     19  C27       17.9800   -4.7950   12.1830 C.ar  320  LDT320      0.1383
     20  C28       17.2460   -4.2540   11.1300 C.ar  320  LDT320      0.0361
     21  C29       15.3760   -5.6430   11.7290 C.ar  320  LDT320      0.0066
     22  C32       15.7600   -6.0100   18.1610 C.2   320  LDT320      0.4084
     23  O33       15.0550   -5.4950   19.0810 O.co2 320  LDT320     -0.2415
     24  O34       15.5930   -5.8750   16.9460 O.co2 320  LDT320     -0.2415
@<TRIPOS>BOND
     1     7    17    1
     2    17    20   ar
     3    17    21   ar
     4    20    19   ar
     5    21    18   ar
     6    19    11    1
     7    19    16   ar
     8    18    16   ar
     9    16    10    1
    10    13     9    2
    11    10    14    1
    12     9    14    1
    13     9     6    1
    14     2     6   ar
    15     2     5   ar
    16     6     3   ar
    17     5     4   ar
    18    24    22   ar
    19     3    12    1
    20     3     1   ar
    21     4     1   ar
    22     4     8    1
    23    12    15    1
    24    22    15    1
    25    22    23   ar
