@<TRIPOS>MOLECULE
3ght_LDT_A_1.pdb
 24 25 0 0 0
SMALL
GASTEIGER

@<TRIPOS>ATOM
      1  C2        15.8440   -9.3710   18.1000 C.ar  320  LDT320      0.0666
      2  C3        16.0940  -10.3240   15.4790 C.ar  320  LDT320      0.0071
      3  C4        16.6780   -8.7260   17.1990 C.ar  320  LDT320      0.1433
      4  C5        15.1380  -10.5090   17.6470 C.ar  320  LDT320      0.1432
      5  C6        15.2370  -10.9840   16.3450 C.ar  320  LDT320      0.0299
      6  C7        16.7830   -9.1820   15.8800 C.ar  320  LDT320      0.0556
      7 BR8        14.9110   -3.7470    9.6640 Br    320  LDT320     -0.0489
      8  F9        14.3470  -11.1160   18.5340 F     320  LDT320     -0.2041
      9  C11       17.6620   -8.4570   14.9080 C.2   320  LDT320      0.1039
     10  C13       18.3050   -6.2840   14.0350 C.3   320  LDT320      0.1414
     11  F14       19.1960   -4.3770   12.2720 F     320  LDT320     -0.2044
     12  O15       17.4850   -7.6650   17.5840 O.3   320  LDT320     -0.4636
     13  S16       18.5650   -9.3280   13.8230 S.2   320  LDT320     -0.0331
     14  N17       17.5950   -7.1370   14.9380 N.am  320  LDT320     -0.2257
     15  C20       17.0120   -6.8220   18.6130 C.3   320  LDT320      0.3186
     16  C24       17.4330   -5.7370   12.9390 C.ar  320  LDT320      0.0269
     17  C25       15.8690   -4.6510   10.8730 C.ar  320  LDT320      0.0368
     18  C26       16.1020   -6.1580   12.7040 C.ar  320  LDT320      0.0002
     19  C27       17.9480   -4.7740   12.0840 C.ar  320  LDT320      0.1383
     20  C28       17.2010   -4.2420   11.0460 C.ar  320  LDT320      0.0361
     21  C29       15.3070   -5.6530   11.7010 C.ar  320  LDT320      0.0066
     22  C32       15.8100   -5.9830   18.1210 C.2   320  LDT320      0.4084
     23  O33       15.1110   -5.5020   19.0560 O.co2 320  LDT320     -0.2415
     24  O34       15.6290   -5.8640   16.9000 O.co2 320  LDT320     -0.2415
@<TRIPOS>BOND
     1     7    17    1
     2    17    20   ar
     3    17    21   ar
     4    20    19   ar
     5    21    18   ar
     6    19    11    1
     7    19    16   ar
     8    18    16   ar
     9    16    10    1
    10    13     9    2
    11    10    14    1
    12     9    14    1
    13     9     6    1
    14     2     6   ar
    15     2     5   ar
    16     6     3   ar
    17     5     4   ar
    18    24    22   ar
    19     3    12    1
    20     3     1   ar
    21    12    15    1
    22     4     1   ar
    23     4     8    1
    24    22    15    1
    25    22    23   ar
