@<TRIPOS>MOLECULE
3ght_NDP_A_1.pdb
 48 52 0 0 0
SMALL
GASTEIGER

@<TRIPOS>ATOM
      1  PA        22.7300   -4.7420   27.0150 P.3   318  NDP318      0.2189
      2  O1A       23.6470   -3.7010   26.4780 O.2   318  NDP318     -0.5170
      3  O2A       21.6720   -4.4080   27.9340 O.3   318  NDP318     -0.4371
      4  O5B       23.6690   -5.9290   27.5330 O.3   318  NDP318     -0.3112
      5  C5B       23.0720   -7.1540   28.0500 C.3   318  NDP318      0.1813
      6  C4B       24.2300   -8.0560   28.4000 C.3   318  NDP318      0.1820
      7  O4B       24.9830   -7.4420   29.4870 O.3   318  NDP318     -0.3136
      8  C3B       23.8150   -9.4420   28.8900 C.3   318  NDP318      0.2157
      9  O3B       24.7760  -10.3810   28.3620 O.3   318  NDP318     -0.2175
     10  C2B       23.9440   -9.3110   30.4070 C.3   318  NDP318      0.2314
     11  O2B       24.2730  -10.5910   31.0080 O.3   318  NDP318     -0.2630
     12  C1B       25.1070   -8.3770   30.5790 C.3   318  NDP318      0.3158
     13  N9A       25.0750   -7.6130   31.8060 N.pl3 318  NDP318     -0.1439
     14  C8A       23.9960   -6.9800   32.3450 C.3   318  NDP318      0.3377
     15  N7A       24.2600   -6.3350   33.4680 N.2   318  NDP318     -0.2095
     16  C5A       25.6080   -6.5680   33.6500 C.2   318  NDP318      0.2526
     17  C6A       26.4420   -6.1950   34.6920 C.2   318  NDP318      0.4393
     18  N6A       26.0460   -5.4580   35.7650 N.pl3 318  NDP318      0.2180
     19  N1A       27.7370   -6.6220   34.6090 N.2   318  NDP318      0.0021
     20  C2A       28.1400   -7.3630   33.5870 C.3   318  NDP318      0.5254
     21  N3A       27.3790   -7.7660   32.5400 N.2   318  NDP318     -0.0055
     22  C4A       26.1070   -7.3570   32.6400 C.2   318  NDP318      0.3518
     23  O3        22.1100   -5.4790   25.7140 O.3   318  NDP318     -0.2703
     24  PN        20.7250   -5.5750   24.9240 P.3   318  NDP318      0.2189
     25  O1N       19.9170   -6.6990   25.4880 O.3   318  NDP318     -0.4371
     26  O2N       21.0610   -5.5990   23.4760 O.2   318  NDP318     -0.5170
     27  O5D       19.9930   -4.1760   25.1530 O.3   318  NDP318     -0.3112
     28  C5D       19.0930   -3.9000   26.2760 C.3   318  NDP318      0.1813
     29  C4D       17.6480   -4.0340   25.8650 C.3   318  NDP318      0.1799
     30  O4D       17.3350   -3.0440   24.8620 O.3   318  NDP318     -0.3327
     31  C3D       17.2360   -5.3340   25.1430 C.3   318  NDP318      0.2158
     32  O3D       17.1650   -6.4400   26.0250 O.3   318  NDP318     -0.2175
     33  C2D       15.9010   -4.9180   24.5630 C.3   318  NDP318      0.2309
     34  O2D       14.9220   -4.8770   25.6040 O.3   318  NDP318     -0.2158
     35  C1D       16.2290   -3.4860   24.0640 C.3   318  NDP318      0.2263
     36  N1N       16.6940   -3.4830   22.6430 N.pl3 318  NDP318     -0.2787
     37  C2N       15.8180   -2.9340   21.7180 C.3   318  NDP318      0.1244
     38  C3N       16.1840   -2.9300   20.3660 C.2   318  NDP318      0.0544
     39  C7N       15.3120   -2.2620   19.3430 C.2   318  NDP318      0.2818
     40  O7N       15.5180   -2.4930   18.1560 O.2   318  NDP318     -0.2670
     41  N7N       14.3940   -1.4280   19.7920 N.am  318  NDP318     -0.0839
     42  C4N       17.3850   -3.4980   19.9580 C.2   318  NDP318      0.0033
     43  C5N       18.2690   -3.9950   20.9250 C.2   318  NDP318      0.0157
     44  C6N       17.9370   -3.9780   22.2450 C.2   318  NDP318      0.0633
     45  P2B       23.2030  -11.4770   31.8400 P.3   318  NDP318      0.5328
     46  O1X       21.8520  -11.2550   31.2670 O.2   318  NDP318     -0.2224
     47  O2X       23.7850  -12.8580   31.6430 O.3   318  NDP318     -0.1145
     48  O3X       23.3010  -11.0270   33.2720 O.3   318  NDP318     -0.1145
@<TRIPOS>BOND
     1    40    39    2
     2    39    41   am
     3    39    38    1
     4    42    38    2
     5    42    43    1
     6    38    37    1
     7    43    44    2
     8    37    36    1
     9    44    36    1
    10    36    35    1
    11    26    24    2
    12    35    33    1
    13    35    30    1
    14    33    31    1
    15    33    34    1
    16    30    29    1
    17    24    27    1
    18    24    25    1
    19    24    23    1
    20    31    29    1
    21    31    32    1
    22    27    28    1
    23    23     1    1
    24    29    28    1
    25     2     1    2
    26     1     4    1
    27     1     3    1
    28     4     5    1
    29     5     6    1
    30     9     8    1
    31     6     8    1
    32     6     7    1
    33     8    10    1
    34     7    12    1
    35    10    12    1
    36    10    11    1
    37    12    13    1
    38    11    45    1
    39    46    45    2
    40    47    45    1
    41    13    14    1
    42    13    22    1
    43    45    48    1
    44    14    15    1
    45    21    22    2
    46    21    20    1
    47    22    16    1
    48    15    16    2
    49    20    19    1
    50    16    17    1
    51    19    17    2
    52    17    18    1
