@<TRIPOS>MOLECULE
3ghu_LDT_A_1.pdb
 24 25 0 0 0
SMALL
GASTEIGER

@<TRIPOS>ATOM
      1  C2        15.8860   -9.3620   18.0900 C.ar  320  LDT320      0.0666
      2  C3        16.1120  -10.3040   15.4200 C.ar  320  LDT320      0.0071
      3  C4        16.6820   -8.6960   17.1490 C.ar  320  LDT320      0.1433
      4  C5        15.1650  -10.5010   17.6340 C.ar  320  LDT320      0.1432
      5  C6        15.2360  -10.9690   16.3090 C.ar  320  LDT320      0.0299
      6  C7        16.8140   -9.1530   15.8410 C.ar  320  LDT320      0.0556
      7 BR8        14.9500   -3.7440    9.6450 Br    320  LDT320     -0.0489
      8  F9        14.3910  -11.1280   18.4910 F     320  LDT320     -0.2041
      9  C11       17.6420   -8.4020   14.8610 C.2   320  LDT320      0.1039
     10  C13       18.2880   -6.2790   13.9320 C.3   320  LDT320      0.1414
     11  F14       19.1800   -4.3410   12.1970 F     320  LDT320     -0.2044
     12  O15       17.5250   -7.6530   17.5320 O.3   320  LDT320     -0.4636
     13  S16       18.5470   -9.2990   13.7510 S.2   320  LDT320     -0.0331
     14  N17       17.5610   -7.0970   14.8810 N.am  320  LDT320     -0.2257
     15  C20       17.0620   -6.8110   18.5800 C.3   320  LDT320      0.3186
     16  C24       17.3990   -5.7210   12.8470 C.ar  320  LDT320      0.0269
     17  C25       15.8720   -4.6620   10.8310 C.ar  320  LDT320      0.0368
     18  C26       16.0590   -6.1440   12.6510 C.ar  320  LDT320      0.0002
     19  C27       17.9300   -4.7480   11.9990 C.ar  320  LDT320      0.1383
     20  C28       17.1830   -4.2280   10.9650 C.ar  320  LDT320      0.0361
     21  C29       15.2560   -5.6440   11.6300 C.ar  320  LDT320      0.0066
     22  C32       15.8550   -5.9730   18.0640 C.2   320  LDT320      0.4084
     23  O33       15.1610   -5.5180   19.0080 O.co2 320  LDT320     -0.2415
     24  O34       15.6740   -5.8470   16.8490 O.co2 320  LDT320     -0.2415
@<TRIPOS>BOND
     1     7    17    1
     2    17    20   ar
     3    17    21   ar
     4    20    19   ar
     5    21    18   ar
     6    19    11    1
     7    19    16   ar
     8    18    16   ar
     9    16    10    1
    10    13     9    2
    11    10    14    1
    12     9    14    1
    13     9     6    1
    14     2     6   ar
    15     2     5   ar
    16     6     3   ar
    17     5     4   ar
    18    24    22   ar
    19     3    12    1
    20     3     1   ar
    21    12    15    1
    22     4     1   ar
    23     4     8    1
    24    22    15    1
    25    22    23   ar
