@<TRIPOS>MOLECULE
3ghu_NDP_A_1.pdb
 48 52 0 0 0
SMALL
GASTEIGER

@<TRIPOS>ATOM
      1  PA        22.7490   -4.7240   27.0260 P.3   318  NDP318      0.2189
      2  O1A       23.6530   -3.6930   26.4870 O.2   318  NDP318     -0.5170
      3  O2A       21.6960   -4.3880   27.9600 O.3   318  NDP318     -0.4371
      4  O5B       23.6720   -5.9260   27.5440 O.3   318  NDP318     -0.3112
      5  C5B       23.1020   -7.1100   28.0770 C.3   318  NDP318      0.1813
      6  C4B       24.2500   -8.0430   28.4280 C.3   318  NDP318      0.1820
      7  O4B       24.9920   -7.4270   29.5070 O.3   318  NDP318     -0.3136
      8  C3B       23.8110   -9.4170   28.8950 C.3   318  NDP318      0.2157
      9  O3B       24.8010  -10.3660   28.3950 O.3   318  NDP318     -0.2175
     10  C2B       23.9550   -9.2900   30.4290 C.3   318  NDP318      0.2314
     11  O2B       24.2650  -10.5600   31.0410 O.3   318  NDP318     -0.2630
     12  C1B       25.1160   -8.3510   30.5920 C.3   318  NDP318      0.3158
     13  N9A       25.1090   -7.5910   31.8250 N.pl3 318  NDP318     -0.1439
     14  C8A       24.0210   -6.9510   32.3500 C.3   318  NDP318      0.3377
     15  N7A       24.3010   -6.3250   33.4860 N.2   318  NDP318     -0.2095
     16  C5A       25.6410   -6.5480   33.6680 C.2   318  NDP318      0.2526
     17  C6A       26.4600   -6.1930   34.7250 C.2   318  NDP318      0.4393
     18  N6A       26.0780   -5.4530   35.7740 N.pl3 318  NDP318      0.2180
     19  N1A       27.7610   -6.6100   34.6340 N.2   318  NDP318      0.0021
     20  C2A       28.1880   -7.3690   33.6200 C.3   318  NDP318      0.5254
     21  N3A       27.4070   -7.7700   32.5670 N.2   318  NDP318     -0.0055
     22  C4A       26.1370   -7.3260   32.6440 C.2   318  NDP318      0.3518
     23  O3        22.1240   -5.4900   25.7420 O.3   318  NDP318     -0.2703
     24  PN        20.7480   -5.5800   24.9410 P.3   318  NDP318      0.2189
     25  O1N       19.9510   -6.6970   25.4970 O.3   318  NDP318     -0.4371
     26  O2N       21.0890   -5.6110   23.4800 O.2   318  NDP318     -0.5170
     27  O5D       20.0080   -4.1770   25.1490 O.3   318  NDP318     -0.3112
     28  C5D       19.1300   -3.9110   26.2600 C.3   318  NDP318      0.1813
     29  C4D       17.6650   -4.0340   25.8370 C.3   318  NDP318      0.1799
     30  O4D       17.3630   -3.0490   24.8580 O.3   318  NDP318     -0.3327
     31  C3D       17.2250   -5.3350   25.1490 C.3   318  NDP318      0.2158
     32  O3D       17.1770   -6.4260   26.0340 O.3   318  NDP318     -0.2175
     33  C2D       15.9090   -4.9030   24.5570 C.3   318  NDP318      0.2309
     34  O2D       14.9120   -4.8700   25.5800 O.3   318  NDP318     -0.2158
     35  C1D       16.2370   -3.4730   24.0560 C.3   318  NDP318      0.2263
     36  N1N       16.6880   -3.4670   22.6380 N.pl3 318  NDP318     -0.2787
     37  C2N       15.8270   -2.9050   21.7020 C.3   318  NDP318      0.1244
     38  C3N       16.1740   -2.9270   20.3540 C.2   318  NDP318      0.0544
     39  C7N       15.3210   -2.2690   19.3130 C.2   318  NDP318      0.2818
     40  O7N       15.5250   -2.4580   18.1410 O.2   318  NDP318     -0.2670
     41  N7N       14.3990   -1.4250   19.7820 N.am  318  NDP318     -0.0839
     42  C4N       17.4070   -3.4800   19.9460 C.2   318  NDP318      0.0033
     43  C5N       18.2700   -4.0030   20.8950 C.2   318  NDP318      0.0157
     44  C6N       17.9430   -3.9770   22.2280 C.2   318  NDP318      0.0633
     45  P2B       23.2060  -11.4570   31.8460 P.3   318  NDP318      0.5328
     46  O1X       21.8480  -11.2270   31.2770 O.2   318  NDP318     -0.2224
     47  O2X       23.7800  -12.8430   31.6860 O.3   318  NDP318     -0.1145
     48  O3X       23.3060  -10.9910   33.2750 O.3   318  NDP318     -0.1145
@<TRIPOS>BOND
     1    40    39    2
     2    39    41   am
     3    39    38    1
     4    42    38    2
     5    42    43    1
     6    38    37    1
     7    43    44    2
     8    37    36    1
     9    44    36    1
    10    36    35    1
    11    26    24    2
    12    35    33    1
    13    35    30    1
    14    33    31    1
    15    33    34    1
    16    30    29    1
    17    24    27    1
    18    24    25    1
    19    24    23    1
    20    31    29    1
    21    31    32    1
    22    27    28    1
    23    23     1    1
    24    29    28    1
    25     2     1    2
    26     1     4    1
    27     1     3    1
    28     4     5    1
    29     5     6    1
    30     9     8    1
    31     6     8    1
    32     6     7    1
    33     8    10    1
    34     7    12    1
    35    10    12    1
    36    10    11    1
    37    12    13    1
    38    11    45    1
    39    46    45    2
    40    47    45    1
    41    13    14    1
    42    13    22    1
    43    45    48    1
    44    14    15    1
    45    21    22    2
    46    21    20    1
    47    22    16    1
    48    15    16    2
    49    20    19    1
    50    16    17    1
    51    19    17    2
    52    17    18    1
