@<TRIPOS>MOLECULE
3ghv_GHC_A_1.pdb
 32 34 0 0 0
SMALL
GASTEIGER

@<TRIPOS>ATOM
      1  C4       -15.2050   11.9570  -24.6690 C.2   187  GHC187      0.1831
      2  C5       -13.8230   11.9950  -24.9090 C.2   187  GHC187      0.1346
      3  C6       -12.9730   12.1350  -23.8180 C.1   187  GHC187      0.2190
      4  C13      -14.6280   11.6090  -28.6540 C.3   187  GHC187      0.0162
      5  N1       -13.5070   12.2320  -22.5310 N.2   187  GHC187     -0.2500
      6  N2       -15.4160   12.2780  -21.1410 N.pl3 187  GHC187     -0.0226
      7  C3       -14.5950   11.7530  -27.1310 C.3   187  GHC187      0.0834
      8  N3       -15.6990   12.0510  -23.4250 N.2   187  GHC187     -0.3181
      9  C29      -14.7850   10.1430  -29.0630 C.3   187  GHC187      0.0013
     10  S4       -15.9710   11.7820  -26.1700 S.3   187  GHC187     -0.0765
     11  C2       -14.8940   12.1860  -22.3610 C.1   187  GHC187      0.2523
     12  O6       -11.7550   12.1730  -23.9850 O.2   187  GHC187     -0.2084
     13  C1       -13.5040   11.8820  -26.2740 C.2   187  GHC187      0.0324
     14  SAT      -11.8530   11.9000  -26.8560 S.3   187  GHC187     -0.0896
     15  CAZ      -11.4980   10.1870  -26.8200 C.ar  187  GHC187      0.0292
     16  CAJ      -12.2320    9.3420  -25.9950 C.ar  187  GHC187      0.0066
     17  CAL      -11.9490    7.9810  -25.9670 C.ar  187  GHC187      0.0051
     18  CAI      -10.4820    9.6710  -27.6170 C.ar  187  GHC187      0.0066
     19  CAK      -10.2000    8.3110  -27.5890 C.ar  187  GHC187      0.0051
     20  CBA      -10.9330    7.4650  -26.7640 C.ar  187  GHC187      0.0551
     21  CAX      -10.6220    5.9680  -26.7330 C.2   187  GHC187      0.2652
     22  OAE       -9.7110    5.4960  -27.4120 O.2   187  GHC187     -0.2684
     23  NAS      -11.4020    5.2480  -25.9320 N.am  187  GHC187     -0.1918
     24  CAP      -11.2380    3.7940  -25.7860 C.3   187  GHC187      0.1986
     25  CAW      -12.6140    3.1310  -25.6990 C.2   187  GHC187      0.3842
     26  OAG      -13.5710    3.8540  -25.3490 O.co2 187  GHC187     -0.2437
     27  OAD      -12.6770    1.9160  -25.9850 O.co2 187  GHC187     -0.2437
     28  CBG      -10.4450    3.4950  -24.5110 C.3   187  GHC187      0.0451
     29  CAN       -9.0300    4.0700  -24.5990 C.3   187  GHC187      0.1164
     30  CAV       -8.1550    3.5470  -23.4580 C.2   187  GHC187      0.3649
     31  OAF       -8.6090    2.5980  -22.7830 O.co2 187  GHC187     -0.2457
     32  OAC       -7.0510    4.1080  -23.2870 O.co2 187  GHC187     -0.2457
@<TRIPOS>BOND
     1     9     4    1
     2     4     7    1
     3    18    19   ar
     4    18    15   ar
     5    19    20   ar
     6    22    21    2
     7     7    13    1
     8     7    10    1
     9    14    15    1
    10    14    13    1
    11    15    16   ar
    12    20    21    1
    13    20    17   ar
    14    21    23   am
    15    13     2    2
    16    10     1    1
    17    16    17   ar
    18    27    25   ar
    19    23    24    1
    20    24    25    1
    21    24    28    1
    22    25    26   ar
    23     2     1    1
    24     2     3    1
    25     1     8    2
    26    29    28    1
    27    29    30    1
    28    12     3    2
    29     3     5    2
    30    30    32   ar
    31    30    31   ar
    32     8    11    2
    33     5    11    2
    34    11     6    1
