@<TRIPOS>MOLECULE
3ghv_NDP_A_1.pdb
 48 52 0 0 0
SMALL
GASTEIGER

@<TRIPOS>ATOM
      1  PA       -16.2650   16.5860  -36.1660 P.3   188  NDP188      0.2189
      2  O1A      -15.9020   15.3710  -35.4810 O.3   188  NDP188     -0.4371
      3  O2A      -17.5480   17.1570  -35.8860 O.2   188  NDP188     -0.5170
      4  O5B      -16.0660   16.2940  -37.7300 O.3   188  NDP188     -0.3112
      5  C5B      -16.5130   17.3000  -38.6450 C.3   188  NDP188      0.1813
      6  C4B      -16.8860   16.5880  -39.9550 C.3   188  NDP188      0.1820
      7  O4B      -17.9360   15.6090  -39.6530 O.3   188  NDP188     -0.3136
      8  C3B      -17.5750   17.5200  -40.9360 C.3   188  NDP188      0.2157
      9  O3B      -16.5930   18.1360  -41.8340 O.3   188  NDP188     -0.2175
     10  C2B      -18.4570   16.5410  -41.6430 C.3   188  NDP188      0.2314
     11  O2B      -17.8680   15.7390  -42.6290 O.3   188  NDP188     -0.2630
     12  C1B      -19.0060   15.6520  -40.6070 C.3   188  NDP188      0.3158
     13  N9A      -20.1500   16.1500  -39.8930 N.pl3 188  NDP188     -0.1439
     14  C8A      -20.2000   16.7590  -38.6660 C.3   188  NDP188      0.3377
     15  N7A      -21.4720   16.9410  -38.2490 N.2   188  NDP188     -0.2095
     16  C5A      -22.2480   16.3940  -39.2630 C.2   188  NDP188      0.2526
     17  C6A      -23.6100   16.2930  -39.3990 C.2   188  NDP188      0.4393
     18  N6A      -24.4760   16.7170  -38.4380 N.pl3 188  NDP188      0.2180
     19  N1A      -24.0680   15.6290  -40.4790 N.2   188  NDP188      0.0021
     20  C2A      -23.1910   15.1620  -41.4270 C.3   188  NDP188      0.5254
     21  N3A      -21.8570   15.3100  -41.3540 N.2   188  NDP188     -0.0055
     22  C4A      -21.4060   15.8930  -40.2360 C.2   188  NDP188      0.3518
     23  O3       -15.1100   17.6720  -35.9530 O.3   188  NDP188     -0.2703
     24  PN       -14.5640   18.6370  -34.7950 P.3   188  NDP188      0.2189
     25  O1N      -15.6980   19.4070  -34.2430 O.3   188  NDP188     -0.4371
     26  O2N      -13.3350   19.3260  -35.3600 O.2   188  NDP188     -0.5170
     27  O5D      -14.0900   17.6720  -33.6810 O.3   188  NDP188     -0.3112
     28  C5D      -12.8690   16.9480  -33.7210 C.3   188  NDP188      0.1813
     29  C4D      -11.8610   17.5230  -32.7180 C.3   188  NDP188      0.1799
     30  O4D      -12.5040   17.6020  -31.3870 O.3   188  NDP188     -0.3327
     31  C3D      -10.6740   16.7030  -32.5160 C.3   188  NDP188      0.2158
     32  O3D       -9.5810   17.5710  -32.0030 O.3   188  NDP188     -0.2175
     33  C2D      -11.0260   15.7420  -31.4080 C.3   188  NDP188      0.2309
     34  O2D       -9.9160   15.2600  -30.7080 O.3   188  NDP188     -0.2158
     35  C1D      -11.8930   16.6580  -30.5320 C.3   188  NDP188      0.2263
     36  N1N      -12.9540   16.0300  -29.7460 N.pl3 188  NDP188     -0.2787
     37  C2N      -12.8530   16.0790  -28.3890 C.3   188  NDP188      0.1244
     38  C3N      -13.8890   15.6060  -27.5980 C.2   188  NDP188      0.0544
     39  C7N      -13.7980   15.7620  -26.1160 C.2   188  NDP188      0.2818
     40  O7N      -14.7190   15.2780  -25.4020 O.2   188  NDP188     -0.2670
     41  N7N      -12.8160   16.4960  -25.5430 N.am  188  NDP188     -0.0839
     42  C4N      -15.0300   15.0480  -28.2020 C.2   188  NDP188      0.0033
     43  C5N      -15.0710   14.9370  -29.6040 C.2   188  NDP188      0.0157
     44  C6N      -14.0270   15.4250  -30.3770 C.2   188  NDP188      0.0633
     45  P2B      -18.0450   15.9140  -44.2140 P.3   188  NDP188      0.5328
     46  O1X      -17.3090   17.1810  -44.5750 O.3   188  NDP188     -0.1145
     47  O2X      -17.4770   14.6970  -44.7450 O.2   188  NDP188     -0.2224
     48  O3X      -19.5050   16.0660  -44.5010 O.3   188  NDP188     -0.1145
@<TRIPOS>BOND
     1    47    45    2
     2    46    45    1
     3    48    45    1
     4    45    11    1
     5    11    10    1
     6     9     8    1
     7    10     8    1
     8    10    12    1
     9    20    21    1
    10    20    19    1
    11    21    22    2
    12     8     6    1
    13    12    13    1
    14    12     7    1
    15    19    17    2
    16    22    13    1
    17    22    16    1
    18     6     7    1
    19     6     5    1
    20    13    14    1
    21    17    16    1
    22    17    18    1
    23    16    15    2
    24    14    15    1
    25     5     4    1
    26     4     1    1
    27     1    23    1
    28     1     3    2
    29     1     2    1
    30    23    24    1
    31    26    24    2
    32    24    25    1
    33    24    27    1
    34    28    27    1
    35    28    29    1
    36    29    31    1
    37    29    30    1
    38    31    32    1
    39    31    33    1
    40    33    34    1
    41    33    35    1
    42    30    35    1
    43    35    36    1
    44    44    36    1
    45    44    43    2
    46    36    37    1
    47    43    42    1
    48    37    38    1
    49    42    38    2
    50    38    39    1
    51    39    41   am
    52    39    40    2
