@<TRIPOS>MOLECULE
3ghw_NDP_A_1.pdb
 48 52 0 0 0
SMALL
GASTEIGER

@<TRIPOS>ATOM
      1  PA        -6.1960   22.4500   10.0990 P.3   188  NDP188      0.2189
      2  O1A       -5.3570   21.5500    9.4270 O.2   188  NDP188     -0.5170
      3  O2A       -6.0680   23.8350    9.7920 O.3   188  NDP188     -0.4371
      4  O5B       -6.0350   22.1470   11.6700 O.3   188  NDP188     -0.3112
      5  C5B       -6.6530   23.0370   12.5960 C.3   188  NDP188      0.1813
      6  C4B       -5.8760   22.9490   13.9280 C.3   188  NDP188      0.1820
      7  O4B       -4.5210   23.3920   13.6230 O.3   188  NDP188     -0.3136
      8  C3B       -6.3550   24.0510   14.8860 C.3   188  NDP188      0.2157
      9  O3B       -7.4100   23.4790   15.7510 O.3   188  NDP188     -0.2175
     10  C2B       -5.1210   24.3020   15.6220 C.3   188  NDP188      0.2314
     11  O2B       -4.7340   23.4060   16.5630 O.3   188  NDP188     -0.2630
     12  C1B       -4.0570   24.4020   14.6030 C.3   188  NDP188      0.3158
     13  N9A       -3.9240   25.6210   13.8870 N.pl3 188  NDP188     -0.1439
     14  C8A       -4.4390   26.0170   12.6420 C.3   188  NDP188      0.3377
     15  N7A       -3.8850   27.1550   12.2630 N.2   188  NDP188     -0.2095
     16  C5A       -3.0240   27.5650   13.2250 C.2   188  NDP188      0.2526
     17  C6A       -2.2410   28.6640   13.4100 C.2   188  NDP188      0.4393
     18  N6A       -2.1470   29.6880   12.4700 N.pl3 188  NDP188      0.2180
     19  N1A       -1.4030   28.7050   14.4950 N.2   188  NDP188      0.0021
     20  C2A       -1.4220   27.7320   15.4280 C.3   188  NDP188      0.5254
     21  N3A       -2.2440   26.6560   15.3570 N.2   188  NDP188     -0.0055
     22  C4A       -3.0290   26.5620   14.2000 C.2   188  NDP188      0.3518
     23  O3        -7.7400   21.9800    9.8570 O.3   188  NDP188     -0.2703
     24  PN        -8.8540   22.0100    8.7670 P.3   188  NDP188      0.2189
     25  O1N      -10.0650   21.3170    9.3600 O.3   188  NDP188     -0.4371
     26  O2N       -8.9520   23.3310    8.1840 O.2   188  NDP188     -0.5170
     27  O5D       -8.2410   21.1190    7.6790 O.3   188  NDP188     -0.3112
     28  C5D       -8.2340   19.6590    7.6970 C.3   188  NDP188      0.1813
     29  C4D       -9.2720   19.1030    6.6610 C.3   188  NDP188      0.1799
     30  O4D       -8.9440   19.6710    5.3070 O.3   188  NDP188     -0.3327
     31  C3D       -9.1950   17.6540    6.4940 C.3   188  NDP188      0.2158
     32  O3D      -10.4480   17.1580    5.9320 O.3   188  NDP188     -0.2175
     33  C2D       -8.1470   17.4680    5.3750 C.3   188  NDP188      0.2309
     34  O2D       -8.2670   16.2490    4.6270 O.3   188  NDP188     -0.2158
     35  C1D       -8.4890   18.6720    4.5100 C.3   188  NDP188      0.2263
     36  N1N       -7.3800   19.2740    3.6950 N.pl3 188  NDP188     -0.2787
     37  C2N       -7.4930   19.2050    2.3110 C.3   188  NDP188      0.1244
     38  C3N       -6.5750   19.9050    1.5280 C.2   188  NDP188      0.0544
     39  C7N       -6.7550   19.8260    0.0240 C.2   188  NDP188      0.2818
     40  O7N       -5.8790   20.4060   -0.6760 O.2   188  NDP188     -0.2670
     41  N7N       -7.9090   19.4000   -0.4930 N.am  188  NDP188     -0.0839
     42  C4N       -5.5140   20.5510    2.1180 C.2   188  NDP188      0.0033
     43  C5N       -5.3850   20.5110    3.5370 C.2   188  NDP188      0.0157
     44  C6N       -6.3450   19.8610    4.3570 C.2   188  NDP188      0.0633
     45  P2B       -4.7170   23.6630   18.1890 P.3   188  NDP188      0.5328
     46  O1X       -3.9750   22.5280   18.7120 O.3   188  NDP188     -0.1145
     47  O2X       -6.2040   23.6450   18.6510 O.3   188  NDP188     -0.1145
     48  O3X       -4.1360   24.9920   18.4430 O.2   188  NDP188     -0.2224
@<TRIPOS>BOND
     1    40    39    2
     2    41    39   am
     3    39    38    1
     4    38    42    2
     5    38    37    1
     6    42    43    1
     7    37    36    1
     8    43    44    2
     9    36    44    1
    10    36    35    1
    11    35    30    1
    12    35    33    1
    13    34    33    1
    14    30    29    1
    15    33    31    1
    16    32    31    1
    17    31    29    1
    18    29    28    1
    19    27    28    1
    20    27    24    1
    21    26    24    2
    22    24    25    1
    23    24    23    1
    24     2     1    2
    25     3     1    1
    26    23     1    1
    27     1     4    1
    28     4     5    1
    29    15    14    1
    30    15    16    2
    31    18    17    1
    32     5     6    1
    33    14    13    1
    34    16    17    1
    35    16    22    1
    36    17    19    2
    37     7     6    1
    38     7    12    1
    39    13    22    1
    40    13    12    1
    41     6     8    1
    42    22    21    2
    43    19    20    1
    44    12    10    1
    45     8    10    1
    46     8     9    1
    47    21    20    1
    48    10    11    1
    49    11    45    1
    50    45    48    2
    51    45    47    1
    52    45    46    1
