@<TRIPOS>MOLECULE
3ghw_GHW_A_1.pdb
 31 33 0 0 0
SMALL
GASTEIGER

@<TRIPOS>ATOM
      1  C4        -2.9980   19.2780   -1.3860 C.2   187  GHW187      0.1831
      2  C5        -3.5390   18.0360   -1.1630 C.2   187  GHW187      0.1346
      3  C6        -4.0430   17.3040   -2.2850 C.1   187  GHW187      0.2190
      4  C13       -2.7060   18.5750    2.5570 C.3   187  GHW187      0.0174
      5  N1        -3.7350   17.8880   -3.5080 N.2   187  GHW187     -0.2500
      6  N2        -2.9710   19.6300   -4.9030 N.pl3 187  GHW187     -0.0226
      7  C3        -2.9990   18.6910    1.0110 C.3   187  GHW187      0.0834
      8  N3        -2.7700   19.8440   -2.6380 N.2   187  GHW187     -0.3181
      9  S4        -2.4780   20.0100    0.0950 S.3   187  GHW187     -0.0765
     10  C2        -3.1540   19.1130   -3.6360 C.1   187  GHW187      0.2523
     11  O6        -4.6090   16.1960   -2.2750 O.2   187  GHW187     -0.2084
     12  C1        -3.5870   17.6860    0.2340 C.2   187  GHW187      0.0324
     13  SAT       -4.2610   16.2320    0.9780 S.3   187  GHW187     -0.0896
     14  CAZ       -2.8740   15.0650    0.9310 C.ar  187  GHW187      0.0292
     15  CAJ       -3.0570   13.8910    1.6570 C.ar  187  GHW187      0.0066
     16  CAL       -2.0300   12.9170    1.6110 C.ar  187  GHW187      0.0051
     17  CAI       -1.7890   15.2870    0.1690 C.ar  187  GHW187      0.0066
     18  CAK       -0.8000   14.3570    0.1350 C.ar  187  GHW187      0.0051
     19  CBA       -0.9030   13.1740    0.8770 C.ar  187  GHW187      0.0551
     20  CAX        0.2150   12.2070    0.8130 C.2   187  GHW187      0.2652
     21  OAE        0.0690   11.0970    1.3960 O.2   187  GHW187     -0.2684
     22  NAS        1.3320   12.5390    0.1560 N.am  187  GHW187     -0.1918
     23  CAP        2.5160   11.6500    0.0990 C.3   187  GHW187      0.1986
     24  CAW        3.6950   12.5550   -0.3870 C.2   187  GHW187      0.3842
     25  OAG        3.4950   13.7760   -0.7020 O.co2 187  GHW187     -0.2437
     26  OAD        4.8460   11.9930   -0.3190 O.co2 187  GHW187     -0.2437
     27  CBG        2.3190   10.4740   -0.9350 C.3   187  GHW187      0.0451
     28  CAN        2.0740   11.0180   -2.3560 C.3   187  GHW187      0.1164
     29  CAV        1.7300    9.9280   -3.3620 C.2   187  GHW187      0.3649
     30  OXT        1.3650    8.8240   -2.8950 O.co2 187  GHW187     -0.2457
     31  OAC        1.5980   10.2630   -4.5590 O.co2 187  GHW187     -0.2457
@<TRIPOS>BOND
     1     6    10    1
     2    31    29   ar
     3    10     5    2
     4    10     8    2
     5     5     3    2
     6    29    30   ar
     7    29    28    1
     8     8     1    2
     9    28    27    1
    10     3    11    2
    11     3     2    1
    12     1     2    1
    13     1     9    1
    14     2    12    2
    15    27    23    1
    16    25    24   ar
    17    24    26   ar
    18    24    23    1
    19     9     7    1
    20    23    22    1
    21    18    17   ar
    22    18    19   ar
    23    22    20   am
    24    17    14   ar
    25    12    13    1
    26    12     7    1
    27    20    19    1
    28    20    21    2
    29    19    16   ar
    30    14    13    1
    31    14    15   ar
    32     7     4    1
    33    16    15   ar
