@<TRIPOS>MOLECULE
3ghz_POP_B_1.pdb
 10 9 0 0 0
SMALL
GASTEIGER

@<TRIPOS>ATOM
      1  P1        61.5510   27.3370   -5.9530 P.3   301  POP301      0.4130
      2  P1        61.8480   27.3320   -5.6810 P.3   301  POP301      0.3950
      3  O1        60.5860   28.4950   -5.9820 O.2   301  POP301     -0.2669
      4  O2        62.0130   27.2150   -4.5180 O.2   301  POP301     -0.2688
      5  O3        60.8630   26.0940   -6.4350 O.3   301  POP301     -0.1482
      6  O         62.6430   27.8350   -6.9910 O.3   301  POP301     -0.2115
      7  P2        64.2310   27.5100   -6.9250 P.3   301  POP301      0.5380
      8  O4        64.3150   26.1490   -6.3340 O.3   301  POP301     -0.1143
      9  O5        64.7520   28.6070   -6.0560 O.3   301  POP301     -0.1143
     10  O6        64.6350   27.5750   -8.3710 O.2   301  POP301     -0.2221
@<TRIPOS>BOND
     1    10     7    2
     2     6     7    1
     3     6     2    1
     4     7     8    1
     5     7     9    1
     6     5     1    1
     7     3     1    2
     8     1     2    1
     9     2     4    2
