@<TRIPOS>MOLECULE
3gi2_NDP_A_1.pdb
 48 52 0 0 0
SMALL
GASTEIGER

@<TRIPOS>ATOM
      1  PA       -16.3620  -16.5960   10.1050 P.3   188  NDP188      0.2189
      2  O1A      -16.0030  -15.3740    9.4110 O.2   188  NDP188     -0.5170
      3  O2A      -17.6660  -17.1670    9.8000 O.3   188  NDP188     -0.4371
      4  O5B      -16.1500  -16.3380   11.6780 O.3   188  NDP188     -0.3112
      5  C5B      -16.6320  -17.3550   12.6100 C.3   188  NDP188      0.1813
      6  C4B      -17.0220  -16.5890   13.9400 C.3   188  NDP188      0.1820
      7  O4B      -18.0550  -15.6440   13.6090 O.3   188  NDP188     -0.3136
      8  C3B      -17.6710  -17.5840   14.8730 C.3   188  NDP188      0.2157
      9  O3B      -16.6480  -18.1390   15.7290 O.3   188  NDP188     -0.2175
     10  C2B      -18.4690  -16.5590   15.5720 C.3   188  NDP188      0.2314
     11  O2B      -17.9100  -15.7770   16.5640 O.3   188  NDP188     -0.2630
     12  C1B      -19.1730  -15.7770   14.5670 C.3   188  NDP188      0.3158
     13  N9A      -20.3010  -16.2410   13.7940 N.pl3 188  NDP188     -0.1439
     14  C8A      -20.3150  -16.8460   12.5870 C.3   188  NDP188      0.3377
     15  N7A      -21.5780  -16.9410   12.2320 N.2   188  NDP188     -0.2095
     16  C5A      -22.3560  -16.3680   13.1910 C.2   188  NDP188      0.2526
     17  C6A      -23.7310  -16.2430   13.3230 C.2   188  NDP188      0.4393
     18  N6A      -24.6250  -16.6690   12.3730 N.pl3 188  NDP188      0.2180
     19  N1A      -24.1680  -15.5580   14.4330 N.2   188  NDP188      0.0021
     20  C2A      -23.3010  -15.0860   15.4010 C.3   188  NDP188      0.5254
     21  N3A      -21.9850  -15.2650   15.2750 N.2   188  NDP188     -0.0055
     22  C4A      -21.5370  -15.9190   14.1860 C.2   188  NDP188      0.3518
     23  O3       -15.1780  -17.7160    9.8830 O.3   188  NDP188     -0.2703
     24  PN       -14.6380  -18.6880    8.7410 P.3   188  NDP188      0.2189
     25  O1N      -13.4290  -19.3760    9.3710 O.3   188  NDP188     -0.4371
     26  O2N      -15.7870  -19.4690    8.2340 O.2   188  NDP188     -0.5170
     27  O5D      -14.1290  -17.7240    7.6410 O.3   188  NDP188     -0.3112
     28  C5D      -12.8700  -16.9120    7.7420 C.3   188  NDP188      0.1813
     29  C4D      -11.9300  -17.5690    6.6830 C.3   188  NDP188      0.1799
     30  O4D      -12.5670  -17.6030    5.3240 O.3   188  NDP188     -0.3327
     31  C3D      -10.7000  -16.7890    6.4780 C.3   188  NDP188      0.2158
     32  O3D       -9.6530  -17.6810    5.9500 O.3   188  NDP188     -0.2175
     33  C2D      -11.1090  -15.8000    5.3290 C.3   188  NDP188      0.2309
     34  O2D       -9.9820  -15.2720    4.5710 O.3   188  NDP188     -0.2158
     35  C1D      -11.9030  -16.7180    4.4300 C.3   188  NDP188      0.2263
     36  N1N      -13.0340  -16.0940    3.6900 N.pl3 188  NDP188     -0.2787
     37  C2N      -12.8990  -16.1210    2.3120 C.3   188  NDP188      0.1244
     38  C3N      -13.9800  -15.6900    1.5250 C.2   188  NDP188      0.0544
     39  C7N      -13.8840  -15.8250    0.0490 C.2   188  NDP188      0.2818
     40  O7N      -14.8080  -15.3130   -0.6120 O.2   188  NDP188     -0.2670
     41  N7N      -12.8910  -16.5760   -0.4500 N.am  188  NDP188     -0.0839
     42  C4N      -15.0480  -15.0900    2.1660 C.2   188  NDP188      0.0033
     43  C5N      -15.1300  -14.9870    3.5810 C.2   188  NDP188      0.0157
     44  C6N      -14.0680  -15.4430    4.3900 C.2   188  NDP188      0.0633
     45  P2B      -18.1550  -15.8900   18.1390 P.3   188  NDP188      0.5328
     46  O1X      -17.5220  -14.6510   18.6210 O.3   188  NDP188     -0.1145
     47  O2X      -17.4030  -17.1640   18.5350 O.3   188  NDP188     -0.1145
     48  O3X      -19.6070  -16.0880   18.3820 O.2   188  NDP188     -0.2224
@<TRIPOS>BOND
     1    40    39    2
     2    41    39   am
     3    39    38    1
     4    38    42    2
     5    38    37    1
     6    42    43    1
     7    37    36    1
     8    43    44    2
     9    36    44    1
    10    36    35    1
    11    35    30    1
    12    35    33    1
    13    34    33    1
    14    30    29    1
    15    33    31    1
    16    32    31    1
    17    31    29    1
    18    29    28    1
    19    27    28    1
    20    27    24    1
    21    26    24    2
    22    24    25    1
    23    24    23    1
    24     2     1    2
    25     3     1    1
    26    23     1    1
    27     1     4    1
    28     4     5    1
    29    15    14    1
    30    15    16    2
    31    18    17    1
    32    14    13    1
    33     5     6    1
    34    16    17    1
    35    16    22    1
    36    17    19    2
    37     7     6    1
    38     7    12    1
    39    13    22    1
    40    13    12    1
    41     6     8    1
    42    22    21    2
    43    19    20    1
    44    12    10    1
    45     8    10    1
    46     8     9    1
    47    21    20    1
    48    10    11    1
    49    11    45    1
    50    45    48    2
    51    45    47    1
    52    45    46    1
