@<TRIPOS>MOLECULE
3gi2_GHW_A_1.pdb
 31 33 0 0 0
SMALL
GASTEIGER

@<TRIPOS>ATOM
      1  C4       -15.2780  -12.2690   -1.3340 C.2   187  GHW187      0.1728
      2  C5       -13.8830  -12.1430   -1.1350 C.3   187  GHW187      0.2064
      3  C6       -13.0440  -12.2090   -2.2580 C.1   187  GHW187      0.2029
      4  C13      -14.7840  -11.7810    2.5550 C.3   187  GHW187      0.0385
      5  N1       -13.6910  -12.2480   -3.4710 N.2   187  GHW187     -0.2537
      6  N2       -15.5600  -12.4700   -4.8970 N.pl3 187  GHW187     -0.0226
      7  C3       -14.7150  -12.0340    1.0180 C.2   187  GHW187      0.0132
      8  N3       -15.8970  -12.3900   -2.5590 N.2   187  GHW187     -0.3216
      9  S4       -16.1670  -12.2420    0.1240 S.3   187  GHW187     -0.0615
     10  C2       -15.0790  -12.3260   -3.6150 C.1   187  GHW187      0.2517
     11  O6       -11.8050  -12.1480   -2.2050 O.2   187  GHW187     -0.2126
     12  C1       -13.5970  -12.0330    0.2360 C.2   187  GHW187      0.0329
     13  SAT      -12.0120  -11.8780    0.9910 S.3   187  GHW187     -0.0896
     14  CAZ      -11.6700  -10.1680    0.9160 C.ar  187  GHW187      0.0292
     15  CAJ      -10.5930   -9.6730    1.6570 C.ar  187  GHW187      0.0066
     16  CAL      -10.2840   -8.3040    1.6100 C.ar  187  GHW187      0.0051
     17  CAI      -12.4560   -9.3140    0.1830 C.ar  187  GHW187      0.0066
     18  CAK      -12.1440   -7.9550    0.1860 C.ar  187  GHW187      0.0051
     19  CBA      -11.0230   -7.4600    0.8770 C.ar  187  GHW187      0.0551
     20  CAX      -10.7080   -5.9620    0.8470 C.2   187  GHW187      0.2652
     21  OAE       -9.6730   -5.5400    1.3990 O.2   187  GHW187     -0.2684
     22  NAS      -11.5580   -5.1880    0.1720 N.am  187  GHW187     -0.1918
     23  CAP      -11.3500   -3.7150    0.1500 C.3   187  GHW187      0.1986
     24  CAW      -12.7250   -3.0980   -0.1620 C.2   187  GHW187      0.3842
     25  OAG      -13.5900   -3.8700   -0.6340 O.co2 187  GHW187     -0.2437
     26  OAD      -12.8400   -1.8260   -0.0730 O.co2 187  GHW187     -0.2437
     27  CBG      -10.3240   -3.3540   -0.9290 C.3   187  GHW187      0.0451
     28  CAN      -10.6860   -3.7280   -2.3580 C.3   187  GHW187      0.1164
     29  CAV       -9.5250   -3.5510   -3.3520 C.2   187  GHW187      0.3649
     30  OXT       -9.7900   -2.8030   -4.2450 O.co2 187  GHW187     -0.2457
     31  OAC       -8.4600   -4.1550   -3.1560 O.co2 187  GHW187     -0.2457
@<TRIPOS>BOND
     1     6    10    1
     2    30    29   ar
     3    10     5    2
     4    10     8    2
     5     5     3    2
     6    29    31   ar
     7    29    28    1
     8     8     1    2
     9    28    27    1
    10     3    11    2
    11     3     2    1
    12     1     2    1
    13     1     9    1
    14     2    12    1
    15    27    23    1
    16    25    24   ar
    17    24    26   ar
    18    24    23    1
    19     9     7    1
    20    23    22    1
    21    22    20   am
    22    17    18   ar
    23    17    14   ar
    24    18    19   ar
    25    12    13    1
    26    12     7    2
    27    20    19    1
    28    20    21    2
    29    19    16   ar
    30    14    13    1
    31    14    15   ar
    32     7     4    1
    33    16    15   ar
