@<TRIPOS>MOLECULE
3gi3_B10_A_1.pdb
 44 48 0 0 0
SMALL
GASTEIGER

@<TRIPOS>ATOM
      1  N1        33.3910   36.2550   12.4070 N.am  391  B10391     -0.1576
      2  C2        32.2040   35.8770   11.7950 C.ar  391  B10391      0.1098
      3  C10       31.1830   36.7950   11.3480 C.ar  391  B10391      0.0155
      4  C12       29.9610   36.2970   10.7270 C.ar  391  B10391     -0.0200
      5  C55       32.0050   34.4750   11.6180 C.ar  391  B10391      0.1705
      6  C18       30.8150   33.9750   11.0120 C.ar  391  B10391      0.1254
      7  C19       29.8090   34.8780   10.5740 C.ar  391  B10391      0.0169
      8  O3        33.0080   33.5860   12.0540 O.3   391  B10391     -0.4688
      9  C13       32.7550   33.0020   13.3470 C.3   391  B10391      0.2526
     10  C14       28.8490   37.2760   10.2470 C.3   391  B10391      0.0190
     11  C15       28.3080   38.0240   11.4810 C.3   391  B10391      0.0044
     12  C16       27.6330   36.5650    9.5720 C.3   391  B10391      0.0044
     13  C17       29.4150   38.2770    9.2070 C.3   391  B10391      0.0044
     14  C24       33.3910   37.0030   13.5450 C.2   391  B10391      0.3478
     15  O1        32.3280   37.3900   14.0420 O.2   391  B10391     -0.2484
     16  N4        34.6250   37.2670   14.1060 N.am  391  B10391     -0.1607
     17  C25       34.8500   38.1420   15.1770 C.ar  391  B10391      0.0749
     18  C4        35.9960   39.0460   15.2120 C.ar  391  B10391      0.0154
     19  C5        36.1940   39.9720   16.3870 C.ar  391  B10391      0.0013
     20  C6        35.1970   39.9300   17.4700 C.ar  391  B10391      0.0016
     21  C26       36.9510   39.0750   14.1370 C.ar  391  B10391      0.0013
     22  C27       38.0750   39.9620   14.1750 C.ar  391  B10391      0.0000
     23  C28       38.2700   40.8440   15.2930 C.ar  391  B10391      0.0000
     24  C29       37.3430   40.8570   16.3900 C.ar  391  B10391      0.0000
     25  C30       34.1030   39.0280   17.3900 C.ar  391  B10391      0.0014
     26  C8        33.9370   38.1680   16.2950 C.ar  391  B10391      0.0167
     27  C11       35.1990   40.7920   18.7120 C.ar  391  B10391      0.0192
     28  C1        35.4350   40.2470   20.0180 C.ar  391  B10391      0.0028
     29  C33       35.4050   41.0890   21.1720 C.ar  391  B10391      0.0161
     30  C7        35.1310   42.4740   20.9570 C.ar  391  B10391      0.0752
     31  N3        34.9100   42.9570   19.6960 N.ar  391  B10391     -0.2468
     32  C9        34.9290   42.1940   18.5880 C.ar  391  B10391      0.0984
     33  N2        30.6230   32.6420   10.8470 N.pl3 391  B10391     -0.0975
     34  S1        31.4290   31.7790    9.7110 S.O2  391  B10391      0.0751
     35  O6        30.4080   31.0990    8.9850 O.2   391  B10391     -0.1528
     36  O7        32.3530   30.9790   10.4780 O.2   391  B10391     -0.1528
     37  C23       32.3790   32.7550    8.5650 C.3   391  B10391      0.2016
     38  C3        35.0670   43.4350   22.1260 C.3   391  B10391      0.1188
     39  N5        33.8510   43.2330   22.9330 N.3   391  B10391     -0.2633
     40  C31       32.7680   44.0720   22.3310 C.3   391  B10391      0.1049
     41  C20       34.1480   43.6340   24.3420 C.3   391  B10391      0.1049
     42  C21       31.5160   44.1000   23.2420 C.3   391  B10391      0.1595
     43  C32       32.8550   43.6620   25.1880 C.3   391  B10391      0.1595
     44  O2        31.8830   44.5300   24.5670 O.3   391  B10391     -0.3508
@<TRIPOS>BOND
     1    37    34    1
     2    35    34    2
     3    13    10    1
     4    12    10    1
     5    34    36    2
     6    34    33    1
     7    10     4    1
     8    10    11    1
     9     7     4   ar
    10     7     6   ar
    11     4     3   ar
    12    33     6    1
    13     6     5   ar
    14     3     2   ar
    15     5     2   ar
    16     5     8    1
    17     2     1    1
    18     8     9    1
    19     1    14   am
    20    14    15    2
    21    14    16   am
    22    16    17    1
    23    21    22   ar
    24    21    18   ar
    25    22    23   ar
    26    17    18   ar
    27    17    26   ar
    28    18    19   ar
    29    23    24   ar
    30    26    25   ar
    31    19    24   ar
    32    19    20   ar
    33    25    20   ar
    34    20    27    1
    35    32    27   ar
    36    32    31   ar
    37    27    28   ar
    38    31    30   ar
    39    28    29   ar
    40    30    29   ar
    41    30    38    1
    42    38    39    1
    43    40    39    1
    44    40    42    1
    45    39    41    1
    46    42    44    1
    47    41    43    1
    48    44    43    1
