@<TRIPOS>MOLECULE
3gi4_K60_A_1.pdb
 47 51 0 0 0
SMALL
GASTEIGER

@<TRIPOS>ATOM
      1  O10       17.2130   31.4030   14.1340 O.2   200  K60200     -0.1528
      2  S8        17.9960   32.4630   14.6980 S.O2  200  K60200      0.0635
      3  O9        18.5220   33.3570   13.6940 O.2   200  K60200     -0.1528
      4  C5        17.0950   33.2870   15.7700 C.ar  200  K60200      0.1254
      5  C4        17.3270   34.6520   16.0130 C.ar  200  K60200      0.0601
      6  C3        16.5440   35.3150   16.9670 C.ar  200  K60200      0.1778
      7  C2        15.5660   34.6580   17.6760 C.ar  200  K60200      0.1765
      8  O19       14.9590   35.5160   18.5480 O.3   200  K60200     -0.4346
      9  C18       15.6140   36.7990   18.4140 C.3   200  K60200      0.4294
     10  O29       16.5830   36.6190   17.3640 O.3   200  K60200     -0.4346
     11  C7        15.3180   33.3170   17.4640 C.ar  200  K60200      0.0416
     12  C6        16.0940   32.6320   16.5050 C.ar  200  K60200      0.0232
     13  N11       19.2910   31.8020   15.4220 N.3   200  K60200     -0.1529
     14  C12       20.0680   32.7810   16.2280 C.3   200  K60200      0.0958
     15  C13       21.5540   32.3930   16.2680 C.3   200  K60200      0.0178
     16  C14       22.2050   32.2860   14.8830 C.3   200  K60200      0.0015
     17  C15       22.3050   33.3910   17.1440 C.3   200  K60200      0.0015
     18  C16       19.0200   30.5460   16.1410 C.3   200  K60200      0.1304
     19  C17       19.8930   29.4140   15.5820 C.3   200  K60200      0.1897
     20  O18       19.8200   28.2970   16.4900 O.3   200  K60200     -0.2197
     21  C19       19.4530   29.0850   14.1530 C.3   200  K60200      0.1314
     22  C32       18.1380   28.3000   14.0710 C.3   200  K60200      0.0506
     23  C38       17.8060   28.0030   12.6170 C.ar  200  K60200     -0.0204
     24  C33       17.9460   26.7070   12.1180 C.ar  200  K60200     -0.0042
     25  C34       17.6660   26.4270   10.7900 C.ar  200  K60200     -0.0003
     26  C35       17.2370   27.4300    9.9320 C.ar  200  K60200     -0.0000
     27  C36       17.0990   28.7230   10.4150 C.ar  200  K60200     -0.0003
     28  C37       17.3840   29.0140   11.7540 C.ar  200  K60200     -0.0042
     29  N20       20.3760   28.2340   13.3960 N.am  200  K60200     -0.2011
     30  C21       21.1240   28.6770   12.3760 C.2   200  K60200      0.2836
     31  O22       21.1990   29.8450   12.0010 O.2   200  K60200     -0.2694
     32  C29       21.9000   27.6480   11.6040 C.3   200  K60200      0.2673
     33  O28       21.8600   26.3190   12.1450 O.3   200  K60200     -0.4267
     34  C26       21.5120   25.4290   11.0580 C.2   200  K60200      0.4092
     35  O27       21.6170   24.2280   11.2130 O.2   200  K60200     -0.2258
     36  C25       21.2100   27.5600   10.2300 C.3   200  K60200      0.1547
     37  N24       21.1460   26.1290    9.9840 N.am  200  K60200     -0.2208
     38  C43       20.7690   25.6230    8.7180 C.ar  200  K60200      0.0571
     39  C44       21.2460   24.3930    8.2560 C.ar  200  K60200      0.0150
     40  C45       20.8730   23.9080    7.0050 C.ar  200  K60200      0.0012
     41  C40       20.0400   24.6530    6.1790 C.ar  200  K60200      0.0039
     42  C42       19.9300   26.3670    7.8720 C.ar  200  K60200      0.0189
     43  C41       19.5530   25.8860    6.6150 C.ar  200  K60200      0.0727
     44  C46       18.6400   26.7020    5.7300 C.3   200  K60200      0.4186
     45  F1        17.3890   26.6550    6.1410 F     200  K60200     -0.1659
     46  F2        18.6360   26.2320    4.5130 F     200  K60200     -0.1659
     47  F3        19.0520   27.9560    5.6900 F     200  K60200     -0.1659
@<TRIPOS>BOND
     1    46    44    1
     2    47    44    1
     3    44    45    1
     4    44    43    1
     5    41    43   ar
     6    41    40   ar
     7    43    42   ar
     8    40    39   ar
     9    42    38   ar
    10    39    38   ar
    11    38    37    1
    12    26    27   ar
    13    26    25   ar
    14    37    36    1
    15    37    34   am
    16    36    32    1
    17    27    28   ar
    18    25    24   ar
    19    34    35    2
    20    34    33    1
    21    32    33    1
    22    32    30    1
    23    28    23   ar
    24    31    30    2
    25    24    23   ar
    26    30    29   am
    27    23    22    1
    28    29    21    1
    29     3     2    2
    30    22    21    1
    31     1     2    2
    32    21    19    1
    33     2    13    1
    34     2     4    1
    35    16    15    1
    36    13    18    1
    37    13    14    1
    38    19    18    1
    39    19    20    1
    40     4     5   ar
    41     4    12   ar
    42     5     6   ar
    43    14    15    1
    44    15    17    1
    45    12    11   ar
    46     6    10    1
    47     6     7   ar
    48    10     9    1
    49    11     7   ar
    50     7     8    1
    51     9     8    1
