@<TRIPOS>MOLECULE
3gi5_K62_A_1.pdb
 46 50 0 0 0
SMALL
GASTEIGER

@<TRIPOS>ATOM
      1  O45       18.4850   27.6690    5.8500 O.2   200  K62200     -0.2913
      2  C46       18.7280   26.4910    5.6280 C.2   200  K62200      0.1735
      3  C47       18.1280   25.7730    4.4520 C.3   200  K62200      0.0773
      4  C41       19.6520   25.7600    6.5640 C.ar  200  K62200      0.0360
      5  C40       20.1720   24.5190    6.2050 C.ar  200  K62200      0.0029
      6  C45       21.0190   23.8540    7.0800 C.ar  200  K62200      0.0014
      7  C44       21.3660   24.4280    8.2980 C.ar  200  K62200      0.0150
      8  C42       19.9970   26.3390    7.7890 C.ar  200  K62200      0.0178
      9  C43       20.8550   25.6770    8.6790 C.ar  200  K62200      0.0572
     10  N24       21.1920   26.2600    9.9200 N.am  200  K62200     -0.2208
     11  C26       21.5290   25.5790   11.0170 C.2   200  K62200      0.4092
     12  O27       21.6120   24.3730   11.1850 O.2   200  K62200     -0.2258
     13  O28       21.8560   26.4840   12.0930 O.3   200  K62200     -0.4267
     14  C25       21.2390   27.7030   10.1250 C.3   200  K62200      0.1547
     15  C29       21.8680   27.8050   11.5380 C.3   200  K62200      0.2673
     16  C21       21.0530   28.7920   12.3210 C.2   200  K62200      0.2836
     17  O22       21.0730   29.9560   11.9420 O.2   200  K62200     -0.2694
     18  N20       20.3450   28.3450   13.3760 N.am  200  K62200     -0.2011
     19  C19       19.4170   29.2040   14.1250 C.3   200  K62200      0.1314
     20  C32       18.0930   28.4220   14.0190 C.3   200  K62200      0.0506
     21  C38       17.7860   28.1190   12.5540 C.ar  200  K62200     -0.0204
     22  C37       17.3940   29.1240   11.6690 C.ar  200  K62200     -0.0042
     23  C36       17.1360   28.8290   10.3190 C.ar  200  K62200     -0.0003
     24  C35       17.2780   27.5390    9.8390 C.ar  200  K62200     -0.0000
     25  C34       17.6630   26.5350   10.7190 C.ar  200  K62200     -0.0003
     26  C33       17.9180   26.8220   12.0610 C.ar  200  K62200     -0.0042
     27  C17       19.8620   29.4990   15.5590 C.3   200  K62200      0.1897
     28  O18       19.7690   28.3340   16.4190 O.3   200  K62200     -0.2197
     29  C16       19.0150   30.6460   16.1390 C.3   200  K62200      0.1304
     30  N11       19.2680   31.9280   15.4290 N.3   200  K62200     -0.1529
     31  C12       20.0530   32.8920   16.2420 C.3   200  K62200      0.0958
     32  C13       21.5350   32.4800   16.3020 C.3   200  K62200      0.0178
     33  C15       22.3090   33.4380   17.1970 C.3   200  K62200      0.0015
     34  C14       22.1680   32.4430   14.9060 C.3   200  K62200      0.0015
     35  S8        17.9610   32.5760   14.6970 S.O2  200  K62200      0.0635
     36  O9        18.4770   33.4800   13.7150 O.2   200  K62200     -0.1528
     37  O10       17.2040   31.5040   14.0890 O.2   200  K62200     -0.1528
     38  C5        17.0570   33.4010   15.7650 C.ar  200  K62200      0.1254
     39  C6        16.0660   32.7270   16.4810 C.ar  200  K62200      0.0232
     40  C7        15.2870   33.3920   17.4410 C.ar  200  K62200      0.0416
     41  C4        17.2660   34.7750   16.0210 C.ar  200  K62200      0.0601
     42  C3        16.4870   35.4230   16.9810 C.ar  200  K62200      0.1778
     43  O29       16.4970   36.7300   17.4050 O.3   200  K62200     -0.4346
     44  C2        15.5170   34.7360   17.6750 C.ar  200  K62200      0.1765
     45  O19       14.8970   35.5700   18.5560 O.3   200  K62200     -0.4346
     46  C18       15.5380   36.8610   18.4670 C.3   200  K62200      0.4294
@<TRIPOS>BOND
     1     3     2    1
     2     2     1    2
     3     2     4    1
     4     5     4   ar
     5     5     6   ar
     6     4     8   ar
     7     6     7   ar
     8     8     9   ar
     9     7     9   ar
    10     9    10    1
    11    24    23   ar
    12    24    25   ar
    13    10    14    1
    14    10    11   am
    15    14    15    1
    16    23    22   ar
    17    25    26   ar
    18    11    12    2
    19    11    13    1
    20    15    13    1
    21    15    16    1
    22    22    21   ar
    23    17    16    2
    24    26    21   ar
    25    16    18   am
    26    21    20    1
    27    18    19    1
    28    36    35    2
    29    20    19    1
    30    37    35    2
    31    19    27    1
    32    35    30    1
    33    35    38    1
    34    34    32    1
    35    30    29    1
    36    30    31    1
    37    27    29    1
    38    27    28    1
    39    38    41   ar
    40    38    39   ar
    41    41    42   ar
    42    31    32    1
    43    32    33    1
    44    39    40   ar
    45    42    43    1
    46    42    44   ar
    47    43    46    1
    48    40    44   ar
    49    44    45    1
    50    46    45    1
