@<TRIPOS>MOLECULE
3gi6_D78_A_1.pdb
 46 49 0 0 0
SMALL
GASTEIGER

@<TRIPOS>ATOM
      1  O9        18.5300   33.2210   13.7050 O.2   200  D78200     -0.1528
      2  S8        18.0010   32.3800   14.7540 S.O2  200  D78200      0.0634
      3  O10       17.1750   31.3540   14.2090 O.2   200  D78200     -0.1528
      4  C5        17.1370   33.2760   15.7910 C.ar  200  D78200      0.1224
      5  C4        17.3800   34.6460   15.9350 C.ar  200  D78200      0.0230
      6  C3        16.6490   35.4220   16.8430 C.ar  200  D78200      0.0383
      7  C2        15.6580   34.8230   17.6420 C.ar  200  D78200      0.1388
      8  O19       14.9130   35.5120   18.5650 O.3   200  D78200     -0.4714
      9  C18       15.0930   36.9090   18.8420 C.3   200  D78200      0.2525
     10  C7        15.4150   33.4640   17.5030 C.ar  200  D78200      0.0383
     11  C6        16.1470   32.6980   16.5880 C.ar  200  D78200      0.0230
     12  N11       19.3170   31.7420   15.4770 N.3   200  D78200     -0.1529
     13  C12       20.0500   32.7400   16.2910 C.3   200  D78200      0.0958
     14  C13       21.5460   32.3940   16.3420 C.3   200  D78200      0.0178
     15  C14       22.1840   32.3320   14.9540 C.3   200  D78200      0.0015
     16  C15       22.2870   33.3940   17.2170 C.3   200  D78200      0.0015
     17  C16       19.0690   30.4740   16.1990 C.3   200  D78200      0.1304
     18  C17       19.9100   29.3340   15.6160 C.3   200  D78200      0.1897
     19  O18       19.8110   28.2180   16.5180 O.3   200  D78200     -0.2197
     20  C19       19.4550   29.0090   14.1890 C.3   200  D78200      0.1314
     21  C32       18.1360   28.2200   14.1130 C.3   200  D78200      0.0506
     22  C38       17.7940   27.8910   12.6640 C.ar  200  D78200     -0.0204
     23  C33       17.9350   26.5870   12.1800 C.ar  200  D78200     -0.0042
     24  C34       17.6440   26.2860   10.8540 C.ar  200  D78200     -0.0003
     25  C35       17.2060   27.2780    9.9840 C.ar  200  D78200     -0.0000
     26  C36       17.0630   28.5730   10.4560 C.ar  200  D78200     -0.0003
     27  C37       17.3580   28.8830   11.7890 C.ar  200  D78200     -0.0042
     28  N20       20.3670   28.1510   13.4250 N.am  200  D78200     -0.2011
     29  C21       21.0910   28.6000   12.3910 C.2   200  D78200      0.2836
     30  O22       21.1500   29.7720   12.0350 O.2   200  D78200     -0.2694
     31  C29       21.8760   27.5810   11.6090 C.3   200  D78200      0.2673
     32  O28       21.8370   26.2600   12.1800 O.3   200  D78200     -0.4267
     33  C26       21.4930   25.3600   11.1060 C.2   200  D78200      0.4092
     34  O27       21.6150   24.1610   11.2980 O.2   200  D78200     -0.2258
     35  C25       21.2270   27.4750   10.2180 C.3   200  D78200      0.1547
     36  N24       21.1100   26.0400   10.0130 N.am  200  D78200     -0.2208
     37  C43       20.7250   25.5220    8.7900 C.ar  200  D78200      0.0571
     38  C44       21.1370   24.2520    8.3670 C.ar  200  D78200      0.0150
     39  C45       20.7450   23.7380    7.1240 C.ar  200  D78200      0.0012
     40  C40       19.9510   24.4880    6.2680 C.ar  200  D78200      0.0039
     41  C42       19.9150   26.2700    7.9010 C.ar  200  D78200      0.0189
     42  C41       19.5210   25.7590    6.6530 C.ar  200  D78200      0.0727
     43  C46       18.6430   26.5690    5.7220 C.3   200  D78200      0.4186
     44  F1        17.3830   26.4820    6.0880 F     200  D78200     -0.1659
     45  F2        18.7160   26.1280    4.4910 F     200  D78200     -0.1659
     46  F3        18.9950   27.8380    5.7260 F     200  D78200     -0.1659
@<TRIPOS>BOND
     1    45    43    1
     2    43    46    1
     3    43    44    1
     4    43    42    1
     5    40    42   ar
     6    40    39   ar
     7    42    41   ar
     8    39    38   ar
     9    41    37   ar
    10    38    37   ar
    11    37    36    1
    12    25    26   ar
    13    25    24   ar
    14    36    35    1
    15    36    33   am
    16    35    31    1
    17    26    27   ar
    18    24    23   ar
    19    33    34    2
    20    33    32    1
    21    31    32    1
    22    31    29    1
    23    27    22   ar
    24    30    29    2
    25    23    22   ar
    26    29    28   am
    27    22    21    1
    28    28    20    1
    29     1     2    2
    30    21    20    1
    31    20    18    1
    32     3     2    2
    33     2    12    1
    34     2     4    1
    35    15    14    1
    36    12    17    1
    37    12    13    1
    38    18    17    1
    39    18    19    1
    40     4     5   ar
    41     4    11   ar
    42     5     6   ar
    43    13    14    1
    44    14    16    1
    45    11    10   ar
    46     6     7   ar
    47    10     7   ar
    48     7     8    1
    49     8     9    1
