@<TRIPOS>MOLECULE
3gid_S1A_A_1.pdb
 37 39 0 0 0
SMALL
GASTEIGER

@<TRIPOS>ATOM
      1  C1       -27.5450  -20.1050   40.0290 C.2   1000  S1A1000     0.3216
      2  C2       -26.8170  -20.3500   38.6980 C.3   1000  S1A1000     0.1556
      3  C3       -25.8220  -19.1900   38.3420 C.3   1000  S1A1000     0.2564
      4  C4       -25.0640  -19.4220   36.9420 C.3   1000  S1A1000     0.1998
      5  C5       -23.9080  -18.3450   36.8200 C.3   1000  S1A1000     0.1862
      6  C6       -22.9400  -18.4060   38.0450 C.3   1000  S1A1000     0.0607
      7  C7       -23.8100  -18.1210   39.3590 C.3   1000  S1A1000     0.1242
      8  C8       -22.9920  -18.0680   40.7000 C.3   1000  S1A1000     0.0491
      9  C9       -23.9820  -17.8140   41.8570 C.2   1000  S1A1000    -0.0261
     10  C10      -24.3170  -16.6040   42.3880 C.2   1000  S1A1000     0.0008
     11  C11      -25.3210  -16.4030   43.5220 C.3   1000  S1A1000     0.1639
     12  C12      -26.3270  -15.2420   43.2240 C.3   1000  S1A1000     0.1465
     13  C13      -27.2440  -15.5020   41.9840 C.3   1000  S1A1000     0.0324
     14  C14      -28.1590  -16.7310   42.1860 C.3   1000  S1A1000     0.0027
     15  C15      -29.2820  -16.8200   41.1280 C.3   1000  S1A1000     0.0042
     16  C16      -30.2280  -18.0030   41.3980 C.3   1000  S1A1000     0.0483
     17  C17      -29.5760  -19.3980   41.1620 C.3   1000  S1A1000     0.1911
     18  C19      -27.9000  -20.6040   37.5940 C.3   1000  S1A1000     0.0170
     19  C20      -24.5220  -21.3010   35.4650 C.3   1000  S1A1000     0.1743
     20  C21      -22.1900  -19.7770   38.1410 C.3   1000  S1A1000     0.0052
     21  C22      -21.8650  -16.9580   40.6270 C.3   1000  S1A1000     0.0072
     22  C23      -24.2450  -17.2160   45.5440 C.3   1000  S1A1000     0.1746
     23  C24      -26.2390  -12.7740   43.0590 C.3   1000  S1A1000     0.1741
     24  C25      -30.7180  -20.4180   41.0110 C.ar  1000  S1A1000     0.0173
     25  C26      -31.4120  -20.5400   39.7700 C.ar  1000  S1A1000    -0.0008
     26  C27      -32.4640  -21.4780   39.6280 C.ar  1000  S1A1000    -0.0002
     27  C28      -32.8290  -22.3010   40.7360 C.ar  1000  S1A1000    -0.0000
     28  C29      -32.1420  -22.1770   41.9720 C.ar  1000  S1A1000    -0.0002
     29  C30      -31.0900  -21.2380   42.1060 C.ar  1000  S1A1000    -0.0008
     30  O1       -27.0850  -20.5650   41.0580 O.2   1000  S1A1000    -0.2499
     31  O3       -26.5400  -17.9460   38.2780 O.3   1000  S1A1000    -0.1920
     32  O4       -24.6110  -20.7860   36.8230 O.3   1000  S1A1000    -0.3459
     33  O5       -24.4480  -17.0340   36.6650 O.3   1000  S1A1000    -0.2203
     34  O7       -24.8570  -19.1550   39.4530 O.3   1000  S1A1000    -0.3319
     35  O11      -24.6400  -16.0670   44.7580 O.3   1000  S1A1000    -0.3467
     36  O12      -25.5200  -14.0440   43.0830 O.3   1000  S1A1000    -0.3507
     37  O18      -28.7060  -19.3700   39.9670 O.3   1000  S1A1000    -0.4476
@<TRIPOS>BOND
     1    19    32    1
     2    33     5    1
     3     5     4    1
     4     5     6    1
     5    32     4    1
     6     4     3    1
     7    18     2    1
     8     6    20    1
     9     6     7    1
    10    31     3    1
    11     3     2    1
    12     3    34    1
    13     2     1    1
    14     7    34    1
    15     7     8    1
    16    26    25   ar
    17    26    27   ar
    18    25    24   ar
    19    37     1    1
    20    37    17    1
    21     1    30    2
    22    21     8    1
    23     8     9    1
    24    27    28   ar
    25    24    17    1
    26    24    29   ar
    27    15    16    1
    28    15    14    1
    29    17    16    1
    30     9    10    2
    31    28    29   ar
    32    13    14    1
    33    13    12    1
    34    10    11    1
    35    23    36    1
    36    36    12    1
    37    12    11    1
    38    11    35    1
    39    35    22    1
