@<TRIPOS>MOLECULE
3gie_ACP_A_1.pdb
 31 33 0 0 0
SMALL
GASTEIGER

@<TRIPOS>ATOM
      1  PG        27.3330  -16.6000   -3.1420 P.3   1303  ACP1303     0.1295
      2  O1G       28.3680  -15.9080   -4.0100 O.2   1303  ACP1303    -0.4595
      3  O2G       26.1230  -15.7420   -2.8380 O.3   1303  ACP1303    -0.3567
      4  O3G       27.9230  -17.3000   -1.9390 O.3   1303  ACP1303    -0.3567
      5  PB        27.9680  -18.9660   -4.9690 P.3   1303  ACP1303     0.3815
      6  O1B       27.3740  -19.6770   -6.1600 O.2   1303  ACP1303    -0.2547
      7  O2B       28.6970  -19.7650   -3.9170 O.3   1303  ACP1303    -0.1391
      8  C3B       26.7080  -17.9800   -4.1330 C.3   1303  ACP1303     0.1768
      9  PA        30.5190  -17.7790   -5.1840 P.3   1303  ACP1303     0.2209
     10  O1A       30.7200  -18.1510   -3.7340 O.3   1303  ACP1303    -0.4371
     11  O2A       31.0630  -16.4680   -5.7130 O.2   1303  ACP1303    -0.5170
     12  O3A       28.9570  -17.8380   -5.5540 O.3   1303  ACP1303    -0.2483
     13  O5'       31.0470  -18.9850   -6.1030 O.3   1303  ACP1303    -0.3111
     14  C5'       31.1730  -18.7740   -7.5060 C.3   1303  ACP1303     0.1813
     15  C4'       30.9240  -20.0550   -8.3020 C.3   1303  ACP1303     0.1821
     16  O4'       32.0280  -20.9680   -8.1970 O.3   1303  ACP1303    -0.3135
     17  C3'       29.6810  -20.8120   -7.8630 C.3   1303  ACP1303     0.2184
     18  O3'       28.5560  -20.4550   -8.6690 O.3   1303  ACP1303    -0.2174
     19  C2'       30.0400  -22.2630   -8.0900 C.3   1303  ACP1303     0.2570
     20  O2'       29.5510  -22.7210   -9.3560 O.3   1303  ACP1303    -0.2130
     21  C1'       31.5540  -22.3090   -8.0630 C.3   1303  ACP1303     0.3186
     22  N9        31.9430  -22.8530   -6.7420 N.pl3 1303  ACP1303    -0.1439
     23  C8        31.9050  -22.1940   -5.5740 C.3   1303  ACP1303     0.3377
     24  N7        32.3300  -23.0220   -4.5910 N.2   1303  ACP1303    -0.2095
     25  C5        32.6230  -24.2110   -5.1580 C.2   1303  ACP1303     0.2526
     26  C6        33.0910  -25.4190   -4.6580 C.2   1303  ACP1303     0.4393
     27  N6        33.3430  -25.5680   -3.3300 N.pl3 1303  ACP1303     0.2180
     28  N1        33.2900  -26.4480   -5.5160 N.2   1303  ACP1303     0.0021
     29  C2        33.0360  -26.3170   -6.8260 C.3   1303  ACP1303     0.5254
     30  N3        32.5870  -25.1600   -7.3310 N.2   1303  ACP1303    -0.0055
     31  C4        32.3730  -24.0980   -6.5150 C.2   1303  ACP1303     0.3518
@<TRIPOS>BOND
     1    20    19    1
     2    18    17    1
     3    15    16    1
     4    15    17    1
     5    15    14    1
     6    16    21    1
     7    19    21    1
     8    19    17    1
     9    21    22    1
    10    14    13    1
    11    30    29    1
    12    30    31    2
    13    29    28    1
    14    22    31    1
    15    22    23    1
    16    31    25    1
    17     6     5    2
    18    13     9    1
    19    11     9    2
    20    23    24    1
    21    12     9    1
    22    12     5    1
    23    28    26    2
    24     9    10    1
    25    25    26    1
    26    25    24    2
    27     5     8    1
    28     5     7    1
    29    26    27    1
    30     8     1    1
    31     2     1    2
    32     1     3    1
    33     1     4    1
