@<TRIPOS>MOLECULE
3gif_ADP_A_1.pdb
 27 29 0 0 0
SMALL
GASTEIGER

@<TRIPOS>ATOM
      1  PB        51.2010   15.3280  -11.1700 P.3   1301  ADP1301     0.5373
      2  O1B       50.2260   14.2530  -11.6250 O.2   1301  ADP1301    -0.2221
      3  O2B       52.6350   14.8850  -10.9240 O.3   1301  ADP1301    -0.1143
      4  O3B       50.5670   16.2580  -10.1100 O.3   1301  ADP1301    -0.1143
      5  PA        51.6350   17.8080  -12.5150 P.3   1301  ADP1301     0.2231
      6  O1A       50.6430   18.5520  -11.7050 O.3   1301  ADP1301    -0.4370
      7  O2A       51.7950   18.3400  -13.9160 O.2   1301  ADP1301    -0.5169
      8  O3A       51.3510   16.2080  -12.5420 O.3   1301  ADP1301    -0.2261
      9  O5'       52.9970   17.9320  -11.6680 O.3   1301  ADP1301    -0.3111
     10  C5'       54.2230   17.5730  -12.3110 C.3   1301  ADP1301     0.1813
     11  C4'       55.2750   17.4820  -11.2360 C.3   1301  ADP1301     0.1821
     12  O4'       55.7180   18.7660  -10.7980 O.3   1301  ADP1301    -0.3135
     13  C3'       54.6220   16.8710  -10.0240 C.3   1301  ADP1301     0.2184
     14  O3'       54.7770   15.4590  -10.0640 O.3   1301  ADP1301    -0.2174
     15  C2'       55.3500   17.4790   -8.8480 C.3   1301  ADP1301     0.2570
     16  O2'       56.3240   16.6020   -8.2600 O.3   1301  ADP1301    -0.2130
     17  C1'       56.0130   18.7230   -9.3970 C.3   1301  ADP1301     0.3186
     18  N9        55.3710   19.8070   -8.6190 N.pl3 1301  ADP1301    -0.1439
     19  C8        54.3490   20.5650   -9.0410 C.3   1301  ADP1301     0.3377
     20  N7        53.9930   21.4420   -8.0760 N.2   1301  ADP1301    -0.2095
     21  C5        54.7900   21.2460   -6.9960 C.2   1301  ADP1301     0.2526
     22  C6        54.9430   21.8160   -5.6220 C.2   1301  ADP1301     0.4393
     23  N6        54.1410   22.8270   -5.1730 N.pl3 1301  ADP1301     0.2180
     24  N1        55.9190   21.2860   -4.8230 N.2   1301  ADP1301     0.0021
     25  C2        56.7170   20.2840   -5.2330 C.3   1301  ADP1301     0.5254
     26  N3        56.6070   19.7390   -6.4590 N.2   1301  ADP1301    -0.0055
     27  C4        55.6940   20.1550   -7.3650 C.2   1301  ADP1301     0.3518
@<TRIPOS>BOND
     1     7     5    2
     2     8     5    1
     3     8     1    1
     4     5     6    1
     5     5     9    1
     6    10     9    1
     7    10    11    1
     8     2     1    2
     9    11    12    1
    10    11    13    1
    11     1     3    1
    12     1     4    1
    13    12    17    1
    14    14    13    1
    15    13    15    1
    16    17    15    1
    17    17    18    1
    18    19    18    1
    19    19    20    1
    20    15    16    1
    21    18    27    1
    22    20    21    2
    23    27    21    1
    24    27    26    2
    25    21    22    1
    26    26    25    1
    27    22    23    1
    28    22    24    2
    29    25    24    1
