@<TRIPOS>MOLECULE
3gig_ACP_A_1.pdb
 31 33 0 0 0
SMALL
GASTEIGER

@<TRIPOS>ATOM
      1  PG       -25.9320   14.4040  -17.9840 P.3   1303  ACP1303     0.1295
      2  O1G      -26.4980   14.0050  -16.6380 O.3   1303  ACP1303    -0.3567
      3  O2G      -24.5310   14.9570  -17.9010 O.3   1303  ACP1303    -0.3567
      4  O3G      -26.8370   15.2390  -18.8590 O.2   1303  ACP1303    -0.4595
      5  PB       -27.3500   11.9760  -18.9240 P.3   1303  ACP1303     0.3815
      6  O1B      -27.0250   10.5680  -19.3240 O.3   1303  ACP1303    -0.1391
      7  O2B      -28.3570   12.7670  -19.7110 O.2   1303  ACP1303    -0.2547
      8  C3B      -25.7770   12.8580  -18.9100 C.3   1303  ACP1303     0.1768
      9  PA       -29.5010   11.9410  -17.0850 P.3   1303  ACP1303     0.2209
     10  O1A      -30.1170   13.1450  -17.7640 O.2   1303  ACP1303    -0.5170
     11  O2A      -29.7000   11.6900  -15.5960 O.3   1303  ACP1303    -0.4371
     12  O3A      -27.9140   11.9030  -17.4190 O.3   1303  ACP1303    -0.2483
     13  O5'      -30.0700   10.6040  -17.8080 O.3   1303  ACP1303    -0.3111
     14  C5'      -30.3390    9.3880  -17.0620 C.3   1303  ACP1303     0.1813
     15  C4'      -30.4840    8.1610  -17.9720 C.3   1303  ACP1303     0.1821
     16  O4'      -31.6620    8.2280  -18.7900 O.3   1303  ACP1303    -0.3135
     17  C3'      -29.2920    8.0720  -18.9160 C.3   1303  ACP1303     0.2184
     18  O3'      -28.5430    6.8810  -18.6060 O.3   1303  ACP1303    -0.2174
     19  C2'      -29.8550    8.1930  -20.3440 C.3   1303  ACP1303     0.2570
     20  O2'      -29.4340    7.1990  -21.2810 O.3   1303  ACP1303    -0.2130
     21  C1'      -31.3600    8.1300  -20.2000 C.3   1303  ACP1303     0.3186
     22  N9       -32.0220    9.1860  -21.0250 N.pl3 1303  ACP1303    -0.1439
     23  C8       -32.3470   10.4260  -20.6370 C.3   1303  ACP1303     0.3377
     24  N7       -32.9610   11.1250  -21.6270 N.2   1303  ACP1303    -0.2095
     25  C5       -33.0400   10.3300  -22.6890 C.2   1303  ACP1303     0.2526
     26  C6       -33.5630   10.4540  -24.0560 C.2   1303  ACP1303     0.4393
     27  N6       -34.1290   11.5860  -24.4880 N.pl3 1303  ACP1303     0.2180
     28  N1       -33.4610    9.4050  -24.8620 N.2   1303  ACP1303     0.0021
     29  C2       -32.8900    8.2820  -24.4240 C.3   1303  ACP1303     0.5254
     30  N3       -32.3790    8.1020  -23.2000 N.2   1303  ACP1303    -0.0055
     31  C4       -32.4240    9.0690  -22.2860 C.2   1303  ACP1303     0.3518
@<TRIPOS>BOND
     1    28    29    1
     2    28    26    2
     3    27    26    1
     4    29    30    1
     5    26    25    1
     6    30    31    2
     7    25    31    1
     8    25    24    2
     9    31    22    1
    10    24    23    1
    11    20    19    1
    12    22    23    1
    13    22    21    1
    14    19    21    1
    15    19    17    1
    16    21    16    1
    17     7     5    2
    18     6     5    1
    19     5     8    1
    20     5    12    1
    21    17    18    1
    22    17    15    1
    23     8     1    1
    24     4     1    2
    25    16    15    1
    26     1     3    1
    27     1     2    1
    28    15    14    1
    29    13     9    1
    30    13    14    1
    31    10     9    2
    32    12     9    1
    33     9    11    1
