@<TRIPOS>MOLECULE
3gii_DGT_A_1.pdb
 31 33 0 0 0
SMALL
GASTEIGER

@<TRIPOS>ATOM
      1  PG        25.2760   21.1300    2.1470 P.3   414  DGT414      0.5373
      2  O1G       24.0510   21.6400    2.9110 O.3   414  DGT414     -0.1143
      3  O2G       25.7640   21.9090    0.9290 O.2   414  DGT414     -0.2221
      4  O3G       24.2670   20.4850    1.2360 O.3   414  DGT414     -0.1143
      5  O3B       25.7970   19.6150    2.3280 O.3   414  DGT414     -0.2258
      6  PB        26.0650   19.2540    3.8630 P.3   414  DGT414      0.2277
      7  O1B       26.7110   20.3940    4.6230 O.3   414  DGT414     -0.4368
      8  O2B       26.9650   18.0490    3.8440 O.2   414  DGT414     -0.5168
      9  O3A       24.5750   18.9210    4.3850 O.3   414  DGT414     -0.2700
     10  PA        24.1030   19.2930    5.8700 P.3   414  DGT414      0.2189
     11  O1A       22.7210   18.7780    6.0450 O.2   414  DGT414     -0.5170
     12  O2A       24.1070   20.7740    6.1220 O.3   414  DGT414     -0.4371
     13  O5'       24.9790   18.5260    6.9480 O.3   414  DGT414     -0.3112
     14  C5'       26.1700   19.0890    7.4510 C.3   414  DGT414      0.1812
     15  C4'       27.0990   17.9380    7.7890 C.3   414  DGT414      0.1772
     16  O4'       26.4070   17.1050    8.7130 O.3   414  DGT414     -0.3347
     17  C3'       27.5090   17.0370    6.6260 C.3   414  DGT414      0.1857
     18  O3'       28.6550   17.5130    5.8870 O.3   414  DGT414     -0.2203
     19  C2'       27.7700   15.7340    7.3510 C.3   414  DGT414      0.0865
     20  C1'       26.8090   15.7560    8.5310 C.3   414  DGT414      0.1981
     21  N9        25.6520   14.9280    8.1880 N.pl3 414  DGT414     -0.2374
     22  C8        24.4490   15.2790    7.6110 C.3   414  DGT414      0.2245
     23  N7        23.6600   14.2470    7.4100 N.2   414  DGT414     -0.2322
     24  C5        24.3800   13.1530    7.8920 C.2   414  DGT414      0.2182
     25  C6        24.0840   11.7660    7.9780 C.1   414  DGT414      0.2372
     26  O6        23.0810   11.1240    7.6430 O.2   414  DGT414     -0.2069
     27  N1        25.1210   11.0520    8.5550 N.2   414  DGT414     -0.2485
     28  C2        26.3190   11.5500    8.9980 C.1   414  DGT414      0.2531
     29  N2        27.1880   10.6750    9.5020 N.pl3 414  DGT414     -0.0226
     30  N3        26.6070   12.8550    8.9160 N.2   414  DGT414     -0.3074
     31  C4        25.6070   13.5760    8.3710 C.2   414  DGT414      0.2299
@<TRIPOS>BOND
     1     3     1    2
     2     4     1    1
     3     1     5    1
     4     1     2    1
     5     5     6    1
     6     8     6    2
     7     6     9    1
     8     6     7    1
     9     9    10    1
    10    10    11    2
    11    10    12    1
    12    10    13    1
    13    18    17    1
    14    17    19    1
    15    17    15    1
    16    13    14    1
    17    19    20    1
    18    23    22    1
    19    23    24    2
    20    14    15    1
    21    22    21    1
    22    26    25    2
    23    15    16    1
    24    24    25    1
    25    24    31    1
    26    25    27    2
    27    21    31    1
    28    21    20    1
    29    31    30    2
    30    20    16    1
    31    27    28    2
    32    30    28    2
    33    28    29    1
