@<TRIPOS>MOLECULE
3gij_DGT_A_1.pdb
 31 33 0 0 0
SMALL
GASTEIGER

@<TRIPOS>ATOM
      1  PG         2.1950    5.0190   -0.8990 P.3   414  DGT414      0.5373
      2  O1G        3.1560    5.8050   -0.0130 O.3   414  DGT414     -0.1143
      3  O2G        0.8690    5.6030   -1.3760 O.2   414  DGT414     -0.2221
      4  O3G        1.5830    4.5790    0.4120 O.3   414  DGT414     -0.1143
      5  O3B        2.3940    3.4430   -1.0970 O.3   414  DGT414     -0.2258
      6  PB         3.7630    3.1200   -1.8500 P.3   414  DGT414      0.2277
      7  O1B        4.4400    4.3030   -2.4950 O.3   414  DGT414     -0.4368
      8  O2B        3.4900    2.1290   -2.9260 O.2   414  DGT414     -0.5168
      9  O3A        4.6690    2.3170   -0.8330 O.3   414  DGT414     -0.2700
     10  PA         5.8400    2.9630    0.0700 P.3   414  DGT414      0.2189
     11  O1A        5.7190    2.3630    1.4430 O.3   414  DGT414     -0.4371
     12  O2A        5.8550    4.4580    0.1190 O.2   414  DGT414     -0.5170
     13  O5'        7.2010    2.4890   -0.5950 O.3   414  DGT414     -0.3112
     14  C5'        7.4990    3.0280   -1.8820 C.3   414  DGT414      0.1812
     15  C4'        7.8490    1.8800   -2.8110 C.3   414  DGT414      0.1772
     16  O4'        8.7350    1.0250   -2.0900 O.3   414  DGT414     -0.3347
     17  C3'        6.6830    0.9840   -3.2000 C.3   414  DGT414      0.1857
     18  O3'        6.0230    1.4020   -4.3960 O.3   414  DGT414     -0.2203
     19  C2'        7.3480   -0.3460   -3.4330 C.3   414  DGT414      0.0865
     20  C1'        8.5980   -0.3190   -2.5490 C.3   414  DGT414      0.1981
     21  N9         8.1710   -1.1960   -1.4740 N.pl3 414  DGT414     -0.2374
     22  C8         7.4940   -0.8240   -0.3330 C.3   414  DGT414      0.2245
     23  N7         7.1940   -1.8210    0.4290 N.2   414  DGT414     -0.2322
     24  C5         7.6820   -2.9170   -0.2780 C.2   414  DGT414      0.2182
     25  C6         7.6520   -4.2770    0.0620 C.1   414  DGT414      0.2372
     26  O6         7.1490   -4.7510    1.0810 O.2   414  DGT414     -0.2069
     27  N1         8.2730   -5.0720   -0.9070 N.2   414  DGT414     -0.2485
     28  C2         8.8610   -4.6250   -2.0790 C.1   414  DGT414      0.2531
     29  N2         9.3970   -5.5240   -2.9060 N.pl3 414  DGT414     -0.0226
     30  N3         8.8870   -3.3320   -2.3960 N.2   414  DGT414     -0.3074
     31  C4         8.2850   -2.5550   -1.4520 C.2   414  DGT414      0.2299
@<TRIPOS>BOND
     1    18    17    1
     2    19    17    1
     3    19    20    1
     4    17    15    1
     5     8     6    2
     6    29    28    1
     7    15    16    1
     8    15    14    1
     9    20    16    1
    10    20    21    1
    11     7     6    1
    12    30    28    2
    13    30    31    2
    14    28    27    2
    15    14    13    1
    16     6     5    1
    17     6     9    1
    18    21    31    1
    19    21    22    1
    20    31    24    1
    21     3     1    2
    22     5     1    1
    23    27    25    2
    24     1     2    1
    25     1     4    1
    26     9    10    1
    27    13    10    1
    28    22    23    1
    29    24    25    1
    30    24    23    2
    31    25    26    2
    32    10    12    2
    33    10    11    1
