@<TRIPOS>MOLECULE
3gik_DGT_A_1.pdb
 31 33 0 0 0
SMALL
GASTEIGER

@<TRIPOS>ATOM
      1  PG        26.4820   22.2370    1.5470 P.3   414  DGT414      0.5373
      2  O1G       26.9420   23.1580    2.6980 O.3   414  DGT414     -0.1143
      3  O2G       26.1780   22.8880    0.1780 O.2   414  DGT414     -0.2221
      4  O3G       25.0390   22.6200    1.9360 O.3   414  DGT414     -0.1143
      5  O3B       26.0190   20.7060    1.9220 O.3   414  DGT414     -0.2258
      6  PB        26.5320   20.3160    3.3920 P.3   414  DGT414      0.2277
      7  O1B       26.8300   21.5410    4.1850 O.3   414  DGT414     -0.4368
      8  O2B       27.8390   19.5590    3.3170 O.2   414  DGT414     -0.5168
      9  O3A       25.4300   19.4580    4.1510 O.3   414  DGT414     -0.2700
     10  PA        24.7530   20.1900    5.4160 P.3   414  DGT414      0.2189
     11  O1A       23.2360   20.1070    5.2480 O.2   414  DGT414     -0.5170
     12  O2A       25.1790   21.6210    5.5290 O.3   414  DGT414     -0.4371
     13  O5'       25.2270   19.4330    6.7700 O.3   414  DGT414     -0.3112
     14  C5'       26.3670   19.9610    7.4720 C.3   414  DGT414      0.1812
     15  C4'       27.5690   19.0190    7.5620 C.3   414  DGT414      0.1772
     16  O4'       27.3320   18.0080    8.5510 O.3   414  DGT414     -0.3347
     17  C3'       27.8210   18.2980    6.2650 C.3   414  DGT414      0.1857
     18  O3'       28.8770   18.9150    5.5380 O.3   414  DGT414     -0.2203
     19  C2'       28.1410   16.8720    6.6650 C.3   414  DGT414      0.0865
     20  C1'       27.4990   16.6980    8.0280 C.3   414  DGT414      0.1981
     21  N9        26.2340   15.9840    7.8110 N.pl3 414  DGT414     -0.2374
     22  C8        25.0620   16.4460    7.2330 C.3   414  DGT414      0.2245
     23  N7        24.0940   15.5520    7.1700 N.2   414  DGT414     -0.2322
     24  C5        24.6620   14.4260    7.7330 C.2   414  DGT414      0.2182
     25  C6        24.1320   13.1430    7.9330 C.1   414  DGT414      0.2372
     26  O6        23.0220   12.6910    7.6690 O.2   414  DGT414     -0.2069
     27  N1        25.0600   12.3080    8.5320 N.2   414  DGT414     -0.2485
     28  C2        26.3230   12.6130    8.9160 C.1   414  DGT414      0.2531
     29  N2        26.9940   11.6250    9.4660 N.pl3 414  DGT414     -0.0226
     30  N3        26.8370   13.8110    8.7380 N.2   414  DGT414     -0.3074
     31  C4        25.9680   14.6650    8.1340 C.2   414  DGT414      0.2299
@<TRIPOS>BOND
     1     3     1    2
     2     1     5    1
     3     1     4    1
     4     1     2    1
     5     5     6    1
     6     8     6    2
     7     6     9    1
     8     6     7    1
     9     9    10    1
    10    11    10    2
    11    10    12    1
    12    10    13    1
    13    18    17    1
    14    17    19    1
    15    17    15    1
    16    19    20    1
    17    13    14    1
    18    23    22    1
    19    23    24    2
    20    22    21    1
    21    14    15    1
    22    15    16    1
    23    26    25    2
    24    24    25    1
    25    24    31    1
    26    21    20    1
    27    21    31    1
    28    25    27    2
    29    20    16    1
    30    31    30    2
    31    27    28    2
    32    30    28    2
    33    28    29    1
