@<TRIPOS>MOLECULE
3gil_DGT_A_1.pdb
 31 33 0 0 0
SMALL
GASTEIGER

@<TRIPOS>ATOM
      1  PG         2.0590    5.2710   -1.1940 P.3   414  DGT414      0.5373
      2  O1G        3.2030    5.8470   -0.3670 O.3   414  DGT414     -0.1143
      3  O2G        0.6800    5.9430   -1.1870 O.2   414  DGT414     -0.2221
      4  O3G        1.6660    4.5830    0.1140 O.3   414  DGT414     -0.1143
      5  O3B        2.2050    3.8070   -1.8650 O.3   414  DGT414     -0.2258
      6  PB         3.7430    3.4720   -2.1460 P.3   414  DGT414      0.2277
      7  O1B        4.4260    4.5330   -2.9520 O.2   414  DGT414     -0.5168
      8  O2B        3.7250    2.1930   -2.9460 O.3   414  DGT414     -0.4368
      9  O3A        4.3570    3.2150   -0.6770 O.3   414  DGT414     -0.2700
     10  PA         5.9040    3.4890   -0.3750 P.3   414  DGT414      0.2189
     11  O1A        6.2580    2.9630    0.9770 O.3   414  DGT414     -0.4371
     12  O2A        6.1990    4.9870   -0.3590 O.2   414  DGT414     -0.5170
     13  O5'        6.8270    2.6650   -1.3550 O.3   414  DGT414     -0.3112
     14  C5'        7.4590    3.2290   -2.5040 C.3   414  DGT414      0.1812
     15  C4'        7.7560    2.0420   -3.4050 C.3   414  DGT414      0.1772
     16  O4'        8.6220    1.1590   -2.7010 O.3   414  DGT414     -0.3347
     17  C3'        6.5160    1.2190   -3.7140 C.3   414  DGT414      0.1857
     18  O3'        5.7570    1.6870   -4.8370 O.3   414  DGT414     -0.2203
     19  C2'        7.1030   -0.1430   -3.9240 C.3   414  DGT414      0.0865
     20  C1'        8.3100   -0.1800   -3.0060 C.3   414  DGT414      0.1981
     21  N9         7.9160   -0.9080   -1.8010 N.pl3 414  DGT414     -0.2374
     22  C8         7.1790   -0.4690   -0.7220 C.3   414  DGT414      0.2245
     23  N7         6.9910   -1.3880    0.1980 N.2   414  DGT414     -0.2322
     24  C5         7.6150   -2.5140   -0.3140 C.2   414  DGT414      0.2182
     25  C6         7.7530   -3.8340    0.1980 C.1   414  DGT414      0.2372
     26  O6         7.3630   -4.3520    1.2690 O.2   414  DGT414     -0.2069
     27  N1         8.4700   -4.6300   -0.6770 N.2   414  DGT414     -0.2485
     28  C2         8.9930   -4.2430   -1.8720 C.1   414  DGT414      0.2531
     29  N2         9.6050   -5.1560   -2.5790 N.pl3 414  DGT414     -0.0226
     30  N3         8.8740   -3.0250   -2.3420 N.2   414  DGT414     -0.3074
     31  C4         8.1780   -2.2210   -1.5330 C.2   414  DGT414      0.2299
@<TRIPOS>BOND
     1    18    17    1
     2    19    17    1
     3    19    20    1
     4    17    15    1
     5    15    16    1
     6    15    14    1
     7    20    16    1
     8    20    21    1
     9     7     6    2
    10     8     6    1
    11    29    28    1
    12    14    13    1
    13    30    28    2
    14    30    31    2
    15     6     5    1
    16     6     9    1
    17    28    27    2
    18     5     1    1
    19    21    31    1
    20    21    22    1
    21    31    24    1
    22    13    10    1
    23     1     3    2
    24     1     2    1
    25     1     4    1
    26    22    23    1
    27     9    10    1
    28    27    25    2
    29    10    12    2
    30    10    11    1
    31    24    23    2
    32    24    25    1
    33    25    26    2
