@<TRIPOS>MOLECULE
3gim_DGT_A_1.pdb
 31 33 0 0 0
SMALL
GASTEIGER

@<TRIPOS>ATOM
      1  PG        25.6230   22.4100    1.9860 P.3   414  DGT414      0.5373
      2  O1G       24.8330   22.9410    3.1800 O.3   414  DGT414     -0.1143
      3  O2G       25.3950   22.9700    0.5950 O.2   414  DGT414     -0.2221
      4  O3G       24.3240   21.6650    1.7610 O.3   414  DGT414     -0.1143
      5  O3B       26.3880   20.9730    2.1620 O.3   414  DGT414     -0.2258
      6  PB        26.5100   20.6070    3.7320 P.3   414  DGT414      0.2277
      7  O1B       27.2280   21.7490    4.4600 O.3   414  DGT414     -0.4368
      8  O2B       27.3180   19.3650    3.8940 O.2   414  DGT414     -0.5168
      9  O3A       24.9500   20.4370    4.2180 O.3   414  DGT414     -0.2700
     10  PA        24.6410   20.6500    5.8020 P.3   414  DGT414      0.2189
     11  O1A       23.2780   20.1100    6.0860 O.2   414  DGT414     -0.5170
     12  O2A       24.6930   22.1200    6.1980 O.3   414  DGT414     -0.4371
     13  O5'       25.6210   19.7300    6.6800 O.3   414  DGT414     -0.3112
     14  C5'       26.8600   20.2270    7.1630 C.3   414  DGT414      0.1812
     15  C4'       27.7300   19.0850    7.6770 C.3   414  DGT414      0.1772
     16  O4'       27.0290   18.2790    8.6220 O.3   414  DGT414     -0.3347
     17  C3'       28.1060   18.1620    6.5480 C.3   414  DGT414      0.1857
     18  O3'       29.2730   18.6720    5.8970 O.3   414  DGT414     -0.2203
     19  C2'       28.3130   16.8410    7.2610 C.3   414  DGT414      0.0865
     20  C1'       27.3570   16.8950    8.4460 C.3   414  DGT414      0.1981
     21  N9        26.1690   16.0810    8.1000 N.pl3 414  DGT414     -0.2374
     22  C8        25.0420   16.5170    7.4560 C.3   414  DGT414      0.2245
     23  N7        24.1490   15.5690    7.2700 N.2   414  DGT414     -0.2322
     24  C5        24.7320   14.4370    7.8280 C.2   414  DGT414      0.2182
     25  C6        24.2520   13.1160    7.9160 C.1   414  DGT414      0.2372
     26  O6        23.1730   12.6540    7.5080 O.2   414  DGT414     -0.2069
     27  N1        25.1470   12.2750    8.5550 N.2   414  DGT414     -0.2485
     28  C2        26.3700   12.6270    9.0580 C.1   414  DGT414      0.2531
     29  N2        27.0880   11.6630    9.6240 N.pl3 414  DGT414     -0.0226
     30  N3        26.8170   13.8740    8.9670 N.2   414  DGT414     -0.3074
     31  C4        25.9660   14.7260    8.3370 C.2   414  DGT414      0.2299
@<TRIPOS>BOND
     1     3     1    2
     2     4     1    1
     3     1     5    1
     4     1     2    1
     5     5     6    1
     6     6     8    2
     7     6     9    1
     8     6     7    1
     9     9    10    1
    10    10    11    2
    11    10    12    1
    12    10    13    1
    13    18    17    1
    14    17    19    1
    15    17    15    1
    16    13    14    1
    17    14    15    1
    18    19    20    1
    19    23    22    1
    20    23    24    2
    21    22    21    1
    22    26    25    2
    23    15    16    1
    24    24    25    1
    25    24    31    1
    26    25    27    2
    27    21    31    1
    28    21    20    1
    29    31    30    2
    30    20    16    1
    31    27    28    2
    32    30    28    2
    33    28    29    1
