@<TRIPOS>MOLECULE
3giq_G01_A_1.pdb
 14 13 0 0 0
SMALL
GASTEIGER

@<TRIPOS>ATOM
      1  CD        35.1440   58.7460   18.4120 C.2   481  G01481      0.3649
      2  CG        33.8930   58.0900   17.8280 C.3   481  G01481      0.1161
      3  CB        33.4370   56.9360   18.7320 C.3   481  G01481      0.0413
      4  CA        32.1540   56.1370   18.3740 C.3   481  G01481      0.1850
      5  C         30.9430   57.0970   18.4100 C.2   481  G01481      0.3808
      6  C6        32.1770   52.3710   20.0800 C.3   481  G01481      0.1179
      7  P         32.0110   53.4490   18.6670 P.3   481  G01481      0.3268
      8  OPA       30.6290   53.0940   17.9680 O.3   481  G01481     -0.1502
      9  OPB       33.1460   53.2250   17.7390 O.2   481  G01481     -0.2686
     10  N         31.8810   54.9650   19.2500 N.3   481  G01481     -0.1344
     11  O         30.3490   57.2830   19.4890 O.co2 481  G01481     -0.2441
     12  OXT       30.6340   57.6330   17.3270 O.co2 481  G01481     -0.2441
     13  OE1       34.9830   59.4970   19.4010 O.co2 481  G01481     -0.2457
     14  OE2       36.2240   58.4670   17.8620 O.co2 481  G01481     -0.2457
@<TRIPOS>BOND
     1    12     5   ar
     2     9     7    2
     3     2     1    1
     4     2     3    1
     5    14     1   ar
     6     8     7    1
     7     4     5    1
     8     4     3    1
     9     4    10    1
    10     5    11   ar
    11     1    13   ar
    12     7    10    1
    13     7     6    1
