@<TRIPOS>MOLECULE
3giy_FMN_A_1.pdb
 31 33 0 0 0
SMALL
GASTEIGER

@<TRIPOS>ATOM
      1  N1        72.5210   82.4860   26.0240 N.2   900  FMN900     -0.2890
      2  C2        71.3470   81.9620   26.5180 C.1   900  FMN900      0.3669
      3  O2        71.1930   81.7360   27.6620 O.2   900  FMN900     -0.1744
      4  N3        70.2910   81.6650   25.5430 N.2   900  FMN900     -0.2300
      5  C4        70.3600   81.8840   24.1220 C.1   900  FMN900      0.2513
      6  O4        69.4470   81.6060   23.3460 O.2   900  FMN900     -0.2057
      7  C4A       71.6570   82.4390   23.6100 C.2   900  FMN900      0.2700
      8  N5        71.8980   82.6130   22.2840 N.2   900  FMN900     -0.3878
      9  C5A       73.1620   82.9670   21.7990 C.2   900  FMN900      0.1320
     10  C6        73.4190   83.0040   20.3680 C.2   900  FMN900      0.0250
     11  C7        74.7590   83.2530   19.7960 C.2   900  FMN900     -0.0238
     12  C7M       74.9360   83.2190   18.3000 C.3   900  FMN900      0.0308
     13  C8        75.9350   83.5180   20.7670 C.2   900  FMN900     -0.0280
     14  C8M       77.3560   83.7710   20.3330 C.3   900  FMN900      0.0304
     15  C9        75.6580   83.5030   22.1740 C.2   900  FMN900     -0.0041
     16  C9A       74.3210   83.2230   22.7670 C.3   900  FMN900      0.1497
     17  N10       73.9780   83.0920   24.2020 N.pl3 900  FMN900     -0.2691
     18  C10       72.7000   82.6940   24.7000 C.2   900  FMN900      0.2416
     19  C1'       75.0610   83.2870   25.1840 C.3   900  FMN900      0.1294
     20  C2'       75.8080   81.9880   25.4760 C.3   900  FMN900      0.2044
     21  O2'       75.0820   81.1270   26.2680 O.3   900  FMN900     -0.2185
     22  C3'       77.1430   82.2220   26.1720 C.3   900  FMN900      0.2164
     23  O3'       76.9020   83.0490   27.3710 O.3   900  FMN900     -0.2175
     24  C4'       78.1860   83.0280   25.4080 C.3   900  FMN900      0.2147
     25  O4'       78.2490   82.7130   24.0320 O.3   900  FMN900     -0.2176
     26  C5'       79.5340   82.7520   26.0340 C.3   900  FMN900      0.1892
     27  O5'       80.6320   83.4520   25.3680 O.3   900  FMN900     -0.2674
     28  P         81.5370   83.0270   24.1990 P.3   900  FMN900      0.5327
     29  O1P       82.7390   83.9240   24.1420 O.3   900  FMN900     -0.1145
     30  O2P       80.6680   83.1010   22.9770 O.2   900  FMN900     -0.2224
     31  O3P       81.9000   81.6020   24.5430 O.3   900  FMN900     -0.1145
@<TRIPOS>BOND
     1    12    11    1
     2    11    10    2
     3    11    13    1
     4    14    13    1
     5    10     9    1
     6    13    15    2
     7     9     8    2
     8     9    16    1
     9    15    16    1
    10     8     7    2
    11    16    17    1
    12    30    28    2
    13     6     5    2
    14     7     5    1
    15     7    18    1
    16    25    24    1
    17     5     4    2
    18    29    28    1
    19    28    31    1
    20    28    27    1
    21    17    18    1
    22    17    19    1
    23    18     1    2
    24    19    20    1
    25    27    26    1
    26    24    26    1
    27    24    22    1
    28    20    22    1
    29    20    21    1
    30     4     2    2
    31     1     2    2
    32    22    23    1
    33     2     3    2
