@<TRIPOS>MOLECULE
3gj0_GDP_A_1.pdb
 28 30 0 0 0
SMALL
GASTEIGER

@<TRIPOS>ATOM
      1  PB        15.3440   11.2310  -13.2800 P.3   302  GDP302      0.5373
      2  O1B       16.5000   11.6590  -14.1340 O.2   302  GDP302     -0.2221
      3  O2B       14.4150   12.4210  -13.0000 O.3   302  GDP302     -0.1143
      4  O3B       14.5620   10.0680  -13.8610 O.3   302  GDP302     -0.1143
      5  O3A       15.9000   10.7030  -11.8580 O.3   302  GDP302     -0.2261
      6  PA        17.2570   11.0920  -11.1100 P.3   302  GDP302      0.2231
      7  O1A       18.4460   10.3630  -11.7150 O.2   302  GDP302     -0.5169
      8  O2A       17.3980   12.5810  -11.0160 O.3   302  GDP302     -0.4370
      9  O5'       17.0510   10.3820   -9.6980 O.3   302  GDP302     -0.3111
     10  C5'       15.9350   10.7340   -8.8680 C.3   302  GDP302      0.1813
     11  C4'       16.2420   10.3080   -7.4440 C.3   302  GDP302      0.1799
     12  O4'       16.2990    8.8770   -7.3710 O.3   302  GDP302     -0.3326
     13  C3'       17.5880   10.8380   -6.9830 C.3   302  GDP302      0.2158
     14  O3'       17.5140   11.2630   -5.5970 O.3   302  GDP302     -0.2175
     15  C2'       18.4920    9.6330   -7.0410 C.3   302  GDP302      0.2310
     16  O2'       19.4890    9.7160   -6.0220 O.3   302  GDP302     -0.2158
     17  C1'       17.5360    8.4870   -6.7800 C.3   302  GDP302      0.2293
     18  N9        17.9650    7.2310   -7.4200 N.pl3 302  GDP302     -0.2354
     19  C8        18.1860    7.0680   -8.7400 C.3   302  GDP302      0.2246
     20  N7        18.5190    5.7960   -9.0040 N.2   302  GDP302     -0.2322
     21  C5        18.5130    5.1200   -7.8380 C.2   302  GDP302      0.2182
     22  C6        18.7750    3.7390   -7.4390 C.1   302  GDP302      0.2372
     23  O6        19.1100    2.8760   -8.2740 O.2   302  GDP302     -0.2069
     24  N1        18.6270    3.4340   -6.1520 N.2   302  GDP302     -0.2485
     25  C2        18.2760    4.3470   -5.2270 C.1   302  GDP302      0.2531
     26  N2        18.1740    3.9230   -3.9340 N.pl3 302  GDP302     -0.0226
     27  N3        18.0090    5.6540   -5.5120 N.2   302  GDP302     -0.3074
     28  C4        18.1140    6.0710   -6.7990 C.2   302  GDP302      0.2300
@<TRIPOS>BOND
     1     2     1    2
     2     4     1    1
     3     1     3    1
     4     1     5    1
     5     5     6    1
     6     7     6    2
     7     6     8    1
     8     6     9    1
     9     9    10    1
    10    20    19    1
    11    20    21    2
    12    10    11    1
    13    19    18    1
    14    23    22    2
    15    21    22    1
    16    21    28    1
    17    11    12    1
    18    11    13    1
    19    22    24    2
    20    18    28    1
    21    18    17    1
    22    12    17    1
    23    15    13    1
    24    15    17    1
    25    15    16    1
    26    13    14    1
    27    28    27    2
    28    24    25    2
    29    27    25    2
    30    25    26    1
