@<TRIPOS>MOLECULE
3gj3_GDP_A_1.pdb
 28 30 0 0 0
SMALL
GASTEIGER

@<TRIPOS>ATOM
      1  PB        -8.7810   18.1350    7.7910 P.3   302  GDP302      0.5373
      2  O1B       -8.5490   19.2940    6.8990 O.2   302  GDP302     -0.2221
      3  O2B       -9.7430   17.1260    7.1830 O.3   302  GDP302     -0.1143
      4  O3B       -7.4560   17.5400    8.1780 O.3   302  GDP302     -0.1143
      5  O3A       -9.4270   18.6510    9.1670 O.3   302  GDP302     -0.2261
      6  PA       -10.3820   19.9240    9.3170 P.3   302  GDP302      0.2231
      7  O1A       -9.6080   21.2120    9.3120 O.3   302  GDP302     -0.4370
      8  O2A      -11.5150   19.9160    8.3280 O.2   302  GDP302     -0.5169
      9  O5'      -10.9070   19.6780   10.8270 O.3   302  GDP302     -0.3111
     10  C5'      -11.7200   18.5260   11.0800 C.3   302  GDP302      0.1813
     11  C4'      -12.4720   18.7210   12.3820 C.3   302  GDP302      0.1799
     12  O4'      -11.5440   18.9580   13.4410 O.3   302  GDP302     -0.3326
     13  C3'      -13.3340   19.9590   12.2780 C.3   302  GDP302      0.2158
     14  O3'      -14.5300   19.7100   13.0270 O.3   302  GDP302     -0.2175
     15  C2'      -12.5250   21.0220   12.9820 C.3   302  GDP302      0.2310
     16  O2'      -13.3330   22.0700   13.5220 O.3   302  GDP302     -0.2158
     17  C1'      -11.8300   20.2080   14.0510 C.3   302  GDP302      0.2293
     18  N9       -10.5530   20.8170   14.4310 N.pl3 302  GDP302     -0.2354
     19  C8        -9.5380   21.1430   13.5970 C.3   302  GDP302      0.2246
     20  N7        -8.5070   21.6670   14.2950 N.2   302  GDP302     -0.2322
     21  C5        -8.8670   21.6690   15.5990 C.2   302  GDP302      0.2182
     22  C6        -8.2560   22.0790   16.8720 C.1   302  GDP302      0.2372
     23  O6        -7.1110   22.5690   16.8920 O.2   302  GDP302     -0.2069
     24  N1        -8.9680   21.9090   18.0030 N.2   302  GDP302     -0.2485
     25  C2       -10.2070   21.3850   18.0150 C.1   302  GDP302      0.2531
     26  N2       -10.8530   21.2590   19.2050 N.pl3 302  GDP302     -0.0226
     27  N3       -10.8380   20.9860   16.8840 N.2   302  GDP302     -0.3074
     28  C4       -10.2150   21.0980   15.6810 C.2   302  GDP302      0.2300
@<TRIPOS>BOND
     1     2     1    2
     2     3     1    1
     3     1     4    1
     4     1     5    1
     5     8     6    2
     6     5     6    1
     7     7     6    1
     8     6     9    1
     9     9    10    1
    10    10    11    1
    11    13    11    1
    12    13    15    1
    13    13    14    1
    14    11    12    1
    15    15    16    1
    16    15    17    1
    17    12    17    1
    18    19    20    1
    19    19    18    1
    20    17    18    1
    21    20    21    2
    22    18    28    1
    23    21    28    1
    24    21    22    1
    25    28    27    2
    26    22    23    2
    27    22    24    2
    28    27    25    2
    29    24    25    2
    30    25    26    1
