@<TRIPOS>MOLECULE
3gj4_GDP_A_1.pdb
 28 30 0 0 0
SMALL
GASTEIGER

@<TRIPOS>ATOM
      1  PB        50.2560  -10.0930   39.6520 P.3   302  GDP302      0.5373
      2  O1B       50.3030   -9.8660   38.1760 O.2   302  GDP302     -0.2221
      3  O2B       51.4160  -11.0130   39.9840 O.3   302  GDP302     -0.1143
      4  O3B       50.3650   -8.7680   40.3730 O.3   302  GDP302     -0.1143
      5  O3A       48.8490  -10.7170   40.0970 O.3   302  GDP302     -0.2261
      6  PA        48.0400  -11.6720   39.0790 P.3   302  GDP302      0.2231
      7  O1A       47.4080  -10.8740   37.9540 O.2   302  GDP302     -0.5169
      8  O2A       48.9940  -12.7130   38.5630 O.3   302  GDP302     -0.4370
      9  O5'       46.8920  -12.2440   40.0530 O.3   302  GDP302     -0.3111
     10  C5'       47.2480  -13.1590   41.0930 C.3   302  GDP302      0.1813
     11  C4'       45.9830  -13.7240   41.7180 C.3   302  GDP302      0.1799
     12  O4'       45.1270  -12.6450   42.0960 O.3   302  GDP302     -0.3326
     13  C3'       45.2280  -14.5470   40.6950 C.3   302  GDP302      0.2158
     14  O3'       44.7940  -15.7560   41.3230 O.3   302  GDP302     -0.2175
     15  C2'       44.0460  -13.6720   40.3090 C.3   302  GDP302      0.2310
     16  O2'       42.8960  -14.4470   39.9650 O.3   302  GDP302     -0.2158
     17  C1'       43.8200  -12.8360   41.5590 C.3   302  GDP302      0.2293
     18  N9        43.1440  -11.5490   41.2520 N.pl3 302  GDP302     -0.2354
     19  C8        43.6060  -10.5840   40.4340 C.3   302  GDP302      0.2246
     20  N7        42.7300   -9.5440   40.3670 N.2   302  GDP302     -0.2322
     21  C5        41.6780   -9.8380   41.1550 C.2   302  GDP302      0.2182
     22  C6        40.4020   -9.1820   41.5440 C.1   302  GDP302      0.2372
     23  O6        40.0830   -8.0590   41.1040 O.2   302  GDP302     -0.2069
     24  N1        39.5850   -9.8320   42.3800 N.2   302  GDP302     -0.2485
     25  C2        39.8860  -11.0470   42.8800 C.1   302  GDP302      0.2531
     26  N2        38.9970  -11.6280   43.7250 N.pl3 302  GDP302     -0.0226
     27  N3        41.0350  -11.7060   42.5700 N.2   302  GDP302     -0.3074
     28  C4        41.9570  -11.1630   41.7380 C.2   302  GDP302      0.2300
@<TRIPOS>BOND
     1     7     6    2
     2     2     1    2
     3     8     6    1
     4     6     9    1
     5     6     5    1
     6     1     3    1
     7     1     5    1
     8     1     4    1
     9    16    15    1
    10     9    10    1
    11    15    13    1
    12    15    17    1
    13    20    19    1
    14    20    21    2
    15    19    18    1
    16    13    14    1
    17    13    11    1
    18    10    11    1
    19    23    22    2
    20    21    22    1
    21    21    28    1
    22    18    17    1
    23    18    28    1
    24    22    24    2
    25    17    12    1
    26    11    12    1
    27    28    27    2
    28    24    25    2
    29    27    25    2
    30    25    26    1
