@<TRIPOS>MOLECULE
3gj5_GDP_A_1.pdb
 28 30 0 0 0
SMALL
GASTEIGER

@<TRIPOS>ATOM
      1  PB        50.2620   -9.8060   40.0900 P.3   302  GDP302      0.5373
      2  O1B       50.4480   -9.6120   38.6160 O.2   302  GDP302     -0.2221
      3  O2B       51.2810  -10.8180   40.5880 O.3   302  GDP302     -0.1143
      4  O3B       50.3840   -8.5000   40.8120 O.3   302  GDP302     -0.1143
      5  O3A       48.7800  -10.3820   40.3640 O.3   302  GDP302     -0.2261
      6  PA        47.9630  -11.3440   39.3700 P.3   302  GDP302      0.2231
      7  O1A       47.3620  -10.5830   38.2120 O.2   302  GDP302     -0.5169
      8  O2A       48.7640  -12.5450   38.9080 O.3   302  GDP302     -0.4370
      9  O5'       46.7900  -11.8190   40.3390 O.3   302  GDP302     -0.3111
     10  C5'       47.1510  -12.6480   41.4560 C.3   302  GDP302      0.1813
     11  C4'       45.9170  -13.3350   42.0120 C.3   302  GDP302      0.1799
     12  O4'       44.9680  -12.3600   42.4530 O.3   302  GDP302     -0.3326
     13  C3'       45.2470  -14.1410   40.9160 C.3   302  GDP302      0.2158
     14  O3'       44.7400  -15.3570   41.4810 O.3   302  GDP302     -0.2175
     15  C2'       44.0870  -13.2770   40.4740 C.3   302  GDP302      0.2310
     16  O2'       43.0010  -14.0690   39.9780 O.3   302  GDP302     -0.2158
     17  C1'       43.7270  -12.5550   41.7580 C.3   302  GDP302      0.2293
     18  N9        43.1120  -11.2450   41.4410 N.pl3 302  GDP302     -0.2354
     19  C8        43.6550  -10.2590   40.6970 C.3   302  GDP302      0.2246
     20  N7        42.8150   -9.1900   40.6280 N.2   302  GDP302     -0.2322
     21  C5        41.7140   -9.4970   41.3430 C.2   302  GDP302      0.2182
     22  C6        40.4390   -8.8340   41.6830 C.1   302  GDP302      0.2372
     23  O6        40.1830   -7.6850   41.2600 O.2   302  GDP302     -0.2069
     24  N1        39.5680   -9.4980   42.4500 N.2   302  GDP302     -0.2485
     25  C2        39.8020  -10.7480   42.9090 C.1   302  GDP302      0.2531
     26  N2        38.8510  -11.3490   43.6680 N.pl3 302  GDP302     -0.0226
     27  N3        40.9450  -11.4250   42.6360 N.2   302  GDP302     -0.3074
     28  C4        41.9150  -10.8560   41.8760 C.2   302  GDP302      0.2300
@<TRIPOS>BOND
     1     7     6    2
     2     2     1    2
     3     8     6    1
     4     6     9    1
     5     6     5    1
     6    16    15    1
     7     1     5    1
     8     1     3    1
     9     1     4    1
    10     9    10    1
    11    15    13    1
    12    15    17    1
    13    20    19    1
    14    20    21    2
    15    19    18    1
    16    13    14    1
    17    13    11    1
    18    23    22    2
    19    21    22    1
    20    21    28    1
    21    18    17    1
    22    18    28    1
    23    10    11    1
    24    22    24    2
    25    17    12    1
    26    28    27    2
    27    11    12    1
    28    24    25    2
    29    27    25    2
    30    25    26    1
