@<TRIPOS>MOLECULE
3gj6_GDP_A_1.pdb
 28 30 0 0 0
SMALL
GASTEIGER

@<TRIPOS>ATOM
      1  PB         9.0660   18.1840   -8.1760 P.3   302  GDP302      0.5373
      2  O1B        8.8960   19.2960   -7.1810 O.3   302  GDP302     -0.1143
      3  O2B        9.9370   17.1210   -7.5490 O.3   302  GDP302     -0.1143
      4  O3B        7.7010   17.6600   -8.5380 O.2   302  GDP302     -0.2221
      5  O3A        9.7760   18.6460   -9.5520 O.3   302  GDP302     -0.2261
      6  PA        10.6760   19.9830   -9.7360 P.3   302  GDP302      0.2231
      7  O1A        9.8240   21.2300   -9.6720 O.2   302  GDP302     -0.5169
      8  O2A       11.8120   20.0700   -8.7520 O.3   302  GDP302     -0.4370
      9  O5'       11.2270   19.7350  -11.2190 O.3   302  GDP302     -0.3111
     10  C5'       12.1000   18.6290  -11.4280 C.3   302  GDP302      0.1813
     11  C4'       12.7600   18.8090  -12.7790 C.3   302  GDP302      0.1799
     12  O4'       11.7240   18.9540  -13.7500 O.3   302  GDP302     -0.3326
     13  C3'       13.5800   20.0940  -12.7750 C.3   302  GDP302      0.2158
     14  O3'       14.9180   19.8690  -13.2710 O.3   302  GDP302     -0.2175
     15  C2'       12.7740   21.0580  -13.6410 C.3   302  GDP302      0.2310
     16  O2'       13.5790   21.9860  -14.3900 O.3   302  GDP302     -0.2158
     17  C1'       11.9530   20.1320  -14.5310 C.3   302  GDP302      0.2293
     18  N9        10.6790   20.7750  -14.9320 N.pl3 302  GDP302     -0.2354
     19  C8         9.7040   21.1880  -14.1010 C.3   302  GDP302      0.2246
     20  N7         8.6770   21.7330  -14.8010 N.2   302  GDP302     -0.2322
     21  C5         8.9940   21.6690  -16.1060 C.2   302  GDP302      0.2182
     22  C6         8.3560   22.0680  -17.3830 C.1   302  GDP302      0.2372
     23  O6         7.2370   22.6220  -17.4040 O.2   302  GDP302     -0.2069
     24  N1         9.0180   21.8250  -18.5230 N.2   302  GDP302     -0.2485
     25  C2        10.2340   21.2480  -18.5470 C.1   302  GDP302      0.2531
     26  N2        10.8270   21.0500  -19.7500 N.pl3 302  GDP302     -0.0226
     27  N3        10.8780   20.8560  -17.4120 N.2   302  GDP302     -0.3074
     28  C4        10.3170   21.0370  -16.1890 C.2   302  GDP302      0.2300
@<TRIPOS>BOND
     1    26    25    1
     2    25    24    2
     3    25    27    2
     4    24    22    2
     5    27    28    2
     6    23    22    2
     7    22    21    1
     8    28    21    1
     9    28    18    1
    10    21    20    2
    11    18    17    1
    12    18    19    1
    13    20    19    1
    14    17    12    1
    15    17    15    1
    16    16    15    1
    17    12    11    1
    18    15    13    1
    19    14    13    1
    20    11    13    1
    21    11    10    1
    22    10     9    1
    23     9     6    1
    24     6     7    2
    25     6     5    1
    26     6     8    1
    27     5     1    1
    28     4     1    2
    29     1     3    1
    30     1     2    1
