@<TRIPOS>MOLECULE
3gj7_GDP_A_1.pdb
 28 30 0 0 0
SMALL
GASTEIGER

@<TRIPOS>ATOM
      1  PB         5.4970    9.5370   42.4390 P.3   302  GDP302      0.5373
      2  O1B        4.5870    9.3530   41.2620 O.2   302  GDP302     -0.2221
      3  O2B        4.8570   10.4440   43.4780 O.3   302  GDP302     -0.1143
      4  O3B        5.8280    8.2110   43.0500 O.3   302  GDP302     -0.1143
      5  O3A        6.9220   10.1380   42.0350 O.3   302  GDP302     -0.2261
      6  PA         7.2500   11.0370   40.7620 P.3   302  GDP302      0.2231
      7  O1A        7.3090   10.2030   39.5150 O.2   302  GDP302     -0.5169
      8  O2A        6.2870   12.1880   40.5860 O.3   302  GDP302     -0.4370
      9  O5'        8.7200   11.4940   41.2120 O.3   302  GDP302     -0.3111
     10  C5'        8.9200   12.3400   42.3540 C.3   302  GDP302      0.1813
     11  C4'       10.2500   13.0530   42.1210 C.3   302  GDP302      0.1799
     12  O4'       11.3120   12.0910   42.0230 O.3   302  GDP302     -0.3326
     13  C3'       10.2210   13.8000   40.7980 C.3   302  GDP302      0.2158
     14  O3'       10.8450   15.0690   41.0050 O.3   302  GDP302     -0.2175
     15  C2'       11.0750   12.9600   39.8720 C.3   302  GDP302      0.2310
     16  O2'       11.7720   13.7240   38.8820 O.3   302  GDP302     -0.2158
     17  C1'       12.0500   12.2840   40.8170 C.3   302  GDP302      0.2293
     18  N9        12.4670   10.9800   40.2460 N.pl3 302  GDP302     -0.2354
     19  C8        11.6400   10.0040   39.8220 C.3   302  GDP302      0.2246
     20  N7        12.3400    8.9310   39.3580 N.2   302  GDP302     -0.2322
     21  C5        13.6490    9.2270   39.4870 C.2   302  GDP302      0.2182
     22  C6        14.9240    8.5420   39.1890 C.1   302  GDP302      0.2372
     23  O6        14.9410    7.3940   38.6870 O.2   302  GDP302     -0.2069
     24  N1        16.0580    9.1880   39.4620 N.2   302  GDP302     -0.2485
     25  C2        16.0760   10.4240   39.9930 C.1   302  GDP302      0.2531
     26  N2        17.2790   10.9910   40.2290 N.pl3 302  GDP302     -0.0226
     27  N3        14.9500   11.1190   40.2960 N.2   302  GDP302     -0.3074
     28  C4        13.7280   10.5780   40.0680 C.2   302  GDP302      0.2300
@<TRIPOS>BOND
     1    23    22    2
     2    16    15    1
     3    22    24    2
     4    22    21    1
     5    20    21    2
     6    20    19    1
     7    24    25    2
     8    21    28    1
     9     7     6    2
    10    19    18    1
    11    15    13    1
    12    15    17    1
    13    25    26    1
    14    25    27    2
    15    28    18    1
    16    28    27    2
    17    18    17    1
    18     8     6    1
    19     6     9    1
    20     6     5    1
    21    13    14    1
    22    13    11    1
    23    17    12    1
    24     9    10    1
    25     2     1    2
    26    12    11    1
    27     5     1    1
    28    11    10    1
    29     1     4    1
    30     1     3    1
