@<TRIPOS>MOLECULE
3gj8_GDP_A_1.pdb
 28 30 0 0 0
SMALL
GASTEIGER

@<TRIPOS>ATOM
      1  PB        55.1320   -9.9870   39.0250 P.3   302  GDP302      0.5373
      2  O1B       55.1880   -9.8000   37.5410 O.2   302  GDP302     -0.2221
      3  O2B       56.1820  -10.9940   39.4780 O.3   302  GDP302     -0.1143
      4  O3B       55.2890   -8.6620   39.7070 O.3   302  GDP302     -0.1143
      5  O3A       53.7070  -10.5800   39.4600 O.3   302  GDP302     -0.2261
      6  PA        52.8050  -11.5000   38.5040 P.3   302  GDP302      0.2231
      7  O1A       52.0980  -10.6620   37.4600 O.2   302  GDP302     -0.5169
      8  O2A       53.5650  -12.6660   37.9230 O.3   302  GDP302     -0.4370
      9  O5'       51.7040  -12.0260   39.5440 O.3   302  GDP302     -0.3111
     10  C5'       52.1150  -12.7690   40.6990 C.3   302  GDP302      0.1813
     11  C4'       50.9000  -13.4630   41.2910 C.3   302  GDP302      0.1799
     12  O4'       49.9560  -12.4880   41.7420 O.3   302  GDP302     -0.3326
     13  C3'       50.2210  -14.2720   40.2060 C.3   302  GDP302      0.2158
     14  O3'       49.7870  -15.5270   40.7530 O.3   302  GDP302     -0.2175
     15  C2'       49.0260  -13.4260   39.8120 C.3   302  GDP302      0.2310
     16  O2'       47.9250  -14.2220   39.3870 O.3   302  GDP302     -0.2158
     17  C1'       48.6970  -12.6840   41.0930 C.3   302  GDP302      0.2293
     18  N9        48.0560  -11.3730   40.8310 N.pl3 302  GDP302     -0.2354
     19  C8        48.5460  -10.3740   40.0620 C.3   302  GDP302      0.2246
     20  N7        47.7000   -9.3110   40.0530 N.2   302  GDP302     -0.2322
     21  C5        46.6510   -9.6300   40.8380 C.2   302  GDP302      0.2182
     22  C6        45.4060   -8.9650   41.2690 C.1   302  GDP302      0.2372
     23  O6        45.1320   -7.8060   40.8770 O.2   302  GDP302     -0.2069
     24  N1        44.5860   -9.6440   42.0860 N.2   302  GDP302     -0.2485
     25  C2        44.8520  -10.8900   42.5240 C.1   302  GDP302      0.2531
     26  N2        43.9560  -11.4970   43.3440 N.pl3 302  GDP302     -0.0226
     27  N3        45.9720  -11.5660   42.1680 N.2   302  GDP302     -0.3074
     28  C4        46.8930  -10.9870   41.3520 C.2   302  GDP302      0.2300
@<TRIPOS>BOND
     1     7     6    2
     2     2     1    2
     3     8     6    1
     4     6     5    1
     5     6     9    1
     6     1     5    1
     7     1     3    1
     8     1     4    1
     9    16    15    1
    10     9    10    1
    11    15    13    1
    12    15    17    1
    13    20    19    1
    14    20    21    2
    15    19    18    1
    16    13    14    1
    17    13    11    1
    18    10    11    1
    19    18    17    1
    20    18    28    1
    21    21    22    1
    22    21    28    1
    23    23    22    2
    24    17    12    1
    25    22    24    2
    26    11    12    1
    27    28    27    2
    28    24    25    2
    29    27    25    2
    30    25    26    1
