@<TRIPOS>MOLECULE
3gjb_AKG_A_1.pdb
 10 9 0 0 0
SMALL
GASTEIGER

@<TRIPOS>ATOM
      1  C1         6.1320  -18.1300  -46.6760 C.2   321  AKG321      0.4219
      2  O1         7.1860  -17.9270  -46.0950 O.co2 321  AKG321     -0.2373
      3  O2         5.3600  -19.1540  -46.2910 O.co2 321  AKG321     -0.2373
      4  C2         5.7130  -17.2420  -47.8090 C.2   321  AKG321      0.2526
      5  O5         4.6510  -17.4310  -48.4130 O.2   321  AKG321     -0.2843
      6  C3         6.6310  -16.1090  -48.1930 C.3   321  AKG321      0.0881
      7  C4         6.0660  -15.3360  -49.3640 C.3   321  AKG321      0.1224
      8  C5         6.9820  -14.2090  -49.7290 C.2   321  AKG321      0.3653
      9  O3         8.0090  -14.0090  -49.1090 O.co2 321  AKG321     -0.2456
     10  O4         6.6470  -13.4240  -50.7560 O.co2 321  AKG321     -0.2456
@<TRIPOS>BOND
     1    10     8   ar
     2     8     7    1
     3     8     9   ar
     4     7     6    1
     5     5     4    2
     6     6     4    1
     7     4     1    1
     8     1     3   ar
     9     1     2   ar
