@<TRIPOS>MOLECULE
3gjc_BOG_A_1.pdb
 20 20 0 0 0
SMALL
GASTEIGER

@<TRIPOS>ATOM
      1  C1        28.2270   -0.4470   17.4650 C.3   701  BOG701      0.2695
      2  O1        27.8380    0.8410   17.0460 O.3   701  BOG701     -0.3286
      3  C2        28.2800   -0.5800   19.0000 C.3   701  BOG701      0.2406
      4  O2        29.2420    0.3330   19.4970 O.3   701  BOG701     -0.2149
      5  C3        28.7140   -1.9990   19.3900 C.3   701  BOG701      0.2198
      6  O3        28.5210   -2.1650   20.7800 O.3   701  BOG701     -0.2174
      7  C4        27.8740   -3.0510   18.6510 C.3   701  BOG701      0.2144
      8  O4        28.4870   -4.3100   18.8170 O.3   701  BOG701     -0.2176
      9  C5        27.7840   -2.7760   17.1390 C.3   701  BOG701      0.1835
     10  O5        27.3940   -1.4300   16.8330 O.3   701  BOG701     -0.3256
     11  C6        26.8060   -3.7580   16.4780 C.3   701  BOG701      0.2142
     12  O6        25.5020   -3.4690   16.9210 O.3   701  BOG701     -0.2176
     13  C1'       28.2200    1.2220   15.7450 C.3   701  BOG701      0.1449
     14  C2'       27.8640    2.6870   15.5090 C.3   701  BOG701      0.0322
     15  C3'       26.4180    2.7760   15.0180 C.3   701  BOG701      0.0026
     16  C4'       26.0710    4.2470   14.7500 C.3   701  BOG701      0.0001
     17  C5'       24.5500    4.3620   14.6420 C.3   701  BOG701      0.0000
     18  C6'       24.1820    5.8380   14.4880 C.3   701  BOG701      0.0000
     19  C7'       22.6520    5.9760   14.5400 C.3   701  BOG701      0.0000
     20  C8'       22.3480    7.4530   14.7930 C.3   701  BOG701      0.0000
@<TRIPOS>BOND
     1    18    19    1
     2    18    17    1
     3    19    20    1
     4    17    16    1
     5    16    15    1
     6    15    14    1
     7    14    13    1
     8    13     2    1
     9    11    12    1
    10    11     9    1
    11    10     9    1
    12    10     1    1
    13     2     1    1
    14     9     7    1
    15     1     3    1
    16     7     8    1
    17     7     5    1
    18     3     5    1
    19     3     4    1
    20     5     6    1
