@<TRIPOS>MOLECULE
3gjd_BOG_A_1.pdb
 20 20 0 0 0
SMALL
GASTEIGER

@<TRIPOS>ATOM
      1  C1        -0.5660   41.5710   12.6170 C.3   701  BOG701      0.2695
      2  O1        -0.1750   40.3030   13.0780 O.3   701  BOG701     -0.3286
      3  C2        -2.0790   41.6090   12.3180 C.3   701  BOG701      0.2406
      4  O2        -2.2990   40.8590   11.1520 O.3   701  BOG701     -0.2149
      5  C3        -2.6380   43.0370   12.0890 C.3   701  BOG701      0.2198
      6  O3        -3.9820   43.0500   12.5010 O.3   701  BOG701     -0.2174
      7  C4        -1.8960   44.1660   12.8500 C.3   701  BOG701      0.2144
      8  O4        -1.9850   45.3460   12.0920 O.3   701  BOG701     -0.2176
      9  C5        -0.3950   43.8870   13.0900 C.3   701  BOG701      0.1835
     10  O5        -0.1550   42.5610   13.5680 O.3   701  BOG701     -0.3256
     11  C6         0.2080   44.9180   14.0680 C.3   701  BOG701      0.2142
     12  O6        -0.3190   44.7220   15.3540 O.3   701  BOG701     -0.2176
     13  C1'        1.1970   39.9990   13.0790 C.3   701  BOG701      0.1449
     14  C2'        1.4080   38.5090   13.3740 C.3   701  BOG701      0.0322
     15  C3'        1.9780   38.3310   14.7870 C.3   701  BOG701      0.0026
     16  C4'        2.4190   36.8690   14.9430 C.3   701  BOG701      0.0001
     17  C5'        3.1640   36.6780   16.2730 C.3   701  BOG701      0.0000
     18  C6'        2.2930   35.8500   17.2280 C.3   701  BOG701      0.0000
     19  C7'        3.1280   35.4220   18.4460 C.3   701  BOG701      0.0000
     20  C8'        2.2020   34.7320   19.4540 C.3   701  BOG701      0.0000
@<TRIPOS>BOND
     1     4     3    1
     2     5     3    1
     3     5     6    1
     4     5     7    1
     5     8     7    1
     6     3     1    1
     7     1     2    1
     8     1    10    1
     9     7     9    1
    10     2    13    1
    11    13    14    1
    12     9    10    1
    13     9    11    1
    14    14    15    1
    15    11    12    1
    16    15    16    1
    17    16    17    1
    18    17    18    1
    19    18    19    1
    20    19    20    1
