@<TRIPOS>MOLECULE
3gjo_III_H_1.pdb
 37 37 0 0 0
SMALL
GASTEIGER

@<TRIPOS>ATOM
      1  N         -6.6820   10.1200    2.9450 N.3   5477  SER5477    -0.1202
      2  CA        -7.6200    8.9640    3.0710 C.3   5477  SER5477     0.2020
      3  C         -8.2800    8.8740    4.4550 C.2   5477  SER5477     0.2619
      4  O         -7.5990    8.9240    5.4760 O.2   5477  SER5477    -0.2717
      5  CB        -6.8950    7.6490    2.7460 C.3   5477  SER5477     0.2103
      6  OG        -7.7960    6.5490    2.7480 O.3   5477  SER5477    -0.2182
      7  N         -9.6040    8.7360    4.4830 N.am  5478  LYS5478    -0.1965
      8  CA       -10.3240    8.5000    5.7420 C.3   5478  LYS5478     0.1728
      9  C        -11.2390    7.2620    5.6950 C.2   5478  LYS5478     0.2616
     10  O        -12.2380    7.1930    6.4140 O.2   5478  LYS5478    -0.2715
     11  CB       -11.0830    9.7660    6.1960 C.3   5478  LYS5478     0.0311
     12  CG       -11.8990    9.6430    7.5150 C.3   5478  LYS5478     0.0038
     13  CD       -11.0740    9.1950    8.7440 C.3   5478  LYS5478     0.0206
     14  CE       -11.9870    8.6330    9.8450 C.3   5478  LYS5478     0.1093
     15  NZ       -11.2610    8.0710   11.0230 N.3   5478  LYS5478    -0.1314
     16  N        -10.8890    6.2850    4.8550 N.am  5479  ILE5479    -0.1964
     17  CA       -11.5930    4.9960    4.8240 C.3   5479  ILE5479     0.1712
     18  C        -11.4090    4.2460    6.1570 C.2   5479  ILE5479     0.2458
     19  O        -10.2730    4.0370    6.5930 O.2   5479  ILE5479    -0.2730
     20  CB       -11.0980    4.0820    3.6740 C.3   5479  ILE5479     0.0289
     21  CG1      -10.9530    4.8610    2.3650 C.3   5479  ILE5479     0.0022
     22  CG2      -12.0360    2.8910    3.4970 C.3   5479  ILE5479     0.0023
     23  CD1      -10.1250    4.1440    1.3270 C.3   5479  ILE5479     0.0001
     24  N        -12.5270    3.8740    6.8200 N.am  5480  PRO5480    -0.2716
     25  CA       -12.5520    3.0390    8.0260 C.3   5480  PRO5480     0.1536
     26  C        -11.3570    2.0790    7.9630 C.2   5480  PRO5480     0.2599
     27  O        -11.3110    1.1840    7.1080 O.2   5480  PRO5480    -0.2715
     28  CB       -13.9240    2.3620    7.9440 C.3   5480  PRO5480     0.0310
     29  CG       -14.7900    3.3490    7.1980 C.3   5480  PRO5480     0.0237
     30  CD       -13.8870    4.3080    6.4500 C.3   5480  PRO5480     0.0939
     31  N        -10.4060    2.2870    8.8740 N.am  5481  THR5481    -0.1951
     32  CA        -9.1770    1.4990    8.9550 C.3   5481  THR5481     0.1897
     33  C         -9.1240    0.9090   10.3630 C.2   5481  THR5481     0.2313
     34  O         -9.9030    0.0170   10.7000 O.2   5481  THR5481    -0.2863
     35  CB        -7.8800    2.2980    8.6600 C.3   5481  THR5481     0.1794
     36  OG1       -7.9020    2.7620    7.3030 O.3   5481  THR5481    -0.2208
     37  CG2       -6.6280    1.4380    8.8800 C.3   5481  THR5481     0.0378
@<TRIPOS>BOND
     1    23    21    1
     2    21    20    1
     3     5     6    1
     4     5     2    1
     5     1     2    1
     6     2     3    1
     7    22    20    1
     8    20    17    1
     9     3     7   am
    10     3     4    2
    11     7     8    1
    12    17    16    1
    13    17    18    1
    14    16     9   am
    15     9     8    1
    16     9    10    2
    17     8    11    1
    18    18    19    2
    19    18    24   am
    20    11    12    1
    21    30    24    1
    22    30    29    1
    23    24    25    1
    24    27    26    2
    25    29    28    1
    26    36    35    1
    27    12    13    1
    28    28    25    1
    29    26    25    1
    30    26    31   am
    31    35    37    1
    32    35    32    1
    33    13    14    1
    34    31    32    1
    35    32    33    1
    36    14    15    1
    37    33    34    2
