@<TRIPOS>MOLECULE
3gjq_III_E_1.pdb
 44 46 0 0 0
SMALL
GASTEIGER

@<TRIPOS>ATOM
      1  C         43.7440   37.4850   58.6630 C.2     1  ACE1        0.2423
      2  O         44.8320   36.9860   58.3780 O.2     1  ACE1       -0.2733
      3  CH3       43.3580   38.8360   58.1270 C.3     1  ACE1        0.0964
      4  N         42.8440   36.8850   59.4390 N.am    2  TRP2       -0.1974
      5  CA        43.0800   35.5770   60.0480 C.3     2  TRP2        0.1768
      6  C         42.4860   34.4100   59.2730 C.2     2  TRP2        0.2619
      7  O         43.1840   33.4510   58.9460 O.2     2  TRP2       -0.2715
      8  CB        42.5040   35.5360   61.4690 C.3     2  TRP2        0.0553
      9  CG        43.2010   36.4280   62.4410 C.2     2  TRP2       -0.0136
     10  CD1       42.8270   37.6870   62.8230 C.2     2  TRP2        0.0907
     11  CD2       44.4080   36.1400   63.1420 C.3     2  TRP2        0.0819
     12  NE1       43.7310   38.1980   63.7240 N.2     2  TRP2       -0.2482
     13  CE2       44.7230   37.2580   63.9420 C.2     2  TRP2        0.0665
     14  CE3       45.2720   35.0280   63.1830 C.2     2  TRP2       -0.0164
     15  CZ2       45.8490   37.3200   64.7610 C.2     2  TRP2        0.0153
     16  CZ3       46.3970   35.0800   63.9980 C.2     2  TRP2       -0.0038
     17  CH2       46.6720   36.2180   64.7780 C.2     2  TRP2        0.0009
     18  N         41.1900   34.4940   58.9940 N.am    3  GLU3       -0.1963
     19  CA        40.4870   33.4300   58.2880 C.3     3  GLU3        0.1733
     20  C         40.1860   33.7150   56.8210 C.2     3  GLU3        0.2616
     21  O         40.3700   34.8320   56.3410 O.2     3  GLU3       -0.2715
     22  CB        39.1870   33.1200   59.0270 C.3     3  GLU3        0.0429
     23  CG        39.4020   32.6480   60.4610 C.3     3  GLU3        0.1163
     24  CD        38.2170   32.9530   61.3650 C.2     3  GLU3        0.3649
     25  OE1       37.0860   32.5150   61.0460 O.co2   3  GLU3       -0.2457
     26  OE2       38.4200   33.6300   62.3990 O.co2   3  GLU3       -0.2457
     27  N         39.7200   32.6860   56.1150 N.am    4  HIS4       -0.1959
     28  CA        39.3760   32.8040   54.6960 C.3     4  HIS4        0.1784
     29  C         37.9860   32.2600   54.3990 C.2     4  HIS4        0.2616
     30  O         37.3700   31.6060   55.2390 O.2     4  HIS4       -0.2715
     31  CB        40.3950   32.0630   53.8340 C.3     4  HIS4        0.0745
     32  CG        40.6770   30.6760   54.3030 C.2     4  HIS4        0.0653
     33  ND1       41.6150   30.3970   55.2780 N.2     4  HIS4       -0.2310
     34  CD2       40.1290   29.4840   53.9640 C.3     4  HIS4        0.1683
     35  CE1       41.6320   29.0990   55.5130 C.2     4  HIS4        0.1939
     36  NE2       40.7400   28.5210   54.7290 N.2     4  HIS4       -0.2440
     37  N         37.5140   32.5140   53.1800 N.am    5  ASP5       -0.2025
     38  CA        36.1880   32.0800   52.7640 C.3     5  ASP5        0.1395
     39  C         36.2280   31.1400   51.5690 C.3     5  ASP5        0.2041
     40  O         34.9330   30.6340   51.1960 O.3     5  ASP5       -0.2185
     41  CB        35.3250   33.2940   52.4080 C.3     5  ASP5        0.1383
     42  CG        34.6250   33.8810   53.6170 C.2     5  ASP5        0.3667
     43  OD1       34.2100   33.0950   54.4900 O.co2   5  ASP5       -0.2456
     44  OD2       34.4970   35.1180   53.6980 O.co2   5  ASP5       -0.2456
@<TRIPOS>BOND
     1    40    39    1
     2    39    38    1
     3    41    38    1
     4    41    42    1
     5    38    37    1
     6    37    29   am
     7    42    44   ar
     8    42    43   ar
     9    31    32    1
    10    31    28    1
    11    34    32    1
    12    34    36    1
    13    32    33    2
    14    29    28    1
    15    29    30    2
    16    28    27    1
    17    36    35    2
    18    33    35    1
    19    27    20   am
    20    21    20    2
    21    20    19    1
    22     3     1    1
    23    19    18    1
    24    19    22    1
    25     2     1    2
    26     1     4   am
    27     7     6    2
    28    18     6   am
    29    22    23    1
    30     6     5    1
    31     4     5    1
    32     5     8    1
    33    23    24    1
    34    25    24   ar
    35    24    26   ar
    36     8     9    1
    37     9    10    2
    38     9    11    1
    39    10    12    1
    40    11    14    1
    41    11    13    1
    42    14    16    2
    43    12    13    2
    44    13    15    1
    45    16    17    1
    46    15    17    2
