@<TRIPOS>MOLECULE
3gjr_DZE_A_1.pdb
 17 16 0 0 0
SMALL
GASTEIGER

@<TRIPOS>ATOM
      1  C15       24.8320   14.3320   38.7530 C.3     1  DZE1        0.0437
      2  C14       25.1730   12.8480   38.6740 C.3     1  DZE1        0.1379
      3  C16       24.3510   12.0930   39.7210 C.3     1  DZE1        0.0437
      4  C17       26.6770   12.6450   38.9130 C.3     1  DZE1        0.0437
      5  O13       24.8280   12.3860   37.3560 O.3     1  DZE1       -0.4408
      6  C11       25.0950   11.0490   37.1540 C.2     1  DZE1        0.4213
      7  O12       25.5990   10.3730   38.0730 O.2     1  DZE1       -0.2246
      8  N10       24.8120   10.5280   35.9640 N.am    1  DZE1       -0.1624
      9  C4        25.0720    9.1240   35.6460 C.3     1  DZE1        0.1667
     10  C2        25.6370    8.9450   34.2370 C.2     1  DZE1        0.1714
     11  C1        26.4280   10.1680   33.7580 C.3     1  DZE1        0.0741
     12  O3        25.5130    7.9360   33.5320 O.2     1  DZE1       -0.2942
     13  C5        23.7940    8.2960   35.7770 C.3     1  DZE1        0.1388
     14  C6        23.6490    7.6620   37.1400 C.2     1  DZE1        0.3193
     15  O8        22.2990    7.4910   37.5770 O.3     1  DZE1       -0.4443
     16  C9        21.3820    6.6940   36.8290 C.3     1  DZE1        0.2556
     17  O7        24.5030    6.8050   37.4260 O.2     1  DZE1       -0.2500
@<TRIPOS>BOND
     1    12    10    2
     2    11    10    1
     3    10     9    1
     4     9    13    1
     5     9     8    1
     6    13    14    1
     7     8     6   am
     8    16    15    1
     9    14    17    2
    10    14    15    1
    11     6     5    1
    12     6     7    2
    13     5     2    1
    14     2     1    1
    15     2     4    1
    16     2     3    1
