@<TRIPOS>MOLECULE
3gjs_III_E_1.pdb
 35 35 0 0 0
SMALL
GASTEIGER

@<TRIPOS>ATOM
      1  C         22.7360    8.1220   45.7220 C.2     1  ACE1        0.2423
      2  O         22.1420    7.0470   45.5990 O.2     1  ACE1       -0.2733
      3  CH3       23.2370    8.5730   47.0760 C.3     1  ACE1        0.0964
      4  N         22.9660    8.9460   44.7010 N.am    2  TYR2       -0.1974
      5  CA        22.5430    8.6230   43.3370 C.3     2  TYR2        0.1770
      6  C         23.7220    8.0990   42.5240 C.2     2  TYR2        0.2619
      7  O         24.7960    8.6990   42.5090 O.2     2  TYR2       -0.2715
      8  CB        21.9470    9.8530   42.6420 C.3     2  TYR2        0.0574
      9  CG        20.6320   10.3280   43.2280 C.ar    2  TYR2       -0.0198
     10  CD1       20.6010   11.2140   44.3070 C.ar    2  TYR2       -0.0009
     11  CD2       19.4190    9.8850   42.7080 C.ar    2  TYR2       -0.0009
     12  CE1       19.3940   11.6480   44.8470 C.ar    2  TYR2        0.0417
     13  CE2       18.2050   10.3130   43.2410 C.ar    2  TYR2        0.0417
     14  CZ        18.1980   11.1950   44.3080 C.ar    2  TYR2        0.1957
     15  OH        16.9950   11.6340   44.8210 O.3     2  TYR2       -0.2866
     16  N         23.5150    6.9780   41.8440 N.am    3  VAL3       -0.1963
     17  CA        24.5650    6.3750   41.0380 C.3     3  VAL3        0.1727
     18  C         24.0210    6.0250   39.6620 C.2     3  VAL3        0.2616
     19  O         22.8620    5.6340   39.5280 O.2     3  VAL3       -0.2715
     20  CB        25.1030    5.0880   41.7060 C.3     3  VAL3        0.0290
     21  CG1       26.3170    4.5720   40.9480 C.3     3  VAL3        0.0023
     22  CG2       25.4520    5.3630   43.1650 C.3     3  VAL3        0.0023
     23  N         24.8600    6.1710   38.6400 N.am    4  ALA4       -0.1963
     24  CA        24.4640    5.8520   37.2720 C.3     4  ALA4        0.1728
     25  C         24.8850    4.4170   36.9590 C.2     4  ALA4        0.2613
     26  O         25.9490    3.9690   37.3870 O.2     4  ALA4       -0.2715
     27  CB        25.1150    6.8210   36.3000 C.3     4  ALA4        0.0334
     28  C         24.8900    2.1280   34.4500 C.3     5  ASJ5        0.2041
     29  N         24.0510    3.7030   36.2080 N.am    5  ASJ5       -0.2025
     30  O         25.0130    0.7400   34.1270 O.3     5  ASJ5       -0.2185
     31  CA        24.3220    2.3120   35.8570 C.3     5  ASJ5        0.1395
     32  CB        23.0380    1.4850   35.9800 C.3     5  ASJ5        0.1383
     33  CG        22.9530    0.7320   37.2940 C.2     5  ASJ5        0.3667
     34  OD1       24.0090    0.4990   37.9220 O.co2   5  ASJ5       -0.2456
     35  OD2       21.8290    0.3680   37.6970 O.co2   5  ASJ5       -0.2456
@<TRIPOS>BOND
     1    30    28    1
     2    28    31    1
     3    31    32    1
     4    31    29    1
     5    32    33    1
     6    29    25   am
     7    27    24    1
     8    25    24    1
     9    25    26    2
    10    24    23    1
    11    33    35   ar
    12    33    34   ar
    13    23    18   am
    14    19    18    2
    15    18    17    1
    16    21    20    1
    17    17    20    1
    18    17    16    1
    19    20    22    1
    20    16     6   am
    21     7     6    2
    22     6     5    1
    23     8     9    1
    24     8     5    1
    25    11     9   ar
    26    11    13   ar
    27     9    10   ar
    28    13    14   ar
    29     5     4    1
    30    10    12   ar
    31    14    15    1
    32    14    12   ar
    33     4     1   am
    34     2     1    2
    35     1     3    1
