@<TRIPOS>MOLECULE
3gjt_III_E_1.pdb
 35 35 0 0 0
SMALL
GASTEIGER

@<TRIPOS>ATOM
      1  C          8.8970   35.4710   61.3680 C.2     1  ACE1        0.2423
      2  O          7.7010   35.3950   61.6760 O.2     1  ACE1       -0.2733
      3  CH3        9.9820   35.2720   62.4040 C.3     1  ACE1        0.0964
      4  N          9.3090   35.7290   60.1290 N.am    2  ILE2       -0.1978
      5  CA         8.3560   35.9390   59.0490 C.3     2  ILE2        0.1726
      6  C          7.7530   34.6020   58.6250 C.2     2  ILE2        0.2616
      7  O          8.4480   33.5930   58.5440 O.2     2  ILE2       -0.2715
      8  CB         9.0270   36.6500   57.8340 C.3     2  ILE2        0.0290
      9  CG1        9.2790   38.1260   58.1640 C.3     2  ILE2        0.0022
     10  CG2        8.1320   36.5760   56.6100 C.3     2  ILE2        0.0023
     11  CD1       10.3570   38.3680   59.2010 C.3     2  ILE2        0.0001
     12  N          6.4480   34.6030   58.3590 N.am    3  GLU3       -0.1964
     13  CA         5.7360   33.3980   57.9560 C.3     3  GLU3        0.1718
     14  C          5.2580   33.4860   56.5050 C.2     3  GLU3        0.2458
     15  O          4.7840   34.5340   56.0570 O.2     3  GLU3       -0.2730
     16  CB         4.5380   33.1730   58.8880 C.3     3  GLU3        0.0428
     17  CG         4.9120   32.8810   60.3430 C.3     3  GLU3        0.1163
     18  CD         3.7040   32.8500   61.2810 C.2     3  GLU3        0.3649
     19  OE1        2.7340   32.1150   60.9860 O.co2   3  GLU3       -0.2457
     20  OE2        3.7300   33.5550   62.3180 O.co2   3  GLU3       -0.2457
     21  N          5.3930   32.3850   55.7520 N.am    4  PRO4       -0.2716
     22  CA         4.9790   32.3100   54.3470 C.3     4  PRO4        0.1535
     23  C          3.4950   32.0050   54.1690 C.2     4  PRO4        0.2595
     24  O          2.8600   31.3900   55.0270 O.2     4  PRO4       -0.2716
     25  CB         5.8570   31.1960   53.7960 C.3     4  PRO4        0.0310
     26  CG         5.9500   30.2680   54.9560 C.3     4  PRO4        0.0237
     27  CD         6.2200   31.2170   56.1070 C.3     4  PRO4        0.0939
     28  N          2.9590   32.4380   53.0350 N.am    5  ASP5       -0.2025
     29  CA         1.5460   32.2380   52.7050 C.3     5  ASP5        0.1395
     30  C          1.4020   31.3080   51.4990 C.3     5  ASP5        0.2041
     31  O          0.0490   31.1890   51.0550 O.3     5  ASP5       -0.2185
     32  CB         0.8640   33.5790   52.3900 C.3     5  ASP5        0.1383
     33  CG         0.1480   34.1750   53.5980 C.2     5  ASP5        0.3667
     34  OD1       -0.1360   33.4300   54.5620 O.co2   5  ASP5       -0.2456
     35  OD2       -0.1370   35.3910   53.5820 O.co2   5  ASP5       -0.2456
@<TRIPOS>BOND
     1    31    30    1
     2    30    29    1
     3    32    29    1
     4    32    33    1
     5    29    28    1
     6    28    23   am
     7    35    33   ar
     8    33    34   ar
     9    25    22    1
    10    25    26    1
    11    23    22    1
    12    23    24    2
    13    22    21    1
    14    26    27    1
    15    21    27    1
    16    21    14   am
    17    15    14    2
    18    14    13    1
    19    10     8    1
    20     8     9    1
    21     8     5    1
    22    13    12    1
    23    13    16    1
    24     9    11    1
    25    12     6   am
    26     7     6    2
    27     6     5    1
    28    16    17    1
    29     5     4    1
    30     4     1   am
    31    17    18    1
    32    19    18   ar
    33    18    20   ar
    34     1     2    2
    35     1     3    1
