@<TRIPOS>MOLECULE
3gju_PLP_A_1.pdb
 16 16 0 0 0
SMALL
GASTEIGER

@<TRIPOS>ATOM
      1  N1        19.2320   16.0870   25.2010 N.2   460  PLP460     -0.2505
      2  C2        18.8220   16.6930   24.0350 C.2   460  PLP460      0.0679
      3  C2A       17.4130   16.4710   23.5560 C.3   460  PLP460      0.0499
      4  C3        19.7050   17.4990   23.3100 C.3   460  PLP460      0.1987
      5  O3        19.2990   18.0900   22.1320 O.3   460  PLP460     -0.2162
      6  C4        21.0050   17.6890   23.7950 C.3   460  PLP460      0.1228
      7  C4A       21.8730   18.8030   23.2790 C.2   460  PLP460      0.2141
      8  O4A       21.5220   19.9660   23.4980 O.2   460  PLP460     -0.2879
      9  C5        21.4180   17.0590   24.9680 C.2   460  PLP460      0.0147
     10  C6        20.5330   16.2710   25.6920 C.2   460  PLP460      0.0926
     11  C5A       22.8340   17.2860   25.4440 C.3   460  PLP460      0.1780
     12  O4P       22.9560   18.6320   25.8020 O.3   460  PLP460     -0.2656
     13  P         24.3920   19.3580   25.9370 P.3   460  PLP460      0.5329
     14  O1P       25.2910   18.5270   26.8050 O.3   460  PLP460     -0.1145
     15  O2P       24.1390   20.7280   26.5850 O.3   460  PLP460     -0.1145
     16  O3P       25.0310   19.4660   24.5530 O.2   460  PLP460     -0.2224
@<TRIPOS>BOND
     1     5     4    1
     2     7     8    2
     3     7     6    1
     4     4     6    1
     5     4     2    1
     6     3     2    1
     7     6     9    1
     8     2     1    2
     9    16    13    2
    10     9    11    1
    11     9    10    2
    12     1    10    1
    13    11    12    1
    14    12    13    1
    15    13    15    1
    16    13    14    1
