@<TRIPOS>MOLECULE
3gjw_GJW_A_1.pdb
 20 23 0 0 0
SMALL
GASTEIGER

@<TRIPOS>ATOM
      1  C2        50.9960   55.4160    9.0390 C.ar  351  GJW351      0.0808
      2  C4        49.5310   55.8580   10.6850 C.ar  351  GJW351      0.1601
      3  C6        48.8900   54.1470    9.1360 C.2   351  GJW351      0.0913
      4  C11       48.2260   52.4890    7.5970 C.2   351  GJW351     -0.0052
      5  C12       47.0480   52.3320    8.2950 C.2   351  GJW351     -0.0211
      6  N22       45.8970   50.1520    8.6260 N.3   351  GJW351     -0.2692
      7  C23       44.6160   49.4720    8.3430 C.3   351  GJW351      0.0724
      8  C26       47.0240   49.2100    8.4530 C.3   351  GJW351      0.0724
      9  C1        51.5480   56.4050    9.8230 C.ar  351  GJW351      0.0213
     10  N3        49.7880   55.0940    9.5890 N.ar  351  GJW351     -0.2929
     11  C5        50.6220   56.6830   10.8600 C.ar  351  GJW351      0.0321
     12  C7        47.7300   53.9910    9.8530 C.2   351  GJW351      0.1420
     13  N8        47.4730   54.7590   10.9950 N.2   351  GJW351     -0.3344
     14  C9        48.3310   55.7430   11.4450 C.1   351  GJW351      0.2212
     15  C10       49.1640   53.4030    8.0140 C.2   351  GJW351      0.0192
     16  C13       46.7960   53.0780    9.4240 C.3   351  GJW351      0.0848
     17  O20       48.0910   56.4390   12.4190 O.2   351  GJW351     -0.2078
     18  C21       46.0300   51.3670    7.8070 C.3   351  GJW351      0.0953
     19  C24       44.8890   48.0220    8.6420 C.3   351  GJW351      0.0188
     20  C25       46.3920   47.8550    8.6730 C.3   351  GJW351      0.0188
@<TRIPOS>BOND
     1     4    15    1
     2     4     5    2
     3    18     5    1
     4    18     6    1
     5    15     3    2
     6     5    16    1
     7     7     6    1
     8     7    19    1
     9     8     6    1
    10     8    20    1
    11    19    20    1
    12     1    10   ar
    13     1     9   ar
    14     3    10    1
    15     3    12    1
    16    16    12    1
    17    10     2   ar
    18     9    11   ar
    19    12    13    2
    20     2    11   ar
    21     2    14    1
    22    13    14    2
    23    14    17    2
