@<TRIPOS>MOLECULE
3gjx_GTP_C_1.pdb
 32 34 0 0 0
SMALL
GASTEIGER

@<TRIPOS>ATOM
      1  PG        35.5700 -103.9010  -44.4970 P.3   217  GTP217      0.5373
      2  O1G       34.3170 -103.0610  -44.5940 O.3   217  GTP217     -0.1143
      3  O2G       35.2990 -105.3790  -44.3220 O.3   217  GTP217     -0.1143
      4  O3G       36.3800 -103.7600  -45.7640 O.2   217  GTP217     -0.2221
      5  O3B       36.3990 -103.4070  -43.2100 O.3   217  GTP217     -0.2258
      6  PB        36.2300 -101.9290  -42.6010 P.3   217  GTP217      0.2277
      7  O1B       35.1620 -101.1260  -43.3010 O.2   217  GTP217     -0.5168
      8  O2B       37.5640 -101.2140  -42.5670 O.3   217  GTP217     -0.4368
      9  O3A       35.7760 -102.2870  -41.1110 O.3   217  GTP217     -0.2700
     10  PA        34.7350 -101.3560  -40.3410 P.3   217  GTP217      0.2189
     11  O1A       33.3300 -101.6550  -40.8190 O.2   217  GTP217     -0.5170
     12  O2A       35.1010  -99.8970  -40.4980 O.3   217  GTP217     -0.4371
     13  O5'       34.8530 -101.8650  -38.8260 O.3   217  GTP217     -0.3112
     14  C5'       35.9910 -101.5010  -38.1050 C.3   217  GTP217      0.1813
     15  C4'       35.9670 -102.1490  -36.7370 C.3   217  GTP217      0.1799
     16  O4'       37.0560 -101.5740  -36.0640 O.3   217  GTP217     -0.3326
     17  C3'       34.7230 -101.7760  -35.9510 C.3   217  GTP217      0.2158
     18  O3'       34.4650 -102.7930  -35.0000 O.3   217  GTP217     -0.2175
     19  C2'       35.1380 -100.5440  -35.2030 C.3   217  GTP217      0.2310
     20  O2'       34.4740 -100.5050  -33.9640 O.3   217  GTP217     -0.2158
     21  C1'       36.6400 -100.7250  -35.0260 C.3   217  GTP217      0.2293
     22  N9        37.2900  -99.4160  -35.1990 N.pl3 217  GTP217     -0.2354
     23  C8        37.3090  -98.6340  -36.3210 C.3   217  GTP217      0.2246
     24  N7        38.0330  -97.5230  -36.0480 N.2   217  GTP217     -0.2322
     25  C5        38.4940  -97.6040  -34.7730 C.2   217  GTP217      0.2182
     26  C6        39.2740  -96.7560  -33.9850 C.1   217  GTP217      0.2372
     27  O6        39.7010  -95.6850  -34.4250 O.2   217  GTP217     -0.2069
     28  N1        39.5750  -97.1280  -32.6930 N.2   217  GTP217     -0.2485
     29  C2        39.1070  -98.3270  -32.1920 C.1   217  GTP217      0.2531
     30  N2        39.3840  -98.6960  -30.9510 N.pl3 217  GTP217     -0.0226
     31  N3        38.3370  -99.1550  -32.9750 N.2   217  GTP217     -0.3074
     32  C4        38.0340  -98.7950  -34.2400 C.2   217  GTP217      0.2300
@<TRIPOS>BOND
     1     4     1    2
     2     2     1    1
     3     1     3    1
     4     1     5    1
     5     7     6    2
     6     5     6    1
     7     6     8    1
     8     6     9    1
     9     9    10    1
    10    11    10    2
    11    12    10    1
    12    10    13    1
    13    13    14    1
    14    14    15    1
    15    15    16    1
    16    15    17    1
    17    23    24    1
    18    23    22    1
    19    16    21    1
    20    24    25    2
    21    17    19    1
    22    17    18    1
    23    19    21    1
    24    19    20    1
    25    22    21    1
    26    22    32    1
    27    25    32    1
    28    25    26    1
    29    27    26    2
    30    32    31    2
    31    26    28    2
    32    31    29    2
    33    28    29    2
    34    29    30    1
