@<TRIPOS>MOLECULE
3gk0_DXP_C_1.pdb
 13 12 0 0 0
SMALL
GASTEIGER

@<TRIPOS>ATOM
      1  C1        17.1570  -49.3750  -17.8310 C.3   258  DXP258      0.0751
      2  C2        16.0580  -49.2560  -16.8550 C.2   258  DXP258      0.1838
      3  C3        14.9840  -50.2620  -16.7830 C.3   258  DXP258      0.2412
      4  C4        15.2710  -51.7160  -17.1040 C.3   258  DXP258      0.2193
      5  C5        16.4780  -52.1080  -17.9810 C.3   258  DXP258      0.1896
      6  O2        15.9650  -48.3230  -16.1070 O.2   258  DXP258     -0.2933
      7  O3        13.7490  -49.7780  -17.2890 O.3   258  DXP258     -0.2123
      8  O4        14.0180  -52.1050  -17.6270 O.3   258  DXP258     -0.2172
      9  O5        16.3840  -53.4300  -18.5100 O.3   258  DXP258     -0.2674
     10  P         17.4360  -54.6420  -18.4340 P.3   258  DXP258      0.5327
     11  O2P       17.3490  -54.9920  -17.0430 O.3   258  DXP258     -0.1145
     12  O1P       16.9070  -55.6740  -19.2910 O.2   258  DXP258     -0.2224
     13  O3P       18.7110  -54.1570  -18.8830 O.3   258  DXP258     -0.1145
@<TRIPOS>BOND
     1    12    10    2
     2    13    10    1
     3     9    10    1
     4     9     5    1
     5    10    11    1
     6     5     4    1
     7     1     2    1
     8     8     4    1
     9     7     3    1
    10     4     3    1
    11     2     3    1
    12     2     6    2
