@<TRIPOS>MOLECULE
3gk1_32A_A_1.pdb
 19 19 0 0 0
SMALL
GASTEIGER

@<TRIPOS>ATOM
      1  C1         5.8760    6.7570   13.3360 C.ar   94  32A94       0.2026
      2  C2         6.4690    7.2010   12.0470 C.2    94  32A94       0.3188
      3  C3         9.4810    8.7800   11.0270 C.2    94  32A94       0.1921
      4  C4         4.2320    6.1990   14.5350 C.ar   94  32A94       0.1870
      5  C5         6.4080    6.4580   14.5960 C.ar   94  32A94       0.0462
      6  C6         2.9720    5.9810   14.8500 C.1    94  32A94      -0.0272
      7  C7         1.8310    5.8980   15.2430 C.1    94  32A94      -0.0835
      8  N1         7.4870    8.0560   12.0580 N.am   94  32A94      -0.0823
      9  N2         8.3010    8.1810   10.9130 N.am   94  32A94      -0.1011
     10  N3        10.1870    9.1260    9.9280 N.am   94  32A94      -0.2134
     11  C9         0.4230    6.0070   15.5790 C.3    94  32A94       0.0765
     12  C8         5.3260    6.0960   15.3810 C.ar   94  32A94       0.0495
     13  O2         6.0000    6.7630   11.0040 O.2    94  32A94      -0.2633
     14  C10       10.8160    8.2150    8.9790 C.3    94  32A94       0.1375
     15  S1         9.9770    9.0960   12.4940 S.2    94  32A94      -0.0137
     16  O1         4.5190    6.6150   13.2660 O.2    94  32A94      -0.4406
     17  C11       -0.2920    6.9710   14.6570 C.3    94  32A94       0.0140
     18  C12       -1.1910    6.2010   13.7000 C.3    94  32A94       0.0010
     19  C13       -2.5540    6.8500   13.5450 C.3    94  32A94       0.0000
@<TRIPOS>BOND
     1    14    10    1
     2    10     3    1
     3     9     3    1
     4     9     8    2
     5    13     2    2
     6     3    15    2
     7     2     8    1
     8     2     1    1
     9    16     1   ar
    10    16     4   ar
    11     1     5   ar
    12    19    18    1
    13    18    17    1
    14     4     6    1
    15     4    12   ar
    16     5    12   ar
    17    17    11    1
    18     6     7    3
    19     7    11    1
