@<TRIPOS>MOLECULE
3gk2_27A_A_1.pdb
 19 20 0 0 0
SMALL
GASTEIGER

@<TRIPOS>ATOM
      1  C1        -0.7550    6.8060   14.2460 C.ar   94  27A94       0.0013
      2  C2        -0.0400    7.9990   14.3320 C.ar   94  27A94       0.0146
      3  C3         1.3280    8.0470   14.6440 C.ar   94  27A94       0.0494
      4  C4         2.0280    6.7230   14.8590 C.ar   94  27A94       0.0341
      5  C5         1.2420    5.5650   14.7960 C.ar   94  27A94       0.0028
      6  C6        -0.1210    5.5920   14.4850 C.ar   94  27A94       0.0001
      7  C7         1.2880   10.4110   13.9170 C.3    94  27A94       0.1081
      8  C8         1.1880   11.6550   14.7890 C.3    94  27A94       0.0938
      9  C9         3.6420   11.0120   14.9620 C.3    94  27A94       0.0938
     10  C10        3.1100    9.6610   15.4610 C.3    94  27A94       0.1081
     11  C11        2.9000   13.3790   15.4210 C.3    94  27A94       0.0897
     12  C12        3.4500    6.4840   15.2670 C.2    94  27A94       0.1208
     13  C13        5.1540    7.2260   12.6370 C.2    94  27A94       0.2154
     14  N5         3.9260    7.4690   12.2110 N.am   94  27A94      -0.1004
     15  S1         6.4840    7.4650   11.6180 S.2    94  27A94      -0.0118
     16  N4         5.3870    6.7880   13.8670 N.am   94  27A94      -0.0915
     17  N3         4.6650    6.5040   14.8550 N.2    94  27A94      -0.1554
     18  N1         1.9170    9.3390   14.6830 N.pl3  94  27A94      -0.3046
     19  N2         2.5740   12.0090   15.0580 N.3    94  27A94      -0.2686
@<TRIPOS>BOND
     1    15    13    2
     2    14    13    1
     3    13    16    1
     4    16    17    1
     5     7    18    1
     6     7     8    1
     7     1     2   ar
     8     1     6   ar
     9     2     3   ar
    10     6     5   ar
    11     3    18    1
    12     3     4   ar
    13    18    10    1
    14     8    19    1
    15     5     4   ar
    16    17    12    2
    17     4    12    1
    18     9    19    1
    19     9    10    1
    20    19    11    1
