@<TRIPOS>MOLECULE
3gk4_53A_X_1.pdb
 28 30 0 0 0
SMALL
GASTEIGER

@<TRIPOS>ATOM
      1  N1         3.0290  -13.5260   14.8820 N.pl3  94  53A94      -0.1527
      2  N3         3.9420  -14.5770   15.0390 N.pl3  94  53A94      -0.0379
      3  C4         0.8250  -11.7730   14.6540 C.2    94  53A94       0.1608
      4  C5         2.2100  -11.2370   14.4580 C.ar   94  53A94       0.0511
      5  C6         3.3450  -12.1950   14.5890 C.ar   94  53A94       0.0788
      6  O2        -1.6310  -13.9600   13.2470 O.2    94  53A94      -0.2487
      7  N4         3.1450  -15.7200   15.3080 N.2    94  53A94      -0.1324
      8  O3        -4.2370  -11.6530   13.8440 O.2    94  53A94      -0.2946
      9  C10       -3.2130  -11.0010   14.0030 C.2    94  53A94       0.1719
     10  C13       -3.2900   -9.5690   14.4620 C.3    94  53A94       0.0738
     11  C7        -1.8810  -11.6490   13.7080 C.3    94  53A94       0.2098
     12  C9        -1.8930  -13.1060   14.0830 C.2    94  53A94       0.3343
     13  O5        -2.1940  -13.5050   15.4560 O.3    94  53A94      -0.4476
     14  C15       -3.4280  -14.1340   15.8160 C.3    94  53A94       0.2086
     15  C19       -3.9070  -13.6100   17.1520 C.3    94  53A94       0.0513
     16  S1        -0.5640  -10.7980   14.5400 S.3    94  53A94      -0.0644
     17  N2         0.6780  -13.0870   14.9360 N.2    94  53A94      -0.3770
     18  C11        2.4820   -9.9000   14.1710 C.ar   94  53A94       0.0044
     19  C16        3.8090   -9.4830   14.0080 C.ar   94  53A94       0.0002
     20  C17        4.8720  -10.3830   14.1300 C.ar   94  53A94       0.0013
     21  C12        4.6530  -11.7350   14.4170 C.ar   94  53A94       0.0168
     22  C3         1.8430  -15.3430   15.3130 C.2    94  53A94       0.2225
     23  C1         1.7650  -13.8930   15.0320 C.2    94  53A94       0.2319
     24  C8         0.5610  -16.0610   15.5390 C.2    94  53A94       0.3648
     25  O1        -0.3320  -15.5160   16.1530 O.2    94  53A94      -0.2430
     26  O4         0.3710  -17.4240   15.0450 O.3    94  53A94      -0.4443
     27  C14       -0.8910  -18.1060   15.1430 C.3    94  53A94       0.2089
     28  C18       -2.0480  -17.2560   14.6510 C.3    94  53A94       0.0513
@<TRIPOS>BOND
     1     6    12    2
     2    11     9    1
     3    11    12    1
     4    11    16    1
     5     8     9    2
     6     9    10    1
     7    19    20   ar
     8    19    18   ar
     9    12    13    1
    10    20    21   ar
    11    18     4   ar
    12    21     5   ar
    13     4     5   ar
    14     4     3    1
    15    16     3    1
    16     5     1    1
    17    28    27    1
    18     3    17    2
    19     1    23    1
    20     1     2    1
    21    17    23    2
    22    23    22    1
    23     2     7    1
    24    26    27    1
    25    26    24    1
    26     7    22    2
    27    22    24    1
    28    13    14    1
    29    24    25    2
    30    14    15    1
