@<TRIPOS>MOLECULE
3gk6_PE4_A_1.pdb
 17 16 0 0 0
SMALL
GASTEIGER

@<TRIPOS>ATOM
      1  C4        16.5330   19.5570   29.5840 C.3   6061  PE46061     0.1742
      2  O3        16.2840   20.7850   30.2650 O.3   6061  PE46061    -0.3484
      3  C5        16.8760   21.9020   29.6040 C.3   6061  PE46061     0.1742
      4  C6        17.2260   22.9620   30.6390 C.3   6061  PE46061     0.1742
      5  O4        18.5110   23.4860   30.3180 O.3   6061  PE46061    -0.3484
      6  C7        19.2830   23.7210   31.4810 C.3   6061  PE46061     0.1742
      7  C8        20.6600   24.2220   31.1040 C.3   6061  PE46061     0.1742
      8  O5        21.4790   24.1210   32.2670 O.3   6061  PE46061    -0.3484
      9  C9        22.7430   24.7470   32.0940 C.3   6061  PE46061     0.1742
     10  C10       23.1460   25.4400   33.3850 C.3   6061  PE46061     0.1742
     11  O6        23.0390   26.8560   33.2640 O.3   6061  PE46061    -0.3484
     12  C11       23.7200   27.4660   34.3570 C.3   6061  PE46061     0.1742
     13  C12       23.6510   28.9770   34.2390 C.3   6061  PE46061     0.1742
     14  O7        24.5640   29.5470   35.1740 O.3   6061  PE46061    -0.3483
     15  C13       25.2680   30.6330   34.5820 C.3   6061  PE46061     0.1777
     16  C14       26.3900   31.1020   35.4960 C.3   6061  PE46061     0.2140
     17  O8        27.2590   31.9500   34.7500 O.3   6061  PE46061    -0.2176
@<TRIPOS>BOND
     1     1     2    1
     2     3     2    1
     3     3     4    1
     4     5     4    1
     5     5     6    1
     6     7     6    1
     7     7     8    1
     8     9     8    1
     9     9    10    1
    10    11    10    1
    11    11    12    1
    12    13    12    1
    13    13    14    1
    14    15    14    1
    15    15    16    1
    16    17    16    1
