@<TRIPOS>MOLECULE
3gk9_HEM_A_1.pdb
 43 50 0 0 0
SMALL
GASTEIGER

@<TRIPOS>ATOM
      1  CHA      -16.0470   13.1560   17.0790 C.2   200  HEM200      0.0000
      2  CHB      -13.0150    9.6600   15.6880 C.2   200  HEM200      0.0000
      3  CHC       -9.3580   12.8580   16.1810 C.2   200  HEM200      0.0000
      4  CHD      -12.4180   16.4520   17.3200 C.2   200  HEM200      0.0000
      5  C1A      -15.5750   11.9400   16.6690 C.ar  200  HEM200      0.0000
      6  C2A      -16.3720   10.7540   16.3680 C.ar  200  HEM200      0.0000
      7  C3A      -15.5310    9.7810   15.9800 C.ar  200  HEM200      0.0000
      8  C4A      -14.1800   10.3240   16.0150 C.ar  200  HEM200      0.0000
      9  CMA      -15.9100    8.3440   15.5570 C.3   200  HEM200      0.0000
     10  CAA      -17.9150   10.6200   16.4660 C.3   200  HEM200      0.0000
     11  CBA      -18.4900   10.7230   15.0540 C.3   200  HEM200      0.0000
     12  CGA      -18.4830   12.1540   14.5470 C.2   200  HEM200      0.0000
     13  O1A      -18.8190   13.0930   15.3110 O.co2 200  HEM200      0.0000
     14  O2A      -18.1630   12.4110   13.3640 O.co2 200  HEM200      0.0000
     15  C1B      -11.7450   10.2340   15.6840 C.2   200  HEM200      0.0000
     16  C2B      -10.5020    9.5740   15.3030 C.2   200  HEM200      0.0000
     17  C3B       -9.4900   10.4490   15.4500 C.2   200  HEM200      0.0000
     18  C4B      -10.0560   11.7000   15.9150 C.2   200  HEM200      0.0000
     19  CMB      -10.4520    8.1060   14.8420 C.3   200  HEM200      0.0000
     20  CAB       -7.9850   10.2340   15.1650 C.2   200  HEM200      0.0000
     21  CBB       -7.2690    9.4450   15.9460 C.2   200  HEM200      0.0000
     22  C1C       -9.8590   14.0680   16.6280 C.ar  200  HEM200      0.0000
     23  C2C       -9.0640   15.1670   17.1430 C.ar  200  HEM200      0.0000
     24  C3C       -9.9150   16.1600   17.4620 C.ar  200  HEM200      0.0000
     25  C4C      -11.2560   15.7300   17.1500 C.ar  200  HEM200      0.0000
     26  CMC       -7.5070   15.1740   17.3150 C.3   200  HEM200      0.0000
     27  CAC       -9.5770   17.5280   18.0720 C.2   200  HEM200      0.0000
     28  CBC       -8.6380   18.2890   17.5290 C.2   200  HEM200      0.0000
     29  C1D      -13.6530   15.8720   17.4010 C.2   200  HEM200      0.0000
     30  C2D      -14.8500   16.5750   17.8130 C.2   200  HEM200      0.0000
     31  C3D      -15.9660   15.5540   17.7310 C.2   200  HEM200      0.0000
     32  C4D      -15.3530   14.3260   17.2830 C.2   200  HEM200      0.0000
     33  CMD      -14.9400   18.0360   18.2520 C.3   200  HEM200      0.0000
     34  CAD      -17.4360   15.7850   18.1180 C.3   200  HEM200      0.0000
     35  CBD      -17.5430   15.1770   19.5330 C.3   200  HEM200      0.0000
     36  CGD      -18.9600   15.4050   20.0180 C.2   200  HEM200      0.0000
     37  O1D      -19.7880   14.4490   19.9570 O.co2 200  HEM200      0.0000
     38  O2D      -19.2300   16.5690   20.4040 O.co2 200  HEM200      0.0000
     39  NA       -14.2420   11.6480   16.4400 N.ar  200  HEM200      0.0000
     40  NB       -11.4190   11.5210   16.0250 N.2   200  HEM200      0.0000
     41  NC       -11.1980   14.4530   16.6330 N.ar  200  HEM200      0.0000
     42  ND       -14.0010   14.5740   17.0900 N.2   200  HEM200      0.0000
     43 FE        -12.6540   13.0530   16.5520 Fe    200  HEM200      0.0000
@<TRIPOS>BOND
     1    14    12   ar
     2    12    11    1
     3    12    13   ar
     4    19    16    1
     5    11    10    1
     6    20    17    1
     7    20    21    2
     8    16    17    2
     9    16    15    1
    10    17    18    1
    11     9     7    1
    12    15     2    1
    13    15    40    2
    14     2     8    2
    15    18    40    1
    16    18     3    2
    17     7     8   ar
    18     7     6   ar
    19     8    39   ar
    20    40    43    1
    21     3    22    1
    22     6    10    1
    23     6     5   ar
    24    39    43    1
    25    39     5   ar
    26    43    41    1
    27    43    42    1
    28    22    41   ar
    29    22    23   ar
    30    41    25   ar
    31     5     1    2
    32     1    32    1
    33    42    32    2
    34    42    29    1
    35    23    26    1
    36    23    24   ar
    37    25     4    1
    38    25    24   ar
    39    32    31    1
    40     4    29    2
    41    29    30    1
    42    24    27    1
    43    28    27    2
    44    31    30    2
    45    31    34    1
    46    30    33    1
    47    34    35    1
    48    35    36    1
    49    37    36   ar
    50    36    38   ar
