@<TRIPOS>MOLECULE
3gka_FMN_A_1.pdb
 31 33 0 0 0
SMALL
GASTEIGER

@<TRIPOS>ATOM
      1  N1         4.7770    7.0540    4.0960 N.2   362  FMN362     -0.2887
      2  C2         4.5840    5.6870    4.1100 C.1   362  FMN362      0.3669
      3  O2         4.2520    5.1250    5.1530 O.2   362  FMN362     -0.1744
      4  N3         4.7630    4.9490    2.9570 N.2   362  FMN362     -0.2300
      5  C4         5.1350    5.5740    1.7840 C.1   362  FMN362      0.2513
      6  O4         5.3880    4.9040    0.7840 O.2   362  FMN362     -0.2057
      7  C4A        5.3310    6.9490    1.7660 C.2   362  FMN362      0.2706
      8  N5         5.7030    7.5810    0.5970 N.2   362  FMN362     -0.3841
      9  C5A        5.8960    8.9470    0.5830 C.2   362  FMN362      0.1452
     10  C6         6.2720    9.5840   -0.5940 C.2   362  FMN362      0.0252
     11  C7         6.4660   10.9600   -0.6080 C.2   362  FMN362     -0.0375
     12  C7M        6.8920   11.6450   -1.8730 C.3   362  FMN362      0.0268
     13  C8         6.2860   11.7000    0.5550 C.3   362  FMN362      0.0417
     14  C8M        6.5860   13.1700    0.5620 C.3   362  FMN362      0.0091
     15  C9         5.9100   11.0630    1.7320 C.2   362  FMN362     -0.0049
     16  C9A        5.7160    9.6870    1.7470 C.2   362  FMN362      0.0795
     17  N10        5.3430    9.0550    2.9160 N.pl3 362  FMN362     -0.2545
     18  C10        5.1500    7.6880    2.9290 C.2   362  FMN362      0.2449
     19  C1'        5.2570    9.8350    4.1940 C.3   362  FMN362      0.1336
     20  C2'        6.6400    9.9280    4.8260 C.3   362  FMN362      0.2048
     21  O2'        7.0730    8.6400    5.2010 O.3   362  FMN362     -0.2185
     22  C3'        6.6200   10.8340    6.0520 C.3   362  FMN362      0.2165
     23  O3'        5.8320   10.2420    7.0610 O.3   362  FMN362     -0.2175
     24  C4'        6.0570   12.2070    5.7070 C.3   362  FMN362      0.2147
     25  O4'        6.6840   12.6940    4.5420 O.3   362  FMN362     -0.2176
     26  C5'        6.2760   13.1900    6.8510 C.3   362  FMN362      0.1892
     27  O5'        7.6320   13.1690    7.2360 O.3   362  FMN362     -0.2674
     28  P          8.6040   14.4010    6.8750 P.3   362  FMN362      0.5327
     29  O1P        7.9670   15.6730    7.3810 O.3   362  FMN362     -0.1145
     30  O2P        8.7850   14.4840    5.3780 O.2   362  FMN362     -0.2224
     31  O3P        9.9450   14.2030    7.5390 O.3   362  FMN362     -0.1145
@<TRIPOS>BOND
     1    12    11    1
     2    11    10    2
     3    11    13    1
     4    10     9    1
     5    13    14    1
     6    13    15    1
     7     9     8    2
     8     9    16    1
     9     8     7    2
    10     6     5    2
    11    15    16    2
    12    16    17    1
    13     7     5    1
    14     7    18    1
    15     5     4    2
    16    17    18    1
    17    17    19    1
    18    18     1    2
    19     4     2    2
    20     1     2    2
    21     2     3    2
    22    19    20    1
    23    25    24    1
    24    20    21    1
    25    20    22    1
    26    30    28    2
    27    24    22    1
    28    24    26    1
    29    22    23    1
    30    26    27    1
    31    28    27    1
    32    28    29    1
    33    28    31    1
