@<TRIPOS>MOLECULE
3gki_CLR_A_1.pdb
 28 31 0 0 0
SMALL
GASTEIGER

@<TRIPOS>ATOM
      1  C1       -38.4310  -30.3670    5.9540 C.3   253  CLR253      0.0063
      2  C2       -39.1290  -30.5460    7.3350 C.3   253  CLR253      0.0335
      3  C3       -37.9970  -30.5420    8.3810 C.3   253  CLR253      0.1560
      4  C4       -37.3710  -29.1540    8.4250 C.3   253  CLR253      0.0545
      5  C5       -36.7430  -28.8950    7.0660 C.2   253  CLR253     -0.0466
      6  C6       -35.4640  -28.4740    7.0660 C.2   253  CLR253     -0.0345
      7  C7       -34.6540  -28.2300    5.8330 C.3   253  CLR253      0.0254
      8  C8       -35.6060  -27.9560    4.6800 C.3   253  CLR253      0.0046
      9  C9       -36.6070  -29.1320    4.5940 C.3   253  CLR253      0.0038
     10  C10      -37.5700  -29.0940    5.8070 C.3   253  CLR253      0.0150
     11  C11      -37.3050  -29.2350    3.2240 C.3   253  CLR253      0.0003
     12  C12      -36.3600  -29.0360    2.0200 C.3   253  CLR253      0.0000
     13  C13      -35.6630  -27.6650    2.1100 C.3   253  CLR253      0.0000
     14  C14      -34.8190  -27.7290    3.3890 C.3   253  CLR253      0.0003
     15  C15      -33.8690  -26.5240    3.3280 C.3   253  CLR253      0.0000
     16  C16      -33.6490  -26.3740    1.8120 C.3   253  CLR253      0.0000
     17  C17      -34.5650  -27.3710    1.0740 C.3   253  CLR253      0.0000
     18  C18      -36.6430  -26.4890    2.0900 C.3   253  CLR253      0.0000
     19  C19      -38.5140  -27.9130    5.6940 C.3   253  CLR253      0.0040
     20  C20      -34.9410  -26.9070   -0.3380 C.3   253  CLR253      0.0000
     21  C21      -36.0670  -27.7270   -0.9620 C.3   253  CLR253      0.0000
     22  C22      -33.7280  -27.0320   -1.2460 C.3   253  CLR253      0.0000
     23  C23      -33.8740  -26.2470   -2.5440 C.3   253  CLR253      0.0000
     24  C24      -34.0680  -24.7650   -2.2590 C.3   253  CLR253      0.0000
     25  C25      -33.7970  -23.9600   -3.5200 C.3   253  CLR253      0.0000
     26  C26      -34.0290  -22.4660   -3.3000 C.3   253  CLR253      0.0000
     27  C27      -32.3760  -24.2340   -3.9750 C.3   253  CLR253      0.0000
     28  O1       -38.4610  -30.8880    9.6920 O.3   253  CLR253     -0.2228
@<TRIPOS>BOND
     1    27    25    1
     2    25    26    1
     3    25    24    1
     4    23    24    1
     5    23    22    1
     6    22    20    1
     7    21    20    1
     8    20    17    1
     9    17    16    1
    10    17    13    1
    11    16    15    1
    12    12    13    1
    13    12    11    1
    14    18    13    1
    15    13    14    1
    16    11     9    1
    17    15    14    1
    18    14     8    1
    19     9     8    1
    20     9    10    1
    21     8     7    1
    22    19    10    1
    23    10     1    1
    24    10     5    1
    25     7     6    1
    26     1     2    1
    27     6     5    2
    28     5     4    1
    29     2     3    1
    30     3     4    1
    31     3    28    1
