@<TRIPOS>MOLECULE
3gkj_HC3_A_1.pdb
 29 32 0 0 0
SMALL
GASTEIGER

@<TRIPOS>ATOM
      1  C18      -36.6500  -26.5960    2.0760 C.3   253  HC3253      0.0000
      2  C13      -35.8080  -27.8690    2.0390 C.3   253  HC3253      0.0000
      3  C12      -36.6550  -29.1550    1.9810 C.3   253  HC3253      0.0000
      4  C11      -37.5500  -29.2760    3.2340 C.3   253  HC3253      0.0003
      5  C9       -36.7600  -29.2900    4.5500 C.3   253  HC3253      0.0038
      6  C10      -37.6960  -29.2530    5.7760 C.3   253  HC3253      0.0150
      7  C19      -38.7120  -28.1090    5.6640 C.3   253  HC3253      0.0040
      8  C1       -38.4510  -30.5910    5.9550 C.3   253  HC3253      0.0063
      9  C2       -39.2250  -30.7090    7.2940 C.3   253  HC3253      0.0335
     10  C3       -38.1950  -30.7260    8.4310 C.3   253  HC3253      0.1560
     11  O1       -38.9150  -30.9090    9.6560 O.3   253  HC3253     -0.2228
     12  C4       -37.4490  -29.3900    8.4310 C.3   253  HC3253      0.0545
     13  C5       -36.8640  -29.0830    7.0510 C.2   253  HC3253     -0.0466
     14  C6       -35.5890  -28.6280    7.0270 C.2   253  HC3253     -0.0345
     15  C7       -34.7820  -28.3340    5.7880 C.3   253  HC3253      0.0254
     16  C8       -35.7050  -28.1500    4.5810 C.3   253  HC3253      0.0046
     17  C14      -34.9190  -28.0440    3.2650 C.3   253  HC3253      0.0003
     18  C15      -33.8460  -26.9500    3.1220 C.3   253  HC3253      0.0000
     19  C16      -33.6590  -26.8290    1.5970 C.3   253  HC3253      0.0000
     20  C17      -34.7390  -27.7180    0.9410 C.3   253  HC3253      0.0000
     21  C20      -35.1360  -27.1690   -0.4330 C.3   253  HC3253      0.0000
     22  C21      -36.2770  -27.9700   -1.0660 C.3   253  HC3253      0.0000
     23  C22      -33.9310  -27.2330   -1.3740 C.3   253  HC3253      0.0001
     24  C23      -34.0760  -26.3330   -2.6080 C.3   253  HC3253      0.0025
     25  C24      -34.0580  -24.8440   -2.2630 C.3   253  HC3253      0.0304
     26  C25      -34.0990  -23.9650   -3.5130 C.3   253  HC3253      0.1268
     27  C26      -34.2780  -22.5050   -3.1110 C.3   253  HC3253      0.0329
     28  C27      -32.8400  -24.1620   -4.3400 C.3   253  HC3253      0.0329
     29  O2       -35.2340  -24.3320   -4.3270 O.3   253  HC3253     -0.2257
@<TRIPOS>BOND
     1    28    26    1
     2    29    26    1
     3    26    27    1
     4    26    25    1
     5    24    25    1
     6    24    23    1
     7    23    21    1
     8    22    21    1
     9    21    20    1
    10    20    19    1
    11    20     2    1
    12    19    18    1
    13     3     2    1
    14     3     4    1
    15     2     1    1
    16     2    17    1
    17    18    17    1
    18     4     5    1
    19    17    16    1
    20     5    16    1
    21     5     6    1
    22    16    15    1
    23     7     6    1
    24     6     8    1
    25     6    13    1
    26    15    14    1
    27     8     9    1
    28    14    13    2
    29    13    12    1
    30     9    10    1
    31    12    10    1
    32    10    11    1
