@<TRIPOS>MOLECULE
3gkn_BIH_A_1.pdb
 18 19 0 0 0
SMALL
GASTEIGER

@<TRIPOS>ATOM
      1  O31       19.2240    5.6720   13.6090 O.3   527  BIH527     -0.0650
      2  S3        18.0670    5.6120   12.7770 S.3   527  BIH527      0.0421
      3  O32       16.7950    6.1690   13.1180 O.3   527  BIH527     -0.0650
      4  O3        18.4560    6.2020   11.4290 O.3   527  BIH527     -0.0650
      5  C2        17.7790    3.8840   12.5180 C.ar  527  BIH527      0.1123
      6  C1        18.8920    3.0060   12.3400 C.ar  527  BIH527      0.0189
      7  C         18.7080    1.6450   12.1380 C.ar  527  BIH527      0.0014
      8  C8A       17.3860    1.1060   12.1060 C.ar  527  BIH527      0.0014
      9  C5        17.1530   -0.2860   11.9050 C.ar  527  BIH527      0.0189
     10  C4A       16.2420    2.0040   12.2870 C.ar  527  BIH527      0.0014
     11  C4        16.4740    3.3960   12.4920 C.ar  527  BIH527      0.0189
     12  C9        14.9170    1.4620   12.2540 C.ar  527  BIH527      0.0014
     13  C8        14.7370    0.1010   12.0570 C.ar  527  BIH527      0.0189
     14  C7        15.8500   -0.7720   11.8830 C.ar  527  BIH527      0.1123
     15  S6        15.5650   -2.4990   11.6410 S.3   527  BIH527      0.0421
     16  O6        15.1640   -3.0690   12.9950 O.3   527  BIH527     -0.0650
     17  O61       14.4350   -2.6140   10.7900 O.3   527  BIH527     -0.0650
     18  O1        16.8360   -3.0750   11.3660 O.3   527  BIH527     -0.0650
@<TRIPOS>BOND
     1    17    15    1
     2    18    15    1
     3     4     2    1
     4    15    14    1
     5    15    16    1
     6    14     9   ar
     7    14    13   ar
     8     9     8   ar
     9    13    12   ar
    10     8     7   ar
    11     8    10   ar
    12     7     6   ar
    13    12    10   ar
    14    10    11   ar
    15     6     5   ar
    16    11     5   ar
    17     5     2    1
    18     2     3    1
    19     2     1    1
