@<TRIPOS>MOLECULE
3gko_AZA_A_1.pdb
 11 12 0 0 0
SMALL
GASTEIGER

@<TRIPOS>ATOM
      1  N1        30.2010  -20.2210  -15.9900 N.2   302  AZA302     -0.2300
      2  C2        29.4990  -20.4720  -14.8490 C.1   302  AZA302      0.3745
      3  O2        28.3820  -20.0120  -14.7280 O.2   302  AZA302     -0.1738
      4  N3        30.0200  -21.2280  -13.8400 N.2   302  AZA302     -0.2491
      5  C4        31.2980  -21.7760  -13.9430 C.1   302  AZA302      0.1531
      6  C5        32.0650  -21.5460  -15.1040 C.2   302  AZA302      0.2717
      7  C6        31.4630  -20.7180  -16.1770 C.1   302  AZA302      0.2477
      8  O6        32.0810  -20.4830  -17.1980 O.2   302  AZA302     -0.2062
      9  N7        33.2400  -22.1690  -14.9560 N.2   302  AZA302     -0.1149
     10  N8        33.2740  -22.7620  -13.8110 N.pl3 302  AZA302     -0.0026
     11  N9        32.0610  -22.5380  -13.1340 N.2   302  AZA302     -0.0705
@<TRIPOS>BOND
     1     8     7    2
     2     7     1    2
     3     7     6    1
     4     1     2    2
     5     6     9    2
     6     6     5    1
     7     9    10    1
     8     2     3    2
     9     2     4    2
    10     5     4    2
    11     5    11    2
    12    10    11    1
