@<TRIPOS>MOLECULE
3gkt_HEM_A_1.pdb
 43 50 0 0 0
SMALL
GASTEIGER

@<TRIPOS>ATOM
      1  CHA       19.7400   58.5060   36.1110 C.2   155  HEM155      0.0000
      2  CHB       15.2040   57.6380   34.4750 C.2   155  HEM155      0.0000
      3  CHC       16.0080   52.9500   35.1880 C.2   155  HEM155      0.0000
      4  CHD       20.7130   53.6890   36.3190 C.2   155  HEM155      0.0000
      5  C1A       18.4370   58.6780   35.6780 C.ar  155  HEM155      0.0000
      6  C2A       17.7580   59.9570   35.5010 C.ar  155  HEM155      0.0000
      7  C3A       16.5200   59.7080   35.0520 C.ar  155  HEM155      0.0000
      8  C4A       16.3620   58.2710   34.9120 C.ar  155  HEM155      0.0000
      9  CMA       15.4490   60.7710   34.7290 C.3   155  HEM155      0.0000
     10  CAA       18.3230   61.3800   35.7780 C.3   155  HEM155      0.0000
     11  CBA       18.7630   62.0010   34.4420 C.3   155  HEM155      0.0000
     12  CGA       19.9260   61.2620   33.8270 C.2   155  HEM155      0.0000
     13  O1A       21.0790   61.3900   34.3220 O.co2 155  HEM155      0.0000
     14  O2A       19.7190   60.5440   32.8170 O.co2 155  HEM155      0.0000
     15  C1B       14.9680   56.2820   34.5350 C.2   155  HEM155      0.0000
     16  C2B       13.7530   55.5620   34.1710 C.2   155  HEM155      0.0000
     17  C3B       13.9800   54.2440   34.3880 C.2   155  HEM155      0.0000
     18  C4B       15.3500   54.1040   34.8600 C.2   155  HEM155      0.0000
     19  CMB       12.4500   56.2250   33.6750 C.3   155  HEM155      0.0000
     20  CAB       13.0150   53.0560   34.1550 C.2   155  HEM155      0.0000
     21  CBB       11.9770   52.8650   34.9630 C.2   155  HEM155      0.0000
     22  C1C       17.3050   52.7850   35.6350 C.ar  155  HEM155      0.0000
     23  C2C       17.7870   51.5500   36.1970 C.ar  155  HEM155      0.0000
     24  C3C       19.0830   51.7200   36.5230 C.ar  155  HEM155      0.0000
     25  C4C       19.4680   53.0780   36.1720 C.ar  155  HEM155      0.0000
     26  CMC       16.9030   50.2860   36.3590 C.3   155  HEM155      0.0000
     27  CAC       20.0010   50.6610   37.1670 C.2   155  HEM155      0.0000
     28  CBC       20.3850   49.5830   36.4850 C.2   155  HEM155      0.0000
     29  C1D       20.8920   55.0530   36.4140 C.2   155  HEM155      0.0000
     30  C2D       22.0950   55.7210   36.8920 C.2   155  HEM155      0.0000
     31  C3D       21.7960   57.2220   36.8190 C.2   155  HEM155      0.0000
     32  C4D       20.4300   57.3220   36.3180 C.2   155  HEM155      0.0000
     33  CMD       23.3980   55.0290   37.3440 C.3   155  HEM155      0.0000
     34  CAD       22.7290   58.3930   37.2460 C.3   155  HEM155      0.0000
     35  CBD       22.1750   58.7100   38.6400 C.3   155  HEM155      0.0000
     36  CGD       22.7210   59.9270   39.3720 C.2   155  HEM155      0.0000
     37  O1D       22.6200   61.0940   38.9180 O.co2 155  HEM155      0.0000
     38  O2D       23.2180   59.7220   40.4840 O.co2 155  HEM155      0.0000
     39  NA        17.5510   57.6500   35.2920 N.ar  155  HEM155      0.0000
     40  NB        15.8960   55.3490   34.9160 N.2   155  HEM155      0.0000
     41  NC        18.3600   53.7030   35.6370 N.ar  155  HEM155      0.0000
     42  ND        19.9540   56.0220   36.0960 N.2   155  HEM155      0.0000
     43 FE         17.9560   55.6230   35.4660 Fe    155  HEM155      0.0000
@<TRIPOS>BOND
     1    14    12   ar
     2    19    16    1
     3    12    13   ar
     4    12    11    1
     5    20    17    1
     6    20    21    2
     7    16    17    2
     8    16    15    1
     9    17    18    1
    10    11    10    1
    11     2    15    1
    12     2     8    2
    13    15    40    2
    14     9     7    1
    15    18    40    1
    16    18     3    2
    17     8     7   ar
    18     8    39   ar
    19    40    43    1
    20     7     6   ar
    21     3    22    1
    22    39    43    1
    23    39     5   ar
    24    43    41    1
    25    43    42    1
    26     6     5   ar
    27     6    10    1
    28    22    41   ar
    29    22    23   ar
    30    41    25   ar
    31     5     1    2
    32    42    32    2
    33    42    29    1
    34     1    32    1
    35    25     4    1
    36    25    24   ar
    37    23    26    1
    38    23    24   ar
    39    32    31    1
    40     4    29    2
    41    29    30    1
    42    28    27    2
    43    24    27    1
    44    31    30    2
    45    31    34    1
    46    30    33    1
    47    34    35    1
    48    35    36    1
    49    37    36   ar
    50    36    38   ar
