@<TRIPOS>MOLECULE
3gkv_HEM_A_1.pdb
 43 50 0 0 0
SMALL
GASTEIGER

@<TRIPOS>ATOM
      1  CHA       10.5940  -10.9450   18.5820 C.2   200  HEM200      0.0000
      2  CHB       11.4720  -12.5560   14.0250 C.2   200  HEM200      0.0000
      3  CHC        9.2830   -8.5670   12.2370 C.2   200  HEM200      0.0000
      4  CHD        8.8420   -6.7640   16.7100 C.2   200  HEM200      0.0000
      5  C1A       11.0250  -11.7310   17.4550 C.ar  200  HEM200      0.0000
      6  C2A       11.7820  -12.9810   17.5640 C.ar  200  HEM200      0.0000
      7  C3A       12.0710  -13.3980   16.3400 C.ar  200  HEM200      0.0000
      8  C4A       11.4930  -12.3850   15.4090 C.ar  200  HEM200      0.0000
      9  CMA       12.8270  -14.6550   15.9720 C.3   200  HEM200      0.0000
     10  CAA       12.2280  -13.5950   18.8560 C.3   200  HEM200      0.0000
     11  CBA       11.0620  -14.4120   19.2970 C.3   200  HEM200      0.0000
     12  CGA       11.2750  -15.0190   20.6990 C.2   200  HEM200      0.0000
     13  O1A       11.5570  -16.2450   20.7870 O.co2 200  HEM200      0.0000
     14  O2A       11.1620  -14.2480   21.6860 O.co2 200  HEM200      0.0000
     15  C1B       10.9660  -11.6290   13.1440 C.2   200  HEM200      0.0000
     16  C2B       11.0790  -11.7510   11.7280 C.2   200  HEM200      0.0000
     17  C3B       10.4500  -10.6340   11.1830 C.2   200  HEM200      0.0000
     18  C4B        9.9640   -9.8100   12.3550 C.2   200  HEM200      0.0000
     19  CMB       11.6320  -12.9740   10.9780 C.3   200  HEM200      0.0000
     20  CAB       10.1750  -10.2510    9.8070 C.3   200  HEM200      0.0000
     21  CBB       11.1590  -10.2570    8.7980 C.3   200  HEM200      0.0000
     22  C1C        8.9550   -7.7570   13.3010 C.ar  200  HEM200      0.0000
     23  C2C        8.4400   -6.3680   13.1410 C.ar  200  HEM200      0.0000
     24  C3C        8.3440   -5.8180   14.4030 C.ar  200  HEM200      0.0000
     25  C4C        8.7910   -6.8930   15.3050 C.ar  200  HEM200      0.0000
     26  CMC        8.0610   -5.7670   11.7610 C.3   200  HEM200      0.0000
     27  CAC        7.9370   -4.5730   14.8640 C.3   200  HEM200      0.0000
     28  CBC        7.8800   -3.3770   14.1760 C.3   200  HEM200      0.0000
     29  C1D        9.3000   -7.7570   17.5930 C.2   200  HEM200      0.0000
     30  C2D        9.2910   -7.5720   19.0780 C.2   200  HEM200      0.0000
     31  C3D        9.8500   -8.7350   19.5780 C.2   200  HEM200      0.0000
     32  C4D       10.1090   -9.6330   18.4680 C.2   200  HEM200      0.0000
     33  CMD        8.7150   -6.3560   19.8050 C.3   200  HEM200      0.0000
     34  CAD       10.1760   -9.0890   21.0280 C.3   200  HEM200      0.0000
     35  CBD       11.4020   -8.3760   21.5090 C.3   200  HEM200      0.0000
     36  CGD       11.7160   -8.7210   22.9400 C.2   200  HEM200      0.0000
     37  O1D       12.1700   -9.8450   23.1760 O.co2 200  HEM200      0.0000
     38  O2D       11.4940   -7.9090   23.8380 O.co2 200  HEM200      0.0000
     39  NA        10.8850  -11.3520   16.1010 N.ar  200  HEM200      0.0000
     40  NB        10.3220  -10.4530   13.5500 N.2   200  HEM200      0.0000
     41  NC         9.1410   -8.0750   14.6410 N.ar  200  HEM200      0.0000
     42  ND         9.8040   -9.0140   17.2230 N.2   200  HEM200      0.0000
     43 FE          9.9580   -9.7360   15.4160 Fe    200  HEM200      0.0000
@<TRIPOS>BOND
     1    21    20    1
     2    20    17    1
     3    19    16    1
     4    17    16    2
     5    17    18    1
     6    16    15    1
     7    26    23    1
     8     3    18    2
     9     3    22    1
    10    18    40    1
    11    23    22   ar
    12    23    24   ar
    13    15    40    2
    14    15     2    1
    15    22    41   ar
    16    40    43    1
    17     2     8    2
    18    28    27    1
    19    24    27    1
    20    24    25   ar
    21    41    25   ar
    22    41    43    1
    23    25     4    1
    24     8    39   ar
    25     8     7   ar
    26    43    39    1
    27    43    42    1
    28     9     7    1
    29    39     5   ar
    30     7     6   ar
    31     4    29    2
    32    42    29    1
    33    42    32    2
    34     5     6   ar
    35     5     1    2
    36     6    10    1
    37    29    30    1
    38    32     1    1
    39    32    31    1
    40    10    11    1
    41    30    31    2
    42    30    33    1
    43    11    12    1
    44    31    34    1
    45    12    13   ar
    46    12    14   ar
    47    34    35    1
    48    35    36    1
    49    36    37   ar
    50    36    38   ar
