@<TRIPOS>MOLECULE
3gkz_B40_A_1.pdb
 11 11 0 0 0
SMALL
GASTEIGER

@<TRIPOS>ATOM
      1  N         -2.4400   -2.0580   15.3790 N.3   500  B40500     -0.2176
      2  CA        -2.9850   -3.4260   15.5530 C.3   500  B40500      0.0772
      3  C         -1.8660   -4.4250   15.2400 C.3   500  B40500      0.0192
      4  CB        -3.4840   -3.6220   17.0080 C.3   500  B40500      0.0437
      5  CG        -4.2340   -4.9300   17.1960 C.ar  500  B40500     -0.0208
      6  CD1       -3.6000   -6.0350   17.8080 C.ar  500  B40500     -0.0042
      7  CD2       -5.5720   -5.0410   16.7720 C.ar  500  B40500     -0.0042
      8  CE1       -4.3030   -7.2380   17.9860 C.ar  500  B40500     -0.0003
      9  CE2       -6.2780   -6.2490   16.9510 C.ar  500  B40500     -0.0003
     10  CZ        -5.6430   -7.3480   17.5590 C.ar  500  B40500     -0.0000
     11  CM        -3.5180   -1.0470   15.3790 C.3   500  B40500      0.1074
@<TRIPOS>BOND
     1     3     2    1
     2     1    11    1
     3     1     2    1
     4     2     4    1
     5     7     9   ar
     6     7     5   ar
     7     9    10   ar
     8     4     5    1
     9     5     6   ar
    10    10     8   ar
    11     6     8   ar
