@<TRIPOS>MOLECULE
3gl0_HXX_A_1.pdb
 12 12 0 0 0
SMALL
GASTEIGER

@<TRIPOS>ATOM
      1  C2       -44.5220   21.1560    8.7420 C.ar  600  HXX600      0.2133
      2  C3       -44.8440   19.8420    9.0670 C.ar  600  HXX600      0.0968
      3  C4       -43.9530   18.8010    8.8930 C.ar  600  HXX600      0.0155
      4  C5       -42.6940   19.0560    8.3680 C.ar  600  HXX600      0.0127
      5  C6       -42.3680   20.3540    8.0680 C.ar  600  HXX600      0.0672
      6  O1'      -43.0470   23.1450    6.6460 O.co2 600  HXX600     -0.2404
      7  C1'      -42.9290   22.8110    7.8530 C.2   600  HXX600      0.3917
      8  O2'      -42.5450   23.6050    8.7450 O.co2 600  HXX600     -0.2404
      9  C1       -43.2770   21.3970    8.2250 C.ar  600  HXX600      0.1299
     10  O2       -45.4190   22.1830    8.9350 O.3   600  HXX600     -0.2854
     11 CL1       -46.4460   19.4990    9.7520 Cl    600  HXX600     -0.0789
     12 CL2       -40.7880   20.7320    7.3360 Cl    600  HXX600     -0.0819
@<TRIPOS>BOND
     1     6     7   ar
     2    12     5    1
     3     7     9    1
     4     7     8   ar
     5     5     9   ar
     6     5     4   ar
     7     9     1   ar
     8     4     3   ar
     9     1    10    1
    10     1     2   ar
    11     3     2   ar
    12     2    11    1
