@<TRIPOS>MOLECULE
3gl2_D3M_A_1.pdb
 13 13 0 0 0
SMALL
GASTEIGER

@<TRIPOS>ATOM
      1 CL1        38.4030  -30.5130   10.6970 Cl    600  D3M600     -0.0791
      2 CL2        42.7380  -26.3200    8.8700 Cl    600  D3M600     -0.0819
      3  C1        40.2060  -27.2360    9.2950 C.ar  600  D3M600      0.1250
      4  O1        39.7670  -25.7600    7.5010 O.co2 600  D3M600     -0.2404
      5  C2        41.5510  -27.5410    9.3910 C.ar  600  D3M600      0.0670
      6  O2        39.5040  -25.0040    9.5520 O.co2 600  D3M600     -0.2404
      7  C3        41.9740  -28.7690    9.8780 C.ar  600  D3M600      0.0127
      8  O3        37.9100  -27.8590    9.6110 O.3   600  D3M600     -0.4703
      9  C4        41.0120  -29.6850   10.2740 C.ar  600  D3M600      0.0153
     10  C5        39.6650  -29.3610   10.1770 C.ar  600  D3M600      0.0918
     11  C6        39.2550  -28.1430    9.6980 C.ar  600  D3M600      0.1563
     12  C7        39.7960  -25.9100    8.7500 C.2   600  D3M600      0.3915
     13  C8        37.1440  -28.4140    8.5310 C.3   600  D3M600      0.2525
@<TRIPOS>BOND
     1     4    12   ar
     2    13     8    1
     3    12     3    1
     4    12     6   ar
     5     2     5    1
     6     3     5   ar
     7     3    11   ar
     8     5     7   ar
     9     8    11    1
    10    11    10   ar
    11     7     9   ar
    12    10     9   ar
    13    10     1    1
