@<TRIPOS>MOLECULE
3glb_CCU_A_1.pdb
 10 9 0 0 0
SMALL
GASTEIGER

@<TRIPOS>ATOM
      1  C2        26.7460  -28.1160  -13.0500 C.2     3  CCU3        0.0861
      2  C3        25.8070  -27.9490  -13.9960 C.2     3  CCU3        0.0070
      3  C4        24.4740  -27.3730  -13.8050 C.2     3  CCU3        0.0070
      4  C6        23.6190  -27.8840  -16.1490 C.2     3  CCU3        0.3880
      5  O4        22.5740  -27.8830  -16.8350 O.co2   3  CCU3       -0.2405
      6  O3        24.6690  -28.3560  -16.6380 O.co2   3  CCU3       -0.2405
      7  C5        23.5230  -27.3540  -14.7560 C.2     3  CCU3        0.0861
      8  C1        26.6790  -27.7440  -11.6140 C.2     3  CCU3        0.3880
      9  O1        25.7030  -27.1540  -11.1040 O.co2   3  CCU3       -0.2405
     10  O2        27.6560  -28.0810  -10.9140 O.co2   3  CCU3       -0.2405
@<TRIPOS>BOND
     1     5     4   ar
     2     6     4   ar
     3     4     7    1
     4     7     3    2
     5     2     3    1
     6     2     1    2
     7     1     8    1
     8     8     9   ar
     9     8    10   ar
