@<TRIPOS>MOLECULE
3glc_R5P_A_1.pdb
 14 13 0 0 0
SMALL
GASTEIGER

@<TRIPOS>ATOM
      1  C1       -13.1540  -29.8800   81.6860 C.3   400  R5P400      0.2175
      2  O1       -13.9180  -28.8850   81.0380 O.3   400  R5P400     -0.2175
      3  C2       -13.4170  -29.9640   83.2100 C.3   400  R5P400      0.2175
      4  O2       -13.9810  -28.7820   83.7390 O.3   400  R5P400     -0.2175
      5  C3       -12.1710  -30.3980   84.0260 C.3   400  R5P400      0.2174
      6  O3       -11.0600  -29.5720   83.7800 O.3   400  R5P400     -0.2175
      7  C4       -11.7170  -31.8570   83.8100 C.3   400  R5P400      0.2147
      8  O4       -11.1300  -31.9980   82.5340 O.3   400  R5P400     -0.2176
      9  C5       -12.8170  -32.9170   84.0110 C.3   400  R5P400      0.1892
     10  O5       -13.5690  -32.7470   85.1970 O.3   400  R5P400     -0.2674
     11  P        -13.3590  -33.6600   86.5820 P.3   400  R5P400      0.5327
     12  O1P      -13.8460  -35.0080   86.3490 O.2   400  R5P400     -0.2224
     13  O2P      -11.9280  -33.7240   86.8790 O.3   400  R5P400     -0.1145
     14  O3P      -14.1090  -33.1080   87.7070 O.3   400  R5P400     -0.1145
@<TRIPOS>BOND
     1     2     1    1
     2     1     3    1
     3     8     7    1
     4     3     4    1
     5     3     5    1
     6     6     5    1
     7     7     9    1
     8     7     5    1
     9     9    10    1
    10    10    11    1
    11    12    11    2
    12    11    13    1
    13    11    14    1
