@<TRIPOS>MOLECULE
3glf_ADP_B_1.pdb
 27 29 0 0 0
SMALL
GASTEIGER

@<TRIPOS>ATOM
      1  PB        38.8600   36.3350   47.2540 P.3   400  ADP400      0.5373
      2  O1B       38.7370   36.1790   48.7980 O.3   400  ADP400     -0.1143
      3  O2B       37.6310   36.2880   46.3850 O.2   400  ADP400     -0.2221
      4  O3B       39.6610   35.0730   46.6550 O.3   400  ADP400     -0.1143
      5  PA        39.9430   38.9360   47.7230 P.3   400  ADP400      0.2231
      6  O1A       38.6980   39.7710   47.5630 O.2   400  ADP400     -0.5169
      7  O2A       40.4260   38.4930   49.0850 O.3   400  ADP400     -0.4370
      8  O3A       39.7640   37.6040   46.8060 O.3   400  ADP400     -0.2261
      9  O5'       41.0380   39.8980   47.0650 O.3   400  ADP400     -0.3111
     10  C5'       42.4100   39.8600   47.4180 C.3   400  ADP400      0.1813
     11  C4'       43.0420   41.0080   46.6640 C.3   400  ADP400      0.1821
     12  O4'       42.7530   40.9140   45.2830 O.3   400  ADP400     -0.3135
     13  C3'       42.3900   42.2820   47.0950 C.3   400  ADP400      0.2184
     14  O3'       43.2490   42.8380   48.0650 O.3   400  ADP400     -0.2174
     15  C2'       42.3480   43.1510   45.8760 C.3   400  ADP400      0.2570
     16  O2'       43.6110   43.7690   45.7380 O.3   400  ADP400     -0.2130
     17  C1'       42.3400   42.1750   44.7550 C.3   400  ADP400      0.3186
     18  N9        40.9680   42.1500   44.1840 N.pl3 400  ADP400     -0.1439
     19  C8        40.2090   41.0590   43.9070 C.3   400  ADP400      0.3377
     20  N7        39.0100   41.4030   43.3660 N.2   400  ADP400     -0.2095
     21  C5        38.9990   42.7420   43.2780 C.2   400  ADP400      0.2526
     22  C6        38.0380   43.7420   42.7900 C.2   400  ADP400      0.4393
     23  N6        36.8410   43.3690   42.2860 N.pl3 400  ADP400      0.2180
     24  N1        38.4150   45.0330   42.8840 N.2   400  ADP400      0.0021
     25  C2        39.6170   45.3950   43.3970 C.3   400  ADP400      0.5254
     26  N3        40.5510   44.5500   43.8570 N.2   400  ADP400     -0.0055
     27  C4        40.2880   43.2310   43.8170 C.2   400  ADP400      0.3518
@<TRIPOS>BOND
     1    23    22    1
     2    22    24    2
     3    22    21    1
     4    24    25    1
     5    21    20    2
     6    21    27    1
     7    20    19    1
     8    25    26    1
     9    27    26    2
    10    27    18    1
    11    19    18    1
    12    18    17    1
    13    17    12    1
    14    17    15    1
    15    12    11    1
    16    16    15    1
    17    15    13    1
    18     3     1    2
    19     4     1    1
    20    11    13    1
    21    11    10    1
    22     8     1    1
    23     8     5    1
    24     9    10    1
    25     9     5    1
    26    13    14    1
    27     1     2    1
    28     6     5    2
    29     5     7    1
