@<TRIPOS>MOLECULE
3glg_ADP_B_1.pdb
 27 29 0 0 0
SMALL
GASTEIGER

@<TRIPOS>ATOM
      1  PB        38.7610   35.9640   47.7180 P.3   400  ADP400      0.5373
      2  O1B       38.6690   35.8720   49.2710 O.3   400  ADP400     -0.1143
      3  O2B       37.5090   35.9380   46.8620 O.2   400  ADP400     -0.2221
      4  O3B       39.6160   34.7390   47.1170 O.3   400  ADP400     -0.1143
      5  PA        39.7940   38.6450   48.1100 P.3   400  ADP400      0.2231
      6  O1A       38.5150   39.4370   47.9720 O.2   400  ADP400     -0.5169
      7  O2A       40.3470   38.2710   49.4720 O.3   400  ADP400     -0.4370
      8  O3A       39.6380   37.2570   47.2530 O.3   400  ADP400     -0.2261
      9  O5'       40.8780   39.5570   47.3810 O.3   400  ADP400     -0.3111
     10  C5'       42.1940   39.6050   47.9060 C.3   400  ADP400      0.1813
     11  C4'       42.8730   40.7530   47.1800 C.3   400  ADP400      0.1821
     12  O4'       42.6820   40.6100   45.7710 O.3   400  ADP400     -0.3135
     13  C3'       42.2510   42.0900   47.5440 C.3   400  ADP400      0.2184
     14  O3'       43.0570   42.7670   48.4910 O.3   400  ADP400     -0.2174
     15  C2'       42.2760   42.8870   46.2770 C.3   400  ADP400      0.2570
     16  O2'       43.5180   43.5630   46.2530 O.3   400  ADP400     -0.2130
     17  C1'       42.3280   41.8670   45.1730 C.3   400  ADP400      0.3186
     18  N9        40.9660   41.8600   44.5810 N.pl3 400  ADP400     -0.1439
     19  C8        40.1790   40.7920   44.3220 C.3   400  ADP400      0.3377
     20  N7        38.9900   41.1630   43.7790 N.2   400  ADP400     -0.2095
     21  C5        39.0010   42.5020   43.6890 C.2   400  ADP400      0.2526
     22  C6        38.0640   43.5350   43.2040 C.2   400  ADP400      0.4393
     23  N6        36.8500   43.2380   42.6850 N.pl3 400  ADP400      0.2180
     24  N1        38.4800   44.8140   43.3010 N.2   400  ADP400      0.0021
     25  C2        39.6930   45.1430   43.8070 C.3   400  ADP400      0.5254
     26  N3        40.5970   44.2650   44.2640 N.2   400  ADP400     -0.0055
     27  C4        40.3020   42.9520   44.2240 C.2   400  ADP400      0.3518
@<TRIPOS>BOND
     1    23    22    1
     2    22    24    2
     3    22    21    1
     4    24    25    1
     5    21    20    2
     6    21    27    1
     7    20    19    1
     8    25    26    1
     9    27    26    2
    10    27    18    1
    11    19    18    1
    12    18    17    1
    13    17    12    1
    14    17    15    1
    15    12    11    1
    16    16    15    1
    17    15    13    1
    18     3     1    2
    19     4     1    1
    20    11    13    1
    21    11    10    1
    22     8     1    1
    23     8     5    1
    24     9    10    1
    25     9     5    1
    26    13    14    1
    27     1     2    1
    28     6     5    2
    29     5     7    1
