@<TRIPOS>MOLECULE
3gli_ADP_B_1.pdb
 27 29 0 0 0
SMALL
GASTEIGER

@<TRIPOS>ATOM
      1  PB        38.1150   36.4720   48.9070 P.3   400  ADP400      0.5373
      2  O1B       38.2230   36.2730   50.4320 O.3   400  ADP400     -0.1143
      3  O2B       36.7910   36.5580   48.2070 O.3   400  ADP400     -0.1143
      4  O3B       38.7480   35.2140   48.1350 O.2   400  ADP400     -0.2221
      5  PA        39.2600   39.0560   49.2320 P.3   400  ADP400      0.2231
      6  O1A       37.9970   39.8630   49.1550 O.2   400  ADP400     -0.5169
      7  O2A       39.8230   38.6420   50.5690 O.3   400  ADP400     -0.4370
      8  O3A       39.0150   37.7100   48.3730 O.3   400  ADP400     -0.2261
      9  O5'       40.3700   39.9240   48.4780 O.3   400  ADP400     -0.3111
     10  C5'       41.6470   40.0240   49.0830 C.3   400  ADP400      0.1813
     11  C4'       42.3770   41.1240   48.3600 C.3   400  ADP400      0.1821
     12  O4'       42.0870   40.9820   46.9840 O.3   400  ADP400     -0.3135
     13  C3'       41.8090   42.4630   48.7390 C.3   400  ADP400      0.2184
     14  O3'       42.5980   43.0480   49.7730 O.3   400  ADP400     -0.2174
     15  C2'       41.9230   43.2510   47.4590 C.3   400  ADP400      0.2570
     16  O2'       43.2520   43.7290   47.3550 O.3   400  ADP400     -0.2130
     17  C1'       41.8530   42.2380   46.3650 C.3   400  ADP400      0.3186
     18  N9        40.4890   42.2740   45.8070 N.pl3 400  ADP400     -0.1439
     19  C8        39.7320   41.1900   45.5650 C.3   400  ADP400      0.3377
     20  N7        38.5300   41.5310   45.0400 N.2   400  ADP400     -0.2095
     21  C5        38.5140   42.8670   44.9460 C.2   400  ADP400      0.2526
     22  C6        37.5430   43.8580   44.4770 C.2   400  ADP400      0.4393
     23  N6        36.3440   43.4640   44.0000 N.pl3 400  ADP400      0.2180
     24  N1        37.9000   45.1510   44.5390 N.2   400  ADP400      0.0021
     25  C2        39.0990   45.5300   45.0110 C.3   400  ADP400      0.5254
     26  N3        40.0310   44.6800   45.4580 N.2   400  ADP400     -0.0055
     27  C4        39.8010   43.3560   45.4470 C.2   400  ADP400      0.3518
@<TRIPOS>BOND
     1    23    22    1
     2    22    24    2
     3    22    21    1
     4    24    25    1
     5    21    20    2
     6    21    27    1
     7    25    26    1
     8    20    19    1
     9    27    26    2
    10    27    18    1
    11    19    18    1
    12    18    17    1
    13    17    12    1
    14    17    15    1
    15    12    11    1
    16    16    15    1
    17    15    13    1
    18     4     1    2
    19     3     1    1
    20    11    13    1
    21    11    10    1
    22     8     1    1
    23     8     5    1
    24     9    10    1
    25     9     5    1
    26    13    14    1
    27     1     2    1
    28     6     5    2
    29     5     7    1
