@<TRIPOS>MOLECULE
3gln_HEM_A_1.pdb
 43 50 0 0 0
SMALL
GASTEIGER

@<TRIPOS>ATOM
      1  CHA       18.2390   56.8140   35.8710 C.2   158  HEM158      0.0000
      2  CHB       13.6140   55.4010   35.2410 C.2   158  HEM158      0.0000
      3  CHC       14.8010   51.0390   37.0220 C.2   158  HEM158      0.0000
      4  CHD       19.5660   52.0290   36.2760 C.2   158  HEM158      0.0000
      5  C1A       16.8860   56.8590   35.6010 C.ar  158  HEM158      0.0000
      6  C2A       16.0690   58.0210   35.2230 C.ar  158  HEM158      0.0000
      7  C3A       14.7960   57.5930   35.0320 C.ar  158  HEM158      0.0000
      8  C4A       14.7510   56.1740   35.3230 C.ar  158  HEM158      0.0000
      9  CMA       13.5330   58.3890   34.6150 C.3   158  HEM158      0.0000
     10  CAA       16.5970   59.4690   35.0140 C.3   158  HEM158      0.0000
     11  CBA       17.2680   59.5330   33.6240 C.3   158  HEM158      0.0000
     12  CGA       18.1110   60.7660   33.3260 C.2   158  HEM158      0.0000
     13  O1A       17.7100   61.8690   33.7920 O.co2 158  HEM158      0.0000
     14  O2A       19.1660   60.6660   32.6070 O.co2 158  HEM158      0.0000
     15  C1B       13.4650   54.1080   35.6890 C.2   158  HEM158      0.0000
     16  C2B       12.2500   53.3210   35.7810 C.2   158  HEM158      0.0000
     17  C3B       12.5990   52.1140   36.2600 C.2   158  HEM158      0.0000
     18  C4B       14.0300   52.0770   36.5210 C.2   158  HEM158      0.0000
     19  CMB       10.8290   53.7710   35.3630 C.3   158  HEM158      0.0000
     20  CAB       11.6330   50.9500   36.5500 C.3   158  HEM158      0.0000
     21  CBB       11.5060   50.7050   37.8640 C.3   158  HEM158      0.0000
     22  C1C       16.1720   50.8710   36.9310 C.ar  158  HEM158      0.0000
     23  C2C       16.9520   49.6880   37.2380 C.ar  158  HEM158      0.0000
     24  C3C       18.2550   49.9550   37.0280 C.ar  158  HEM158      0.0000
     25  C4C       18.3930   51.3310   36.5860 C.ar  158  HEM158      0.0000
     26  CMC       16.4150   48.3230   37.7190 C.3   158  HEM158      0.0000
     27  CAC       19.4140   48.9590   37.2170 C.2   158  HEM158      0.0000
     28  CBC       20.0680   48.9580   38.3800 C.2   158  HEM158      0.0000
     29  C1D       19.6880   53.4270   36.2060 C.2   158  HEM158      0.0000
     30  C2D       20.9060   54.2380   36.2570 C.2   158  HEM158      0.0000
     31  C3D       20.4880   55.7090   36.1150 C.2   158  HEM158      0.0000
     32  C4D       19.0430   55.6840   36.0060 C.2   158  HEM158      0.0000
     33  CMD       22.3660   53.7730   36.4250 C.3   158  HEM158      0.0000
     34  CAD       21.4220   56.9350   36.1380 C.3   158  HEM158      0.0000
     35  CBD       21.5200   57.3850   37.5980 C.3   158  HEM158      0.0000
     36  CGD       22.3870   58.6110   37.7490 C.2   158  HEM158      0.0000
     37  O1D       22.5850   59.2840   36.7230 O.co2 158  HEM158      0.0000
     38  O2D       22.8760   58.9410   38.8640 O.co2 158  HEM158      0.0000
     39  NA        16.0480   55.7540   35.6670 N.ar  158  HEM158      0.0000
     40  NB        14.5090   53.3050   36.1260 N.2   158  HEM158      0.0000
     41  NC        17.0810   51.8420   36.5400 N.ar  158  HEM158      0.0000
     42  ND        18.6310   54.3360   36.0480 N.2   158  HEM158      0.0000
     43 FE         16.5590   53.7900   35.9850 Fe    158  HEM158      0.0000
@<TRIPOS>BOND
     1    14    12   ar
     2    12    11    1
     3    12    13   ar
     4    11    10    1
     5     9     7    1
     6    10     6    1
     7     7     6   ar
     8     7     8   ar
     9     6     5   ar
    10     2     8    2
    11     2    15    1
    12     8    39   ar
    13    19    16    1
    14     5    39   ar
    15     5     1    2
    16    39    43    1
    17    15    16    1
    18    15    40    2
    19    16    17    2
    20     1    32    1
    21    43    42    1
    22    43    40    1
    23    43    41    1
    24    32    42    2
    25    32    31    1
    26    42    29    1
    27    31    34    1
    28    31    30    2
    29    40    18    1
    30    34    35    1
    31    29    30    1
    32    29     4    2
    33    30    33    1
    34    17    18    1
    35    17    20    1
    36     4    25    1
    37    18     3    2
    38    41    25   ar
    39    41    22   ar
    40    20    21    1
    41    25    24   ar
    42    37    36   ar
    43    22     3    1
    44    22    23   ar
    45    24    27    1
    46    24    23   ar
    47    27    28    2
    48    23    26    1
    49    35    36    1
    50    36    38   ar
