@<TRIPOS>MOLECULE
3glq_NAD_A_1.pdb
 44 48 0 0 0
SMALL
GASTEIGER

@<TRIPOS>ATOM
      1  PA        19.0010   -3.9930   14.5310 P.3   601  NAD601      0.2189
      2  O1A       17.5630   -3.7910   14.9360 O.2   601  NAD601     -0.5170
      3  O2A       19.8680   -4.8300   15.4010 O.3   601  NAD601     -0.4371
      4  O5B       19.0980   -4.4730   13.0080 O.3   601  NAD601     -0.3112
      5  C5B       20.2940   -4.8770   12.3440 C.3   601  NAD601      0.1813
      6  C4B       19.9470   -6.0970   11.4850 C.3   601  NAD601      0.1821
      7  O4B       21.0170   -6.4330   10.6390 O.3   601  NAD601     -0.3135
      8  C3B       19.6500   -7.3630   12.2690 C.3   601  NAD601      0.2184
      9  O3B       18.3170   -7.8220   12.0340 O.3   601  NAD601     -0.2174
     10  C2B       20.7460   -8.3330   11.8130 C.3   601  NAD601      0.2570
     11  O2B       20.3210   -9.6530   11.6790 O.3   601  NAD601     -0.2130
     12  C1B       21.1130   -7.8240   10.4470 C.3   601  NAD601      0.3186
     13  N9A       22.4890   -8.1690    9.9720 N.pl3 601  NAD601     -0.1439
     14  C8A       23.6470   -8.1710   10.7050 C.3   601  NAD601      0.3377
     15  N7A       24.6560   -8.5280    9.8870 N.2   601  NAD601     -0.2095
     16  C5A       24.1800   -8.7140    8.6550 C.2   601  NAD601      0.2526
     17  C6A       24.7990   -9.0690    7.4670 C.2   601  NAD601      0.4393
     18  N6A       26.0820   -9.4270    7.4810 N.pl3 601  NAD601      0.2180
     19  N1A       24.0270   -9.2260    6.3230 N.2   601  NAD601      0.0021
     20  C2A       22.6650   -8.9760    6.3700 C.3   601  NAD601      0.5254
     21  N3A       22.0550   -8.6370    7.5620 N.2   601  NAD601     -0.0055
     22  C4A       22.8070   -8.5350    8.6980 C.2   601  NAD601      0.3518
     23  O3        19.6900   -2.5510   14.5420 O.3   601  NAD601     -0.2703
     24  PN        18.9690   -1.2020   14.0930 P.3   601  NAD601      0.2189
     25  O1N       18.3070   -0.5210   15.2540 O.3   601  NAD601     -0.4371
     26  O2N       18.2810   -1.5300   12.8000 O.2   601  NAD601     -0.5170
     27  O5D       20.3100   -0.3120   13.7900 O.3   601  NAD601     -0.3112
     28  C5D       21.2360   -0.6710   12.7570 C.3   601  NAD601      0.1813
     29  C4D       22.3610    0.3390   12.7310 C.3   601  NAD601      0.1799
     30  O4D       21.8390    1.6210   12.4740 O.3   601  NAD601     -0.3327
     31  C3D       23.0540    0.4640   14.0550 C.3   601  NAD601      0.2158
     32  O3D       24.4250    0.6720   13.7960 O.3   601  NAD601     -0.2175
     33  C2D       22.4290    1.6950   14.7230 C.3   601  NAD601      0.2309
     34  O2D       23.1990    2.3450   15.7190 O.3   601  NAD601     -0.2158
     35  C1D       22.2230    2.5560   13.4900 C.3   601  NAD601      0.2263
     36  N1N       21.1360    3.5780   13.4930 N.pl3 601  NAD601     -0.2787
     37  C2N       21.2860    4.5900   12.5310 C.3   601  NAD601      0.1244
     38  C3N       20.3140    5.5880   12.4070 C.2   601  NAD601      0.0544
     39  C7N       20.5360    6.7770   11.5060 C.2   601  NAD601      0.2818
     40  O7N       19.7860    7.9120   11.6860 O.2   601  NAD601     -0.2670
     41  N7N       21.4140    6.7920   10.4960 N.am  601  NAD601     -0.0839
     42  C4N       19.1820    5.5350   13.2520 C.2   601  NAD601      0.0033
     43  C5N       19.0550    4.5180   14.2260 C.2   601  NAD601      0.0157
     44  C6N       20.0470    3.5290   14.3500 C.2   601  NAD601      0.0633
@<TRIPOS>BOND
     1    19    20    1
     2    19    17    2
     3    20    21    1
     4    17    18    1
     5    17    16    1
     6    21    22    2
     7    16    22    1
     8    16    15    2
     9    22    13    1
    10    15    14    1
    11    13    12    1
    12    13    14    1
    13    12     7    1
    14    12    10    1
    15    41    39   am
    16     7     6    1
    17     6     8    1
    18     6     5    1
    19    39    40    2
    20    39    38    1
    21    11    10    1
    22    10     8    1
    23     9     8    1
    24     5     4    1
    25    38    37    1
    26    38    42    2
    27    30    29    1
    28    30    35    1
    29    37    36    1
    30    29    28    1
    31    29    31    1
    32    28    27    1
    33    26    24    2
    34     4     1    1
    35    42    43    1
    36    35    36    1
    37    35    33    1
    38    36    44    1
    39    27    24    1
    40    32    31    1
    41    31    33    1
    42    24    23    1
    43    24    25    1
    44    43    44    2
    45     1    23    1
    46     1     2    2
    47     1     3    1
    48    33    34    1
