@<TRIPOS>MOLECULE
3glq_RAB_A_1.pdb
 19 21 0 0 0
SMALL
GASTEIGER

@<TRIPOS>ATOM
      1  O5'       24.2450    7.4600   15.1760 O.3   602  RAB602     -0.2176
      2  C5'       22.9230    6.9220   14.9930 C.3   602  RAB602      0.2143
      3  C4'       21.9910    7.8490   15.7560 C.3   602  RAB602      0.1851
      4  O4'       21.8440    9.1240   15.1180 O.3   602  RAB602     -0.3134
      5  C1'       20.7290    9.7530   15.6740 C.3   602  RAB602      0.3186
      6  N9        20.0690   10.7530   14.7460 N.pl3 602  RAB602     -0.1439
      7  C4        20.0710   12.0560   15.0140 C.2   602  RAB602      0.3518
      8  N3        20.6370   12.7540   16.0150 N.2   602  RAB602     -0.0055
      9  C2        20.5240   14.0780   16.0870 C.3   602  RAB602      0.5254
     10  N1        19.8560   14.7900   15.1570 N.2   602  RAB602      0.0021
     11  C6        19.2690   14.1070   14.1290 C.2   602  RAB602      0.4393
     12  N6        18.6060   14.8180   13.2010 N.pl3 602  RAB602      0.2180
     13  C5        19.3930   12.7100   14.0210 C.2   602  RAB602      0.2526
     14  N7        18.9720   11.7640   13.1690 N.2   602  RAB602     -0.2095
     15  C8        19.3810   10.5580   13.6180 C.3   602  RAB602      0.3377
     16  C2'       19.8050    8.6050   16.1480 C.3   602  RAB602      0.2570
     17  O2'       18.5430    8.5010   15.4680 O.3   602  RAB602     -0.2130
     18  C3'       20.6080    7.3200   15.9490 C.3   602  RAB602      0.2186
     19  O3'       20.5820    6.4820   17.1070 O.3   602  RAB602     -0.2174
@<TRIPOS>BOND
     1    14    15    1
     2    14    13    2
     3    12    11    1
     4    15     6    1
     5    13    11    1
     6    13     7    1
     7    11    10    2
     8     6     7    1
     9     6     5    1
    10     2     1    1
    11     2     3    1
    12     7     8    2
    13     4     5    1
    14     4     3    1
    15    10     9    1
    16    17    16    1
    17     5    16    1
    18     3    18    1
    19    18    16    1
    20    18    19    1
    21     8     9    1
