@<TRIPOS>MOLECULE
3glu_III_B_1.pdb
 24 23 0 0 0
SMALL
GASTEIGER

@<TRIPOS>ATOM
      1  N        -30.7420  -25.8700  -21.2630 N.3   642  LYS642     -0.1231
      2  CA       -29.4450  -26.4130  -20.7880 C.3   642  LYS642      0.1693
      3  C        -28.9130  -27.3680  -21.8220 C.2   642  LYS642      0.2592
      4  O        -29.4560  -28.4530  -21.9920 O.2   642  LYS642     -0.2718
      5  CB       -29.5870  -27.1390  -19.4580 C.3   642  LYS642      0.0285
      6  CG       -28.2680  -27.6330  -18.8970 C.3   642  LYS642      0.0035
      7  CD       -28.5060  -28.5540  -17.7150 C.3   642  LYS642      0.0206
      8  CE       -27.2300  -29.2750  -17.3000 C.3   642  LYS642      0.1093
      9  NZ       -27.3450  -29.9200  -15.9550 N.3   642  LYS642     -0.1314
     10  N        -27.8410  -26.9460  -22.4980 N.am  643  VAL643     -0.1966
     11  CA       -27.2640  -27.6420  -23.6670 C.3   643  VAL643      0.1727
     12  C        -25.7280  -27.7080  -23.5730 C.2   643  VAL643      0.2616
     13  O        -25.0750  -26.6730  -23.4820 O.2   643  VAL643     -0.2715
     14  CB       -27.7330  -26.9780  -25.0390 C.3   643  VAL643      0.0290
     15  CG1      -28.8860  -27.7950  -25.7150 C.3   643  VAL643      0.0023
     16  CG2      -28.1300  -25.5010  -24.8470 C.3   643  VAL643      0.0023
     17  N        -25.1670  -28.9230  -23.5730 N.am  644  MET644     -0.1977
     18  CA       -23.7060  -29.1600  -23.4180 C.3   644  MET644      0.1605
     19  C        -22.9430  -29.0450  -24.7220 C.2   644  MET644      0.2287
     20  O        -22.4660  -27.9670  -25.0420 O.2   644  MET644     -0.2864
     21  CB       -23.4200  -30.5290  -22.7820 C.3   644  MET644      0.0413
     22  CG       -22.1120  -31.1970  -23.2660 C.3   644  MET644      0.0598
     23  SD       -20.7630  -31.4500  -22.0260 S.3   644  MET644     -0.1393
     24  CE       -19.7120  -32.7030  -22.8280 C.3   644  MET644      0.0692
@<TRIPOS>BOND
     1    15    14    1
     2    20    19    2
     3    14    16    1
     4    14    11    1
     5    19    18    1
     6    11    12    1
     7    11    10    1
     8    17    12   am
     9    17    18    1
    10    12    13    2
    11    18    21    1
    12    22    21    1
    13    22    23    1
    14    24    23    1
    15    10     3   am
    16     4     3    2
    17     3     2    1
    18     1     2    1
    19     2     5    1
    20     5     6    1
    21     6     7    1
    22     7     8    1
    23     8     9    1
