@<TRIPOS>MOLECULE
3glv_AMP_B_1.pdb
 23 25 0 0 0
SMALL
GASTEIGER

@<TRIPOS>ATOM
      1  P         22.9260   30.1260   -6.1170 P.3   201  AMP201      0.5327
      2  O1P       23.0970   29.4020   -4.7780 O.3   201  AMP201     -0.1145
      3  O2P       24.1110   30.9290   -6.5230 O.3   201  AMP201     -0.1145
      4  O3P       22.2280   29.3240   -7.1660 O.2   201  AMP201     -0.2224
      5  O5'       21.6950   31.1120   -5.8010 O.3   201  AMP201     -0.2675
      6  C5'       21.9280   32.0930   -4.7570 C.3   201  AMP201      0.1860
      7  C4'       20.6050   32.6730   -4.2630 C.3   201  AMP201      0.1823
      8  O4'       20.0860   33.4610   -5.3740 O.3   201  AMP201     -0.3135
      9  C3'       19.5070   31.7000   -3.9240 C.3   201  AMP201      0.2184
     10  O3'       18.6280   32.2580   -2.8900 O.3   201  AMP201     -0.2174
     11  C2'       18.7260   31.6180   -5.2430 C.3   201  AMP201      0.2570
     12  O2'       17.3170   31.1910   -5.1270 O.3   201  AMP201     -0.2130
     13  C1'       18.8060   33.0570   -5.7660 C.3   201  AMP201      0.3186
     14  N9        18.5720   33.0500   -7.2380 N.pl3 201  AMP201     -0.1439
     15  C8        19.4150   32.5180   -8.1880 C.3   201  AMP201      0.3377
     16  N7        18.8600   32.6100   -9.4320 N.2   201  AMP201     -0.2095
     17  C5        17.6250   33.1680   -9.2500 C.2   201  AMP201      0.2526
     18  C6        16.5360   33.5380  -10.1500 C.2   201  AMP201      0.4393
     19  N6        16.7390   33.2570  -11.4620 N.pl3 201  AMP201      0.2180
     20  N1        15.3980   34.0950   -9.6510 N.2   201  AMP201      0.0021
     21  C2        15.3070   34.3520   -8.3100 C.3   201  AMP201      0.5254
     22  N3        16.2780   34.0530   -7.4180 N.2   201  AMP201     -0.0055
     23  C4        17.4350   33.4660   -7.8250 C.2   201  AMP201      0.3518
@<TRIPOS>BOND
     1    19    18    1
     2    18    20    2
     3    18    17    1
     4    20    21    1
     5    16    17    2
     6    16    15    1
     7    17    23    1
     8    21    22    1
     9    15    14    1
    10    23    22    2
    11    23    14    1
    12    14    13    1
    13     4     1    2
    14     3     1    1
    15     1     5    1
    16     1     2    1
    17     5     6    1
    18    13     8    1
    19    13    11    1
    20     8     7    1
    21    11    12    1
    22    11     9    1
    23     6     7    1
    24     7     9    1
    25     9    10    1
