@<TRIPOS>MOLECULE
3gly_MAN_A_10.pdb
 11 11 0 0 0
SMALL
GASTEIGER

@<TRIPOS>ATOM
      1  C1        21.4060    2.0280   33.9710 C.3   491  MAN491      0.1777
      2  C2        19.9550    1.7990   34.4410 C.3   491  MAN491      0.2141
      3  C3        19.1500    3.0850   34.2620 C.3   491  MAN491      0.2173
      4  C4        19.8180    4.2460   34.9690 C.3   491  MAN491      0.2142
      5  C5        21.2440    4.4290   34.4650 C.3   491  MAN491      0.1810
      6  C6        22.0090    5.4910   35.2110 C.3   491  MAN491      0.2141
      7  O2        19.9460    1.4710   35.8590 O.3   491  MAN491     -0.2176
      8  O3        17.8580    2.9530   34.8830 O.3   491  MAN491     -0.2175
      9  O4        19.0630    5.4570   34.7030 O.3   491  MAN491     -0.2176
     10  O5        21.9590    3.1830   34.6080 O.3   491  MAN491     -0.3481
     11  O6        22.0600    5.3110   36.6410 O.3   491  MAN491     -0.2176
@<TRIPOS>BOND
     1     1     2    1
     2     1    10    1
     3     3     2    1
     4     3     8    1
     5     3     4    1
     6     2     7    1
     7     5    10    1
     8     5     4    1
     9     5     6    1
    10     9     4    1
    11     6    11    1
