@<TRIPOS>MOLECULE
3glz_1BD_A_1.pdb
 18 18 0 0 0
SMALL
GASTEIGER

@<TRIPOS>ATOM
      1  C1        20.6420   40.1350   10.0390 C.ar  500  1BD500      0.0000
      2  C2        20.7540   40.7040    8.7480 C.ar  500  1BD500      0.0016
      3  C3        20.9490   42.0430    8.5120 C.ar  500  1BD500      0.0263
      4  C4        21.1060   42.9500    9.6370 C.ar  500  1BD500      0.0730
      5  C5        20.9830   42.3560   10.9250 C.ar  500  1BD500      0.0039
      6  C6        20.7570   40.9710   11.1390 C.ar  500  1BD500     -0.0001
      7  C7        21.0480   42.6030    7.0230 C.2   500  1BD500      0.1400
      8  N8        21.1060   41.8880    6.0930 N.2   500  1BD500     -0.0814
      9  O9        21.3050   42.3300    4.8600 O.2   500  1BD500     -0.3767
     10  C10       20.8530   41.6700    3.7900 C.3   500  1BD500      0.2503
     11  C11       19.2990   41.8530    3.5930 C.3   500  1BD500      0.1642
     12  C12       18.8250   40.8680    2.5870 C.2   500  1BD500      0.3688
     13  O13       19.8290   40.4400    1.6960 O.co2 500  1BD500     -0.2455
     14  O14       17.6980   40.4720    2.5350 O.co2 500  1BD500     -0.2455
     15  C15       21.3680   44.5030    9.4910 C.3   500  1BD500      0.4186
     16  F16       22.4850   44.7740    8.6660 F     500  1BD500     -0.1659
     17  F17       21.6030   45.0640   10.6600 F     500  1BD500     -0.1659
     18  F18       20.3050   45.1400    8.9230 F     500  1BD500     -0.1659
@<TRIPOS>BOND
     1    13    12   ar
     2    14    12   ar
     3    12    11    1
     4    11    10    1
     5    10     9    1
     6     9     8    1
     7     8     7    2
     8     7     3    1
     9     3     2   ar
    10     3     4   ar
    11    16    15    1
    12     2     1   ar
    13    18    15    1
    14    15     4    1
    15    15    17    1
    16     4     5   ar
    17     1     6   ar
    18     5     6   ar
