@<TRIPOS>MOLECULE
3gm0_B41_A_1.pdb
 14 15 0 0 0
SMALL
GASTEIGER

@<TRIPOS>ATOM
      1  O1        -7.8340   -5.8670   16.5420 O.3   600  B41600     -0.4346
      2  O2        -7.0540   -7.9350   17.1210 O.3   600  B41600     -0.4346
      3  N         -2.6600   -1.9010   15.5060 N.3   600  B41600     -0.2176
      4  CA        -3.1790   -3.2790   15.6260 C.3   600  B41600      0.0772
      5  C         -2.1360   -4.2640   15.0710 C.3   600  B41600      0.0192
      6  CB        -3.4810   -3.6020   17.1060 C.3   600  B41600      0.0438
      7  CG        -4.4120   -4.7920   17.2630 C.ar  600  B41600     -0.0176
      8  CD1       -5.8100   -4.6140   17.1060 C.ar  600  B41600      0.0360
      9  CD2       -3.9020   -6.0760   17.5790 C.ar  600  B41600     -0.0009
     10  CE1       -6.6830   -5.7120   17.2670 C.ar  600  B41600      0.1761
     11  CE2       -4.7880   -7.1710   17.7310 C.ar  600  B41600      0.0399
     12  CZ        -6.1800   -6.9710   17.5770 C.ar  600  B41600      0.1764
     13  CM        -3.7650   -0.9510   15.3770 C.3   600  B41600      0.1074
     14  CT        -8.2840   -7.2220   16.8230 C.3   600  B41600      0.4294
@<TRIPOS>BOND
     1     5     4    1
     2    13     3    1
     3     3     4    1
     4     4     6    1
     5     1    14    1
     6     1    10    1
     7    14     2    1
     8     6     7    1
     9     8     7   ar
    10     8    10   ar
    11     2    12    1
    12     7     9   ar
    13    10    12   ar
    14    12    11   ar
    15     9    11   ar
