@<TRIPOS>MOLECULE
3gmc_3HM_A_1.pdb
 11 11 0 0 0
SMALL
GASTEIGER

@<TRIPOS>ATOM
      1  CAH       24.7500   15.0800   22.0200 C.3   381  3HM381      0.0555
      2  CAI       25.0330   14.3940   20.6820 C.ar  381  3HM381      0.0981
      3  NAJ       26.2450   13.8730   20.4420 N.ar  381  3HM381     -0.2447
      4  CAK       26.5270   13.2670   19.3020 C.ar  381  3HM381      0.1052
      5  CAE       25.5650   13.1520   18.3040 C.ar  381  3HM381      0.1020
      6  CAF       25.9030   12.4660   16.9790 C.2   381  3HM381      0.3894
      7  OAA       25.0070   12.4040   16.1090 O.co2 381  3HM381     -0.2405
      8  OAG       27.0570   12.0070   16.8360 O.co2 381  3HM381     -0.2405
      9  CAD       24.2960   13.6790   18.5130 C.ar  381  3HM381      0.0514
     10  CAC       24.0300   14.3090   19.7230 C.ar  381  3HM381      0.2093
     11  OAB       22.8000   14.8370   19.9640 O.3   381  3HM381     -0.2853
@<TRIPOS>BOND
     1     7     6   ar
     2     8     6   ar
     3     6     5    1
     4     5     9   ar
     5     5     4   ar
     6     9    10   ar
     7     4     3   ar
     8    10    11    1
     9    10     2   ar
    10     3     2   ar
    11     2     1    1
