@<TRIPOS>MOLECULE
3gmd_2M3_A_1.pdb
 26 30 0 0 0
SMALL
GASTEIGER

@<TRIPOS>ATOM
      1  C1        -3.6250   -7.6980   16.5660 C.2     2  2M32        0.0008
      2  C2        -4.7810   -8.1580   15.6610 C.2     2  2M32        0.1063
      3  C4        -2.3290   -8.1180   16.2660 C.3     2  2M32        0.0649
      4  C5        -2.1220   -8.9530   15.1340 C.2     2  2M32        0.0544
      5  C6        -3.3200   -9.3690   14.2770 C.1     2  2M32        0.0829
      6  C8        -1.4900  -10.2810   13.3920 C.2     2  2M32        0.1172
      7  C11        0.4860   -9.5550   14.8810 C.3     2  2M32        0.0465
      8  C12        0.7280  -10.4320   16.1290 C.3     2  2M32        0.0277
      9  C15        0.9390   -8.1600   15.3990 C.3     2  2M32        0.0978
     10  C16        3.2000   -7.5920   16.3820 C.2     2  2M32        0.2300
     11  C17        4.4560   -7.9800   17.2580 C.3     2  2M32        0.1042
     12  C19        5.2350   -9.1190   16.5720 C.ar    2  2M32        0.0665
     13  C21        6.7410  -10.9480   16.8550 C.ar    2  2M32        0.0985
     14  C23        5.8400  -10.4080   14.5930 C.ar    2  2M32        0.0028
     15  C24        5.1270   -9.3490   15.1730 C.ar    2  2M32        0.0152
     16  N3        -4.5550   -8.9450   14.6020 N.2     2  2M32       -0.1829
     17  N7        -2.8080  -10.1500   13.2840 N.2     2  2M32       -0.3554
     18  C9        -0.9830   -9.6000   14.4760 C.2     2  2M32        0.0121
     19  C10       -0.6450  -11.0970   12.4230 C.3     2  2M32        0.0670
     20  C13        1.9710   -9.8050   16.7730 C.3     2  2M32        0.0938
     21  N14        2.1390   -8.4480   16.2070 N.am    2  2M32       -0.2789
     22  O18        3.1770   -6.4980   15.8440 O.2     2  2M32       -0.2745
     23  N20        6.0230   -9.9120   17.3390 N.ar    2  2M32       -0.2477
     24  C22        6.6940  -11.2570   15.4840 C.ar    2  2M32        0.0207
     25  C25        5.1980   -6.9090   18.0180 C.3     2  2M32        0.0151
     26  C26        4.4210   -7.8510   18.7610 C.3     2  2M32        0.0151
@<TRIPOS>BOND
     1    19     6    1
     2    17     6    2
     3    17     5    2
     4     6    18    1
     5     5    16    2
     6     5     4    1
     7    18     7    1
     8    18     4    2
     9    14    15   ar
    10    14    24   ar
    11    16     2    1
    12     7     9    1
    13     7     8    1
    14     4     3    1
    15    15    12   ar
    16     9    21    1
    17    24    13   ar
    18     2     1    2
    19    22    10    2
    20     8    20    1
    21    21    10   am
    22    21    20    1
    23     3     1    1
    24    10    11    1
    25    12    11    1
    26    12    23   ar
    27    13    23   ar
    28    11    25    1
    29    11    26    1
    30    25    26    1
