@<TRIPOS>MOLECULE
3gmd_NDP_A_1.pdb
 48 52 0 0 0
SMALL
GASTEIGER

@<TRIPOS>ATOM
      1  PA        -8.2790   -6.6880   17.2490 P.3   300  NDP300      0.2189
      2  O1A       -8.5040   -7.4670   15.9230 O.2   300  NDP300     -0.5170
      3  O2A       -8.8230   -7.4980   18.4470 O.3   300  NDP300     -0.4371
      4  O5B       -9.0360   -5.3010   17.1690 O.3   300  NDP300     -0.3112
      5  C5B       -8.9380   -4.4360   16.0360 C.3   300  NDP300      0.1813
      6  C4B      -10.1490   -3.5060   16.0230 C.3   300  NDP300      0.1820
      7  O4B      -10.1900   -2.7290   14.8150 O.3   300  NDP300     -0.3136
      8  C3B      -11.4820   -4.3480   16.1050 C.3   300  NDP300      0.2157
      9  O3B      -12.3470   -3.7040   17.0710 O.3   300  NDP300     -0.2175
     10  C2B      -11.9750   -4.1820   14.8000 C.3   300  NDP300      0.2314
     11  O2B      -13.4100   -4.2010   14.7390 O.3   300  NDP300     -0.2630
     12  C1B      -11.4850   -2.8340   14.2420 C.3   300  NDP300      0.3158
     13  N9A      -11.3920   -2.6600   12.9230 N.pl3 300  NDP300     -0.1439
     14  C8A      -10.8900   -3.5100   11.9830 C.3   300  NDP300      0.3377
     15  N7A      -10.9690   -2.9800   10.8060 N.2   300  NDP300     -0.2095
     16  C5A      -11.5120   -1.7670   10.9050 C.2   300  NDP300      0.2526
     17  C6A      -11.8250   -0.7690    9.9550 C.2   300  NDP300      0.4393
     18  N6A      -11.5570   -0.9680    8.6140 N.pl3 300  NDP300      0.2180
     19  N1A      -12.3890    0.3900   10.3830 N.2   300  NDP300      0.0021
     20  C2A      -12.6500    0.5840   11.6860 C.3   300  NDP300      0.5254
     21  N3A      -12.3690   -0.3500   12.6250 N.2   300  NDP300     -0.0055
     22  C4A      -11.7960   -1.5210   12.2540 C.2   300  NDP300      0.3518
     23  O3        -6.7280   -6.3820   17.4790 O.3   300  NDP300     -0.2703
     24  PN        -5.8760   -5.8390   18.7270 P.3   300  NDP300      0.2189
     25  O1N       -6.8240   -5.4160   19.8750 O.3   300  NDP300     -0.4371
     26  O2N       -4.9430   -6.9480   19.2300 O.2   300  NDP300     -0.5170
     27  O5D       -4.9990   -4.5830   18.2370 O.3   300  NDP300     -0.3112
     28  C5D       -5.1590   -3.2410   18.7200 C.3   300  NDP300      0.1813
     29  C4D       -3.8920   -2.4090   18.4240 C.3   300  NDP300      0.1799
     30  O4D       -2.7610   -2.9390   19.1350 O.3   300  NDP300     -0.3327
     31  C3D       -3.5480   -2.4440   16.9120 C.3   300  NDP300      0.2158
     32  O3D       -3.3330   -1.1170   16.4120 O.3   300  NDP300     -0.2175
     33  C2D       -2.2280   -3.2930   16.8870 C.3   300  NDP300      0.2309
     34  O2D       -1.3120   -2.8990   15.8590 O.3   300  NDP300     -0.2158
     35  C1D       -1.6320   -3.0070   18.2530 C.3   300  NDP300      0.2263
     36  N1N       -0.6930   -4.1020   18.6240 N.pl3 300  NDP300     -0.2787
     37  C2N       -1.1780   -5.3210   18.9740 C.3   300  NDP300      0.1244
     38  C3N       -0.2800   -6.3780   19.3110 C.2   300  NDP300      0.0544
     39  C7N       -0.7930   -7.7350   19.6880 C.2   300  NDP300      0.2818
     40  O7N       -0.0200   -8.6480   19.9160 O.2   300  NDP300     -0.2670
     41  N7N       -2.1200   -7.9660   19.7520 N.am  300  NDP300     -0.0839
     42  C4N        1.1270   -6.1060   19.2680 C.2   300  NDP300      0.0033
     43  C5N        1.5800   -4.8250   18.9030 C.2   300  NDP300      0.0157
     44  C6N        0.6370   -3.8390   18.5830 C.2   300  NDP300      0.0633
     45  P2B      -14.2940   -4.5430   13.4230 P.3   300  NDP300      0.5328
     46  O1X      -15.7590   -4.8980   13.8240 O.3   300  NDP300     -0.1145
     47  O2X      -14.3110   -3.2900   12.5150 O.2   300  NDP300     -0.2224
     48  O3X      -13.6630   -5.7340   12.6560 O.3   300  NDP300     -0.1145
@<TRIPOS>BOND
     1    18    17    1
     2    17    19    2
     3    17    16    1
     4    19    20    1
     5    15    16    2
     6    15    14    1
     7    16    22    1
     8    20    21    1
     9    14    13    1
    10    22    21    2
    11    22    13    1
    12    47    45    2
    13    48    45    1
    14    13    12    1
    15    45    46    1
    16    45    11    1
    17    12    10    1
    18    12     7    1
    19    11    10    1
    20    10     8    1
    21     7     6    1
    22    34    33    1
    23     2     1    2
    24     6     5    1
    25     6     8    1
    26     5     4    1
    27     8     9    1
    28    32    31    1
    29    33    31    1
    30    33    35    1
    31    31    29    1
    32     4     1    1
    33     1    23    1
    34     1     3    1
    35    23    24    1
    36    27    28    1
    37    27    24    1
    38    35    36    1
    39    35    30    1
    40    29    28    1
    41    29    30    1
    42    44    36    1
    43    44    43    2
    44    36    37    1
    45    24    26    2
    46    24    25    1
    47    43    42    1
    48    37    38    1
    49    42    38    2
    50    38    39    1
    51    39    41   am
    52    39    40    2
