@<TRIPOS>MOLECULE
3gmm_C8P_A_1.pdb
 48 49 0 0 0
SMALL
GASTEIGER

@<TRIPOS>ATOM
      1  O25        1.1320   -7.1370   18.0900 O.2   300  C8P300     -0.2733
      2  C25        2.1450   -7.7250   18.5030 C.2   300  C8P300      0.2415
      3  C26        2.1490   -9.1750   19.0150 C.3   300  C8P300      0.0868
      4  C27        1.0520   -9.9600   18.3530 C.3   300  C8P300      0.0096
      5  C28        1.5920  -10.2190   16.9300 C.3   300  C8P300      0.0005
      6  C29        0.5950  -11.1940   16.1720 C.3   300  C8P300      0.0000
      7  C30        1.0670  -11.4920   14.7020 C.3   300  C8P300      0.0003
      8  C31       -0.1530  -12.0850   13.9170 C.3   300  C8P300      0.0047
      9  C32        0.2070  -12.3500   12.4360 C.3   300  C8P300      0.0264
     10  CI        -0.9670  -12.6950   11.5080 C.ar  300  C8P300     -0.0222
     11  CJ2       -2.1150  -11.9290   11.4720 C.ar  300  C8P300     -0.0043
     12  CK2       -3.1650  -12.2580   10.6160 C.ar  300  C8P300     -0.0003
     13  CL        -3.0630  -13.3850    9.7920 C.ar  300  C8P300     -0.0000
     14  CK1       -1.9190  -14.1760    9.8340 C.ar  300  C8P300     -0.0003
     15  CJ1       -0.8730  -13.8000   10.6810 C.ar  300  C8P300     -0.0043
     16  N          3.3200   -7.0870   18.5520 N.am  300  C8P300     -0.2019
     17  C17        3.4210   -5.6920   18.1370 C.3   300  C8P300      0.1576
     18  C18        3.3410   -4.8640   19.4590 C.3   300  C8P300      0.1691
     19  O18        4.4430   -5.1670   20.3490 O.3   300  C8P300     -0.3266
     20  C19        4.4930   -4.5010   21.6390 C.3   300  C8P300      0.2695
     21  C20        5.6820   -5.0140   22.4010 C.3   300  C8P300      0.2406
     22  O20        6.8320   -4.7740   21.6120 O.3   300  C8P300     -0.2149
     23  C21        5.6690   -6.5180   22.5690 C.3   300  C8P300      0.2198
     24  O21        6.7900   -6.8960   23.3680 O.3   300  C8P300     -0.2174
     25  C22        4.4180   -6.9220   23.3350 C.3   300  C8P300      0.2144
     26  O22        4.6380   -6.4450   24.6690 O.3   300  C8P300     -0.2176
     27  C23        3.2030   -6.2730   22.6810 C.3   300  C8P300      0.1835
     28  C24        1.9770   -6.4020   23.5720 C.3   300  C8P300      0.2142
     29  O24        1.2040   -7.4490   22.9700 O.3   300  C8P300     -0.2176
     30  O19        3.3490   -4.8870   22.3800 O.3   300  C8P300     -0.3256
     31  C16        4.7660   -5.5260   17.4730 C.3   300  C8P300      0.2043
     32  O16        4.7780   -4.1520   17.1280 O.3   300  C8P300     -0.2185
     33  C15        5.0490   -6.3770   16.2110 C.3   300  C8P300      0.1839
     34  O15        6.2900   -5.9440   15.5880 O.3   300  C8P300     -0.2204
     35  C14        3.9810   -6.2010   15.1230 C.3   300  C8P300      0.0356
     36  C13        4.2450   -6.9510   13.7990 C.3   300  C8P300      0.0027
     37  C12        4.3980   -8.4400   13.9920 C.3   300  C8P300      0.0001
     38  C11        4.5140   -9.2920   12.7160 C.3   300  C8P300      0.0000
     39  C10        5.7190   -8.9340   11.8280 C.3   300  C8P300      0.0000
     40  C9         5.7740   -9.9840   10.7130 C.3   300  C8P300      0.0000
     41  C8         6.6330   -9.2740    9.6640 C.3   300  C8P300      0.0000
     42  C7         7.2000  -10.2030    8.6350 C.3   300  C8P300      0.0000
     43  C6         8.1950   -9.3840    7.8050 C.3   300  C8P300      0.0000
     44  C5         7.5900   -8.9480    6.4810 C.3   300  C8P300      0.0000
     45  C4         8.5170   -8.7210    5.2600 C.3   300  C8P300      0.0000
     46  C3         8.8190   -7.1980    5.1490 C.3   300  C8P300      0.0000
     47  C2         8.9520   -6.8110    3.7050 C.3   300  C8P300      0.0000
     48  C1         9.0510   -5.2990    3.6120 C.3   300  C8P300      0.0000
@<TRIPOS>BOND
     1    48    47    1
     2    47    46    1
     3    46    45    1
     4    45    44    1
     5    44    43    1
     6    43    42    1
     7    42    41    1
     8    41    40    1
     9    13    14   ar
    10    13    12   ar
    11    14    15   ar
    12    12    11   ar
    13    15    10   ar
    14    40    39    1
    15    11    10   ar
    16    10     9    1
    17    39    38    1
    18     9     8    1
    19    38    37    1
    20    36    37    1
    21    36    35    1
    22     8     7    1
    23     7     6    1
    24    35    33    1
    25    34    33    1
    26     6     5    1
    27    33    31    1
    28     5     4    1
    29    32    31    1
    30    31    17    1
    31     1     2    2
    32    17    16    1
    33    17    18    1
    34     4     3    1
    35     2    16   am
    36     2     3    1
    37    18    19    1
    38    19    20    1
    39    22    21    1
    40    20    30    1
    41    20    21    1
    42    30    27    1
    43    21    23    1
    44    23    25    1
    45    23    24    1
    46    27    25    1
    47    27    28    1
    48    29    28    1
    49    25    26    1
