@<TRIPOS>MOLECULE
3gmm_FUC_A_1.pdb
 10 10 0 0 0
SMALL
GASTEIGER

@<TRIPOS>ATOM
      1  C1         7.1770  -25.6560   16.3040 C.3   299  FUC299      0.1776
      2  C2         6.1040  -26.2300   15.3340 C.3   299  FUC299      0.2141
      3  C3         4.7130  -25.7210   15.7840 C.3   299  FUC299      0.2172
      4  C4         4.7330  -24.1900   15.6170 C.3   299  FUC299      0.2116
      5  C5         5.9320  -23.6240   16.4190 C.3   299  FUC299      0.1483
      6  C6         5.9870  -22.1290   16.1570 C.3   299  FUC299      0.0349
      7  O2         6.1340  -27.6560   15.2750 O.3   299  FUC299     -0.2176
      8  O3         3.5570  -26.4520   15.2530 O.3   299  FUC299     -0.2175
      9  O4         4.8710  -23.7240   14.2730 O.3   299  FUC299     -0.2177
     10  O5         7.1820  -24.2580   16.0490 O.3   299  FUC299     -0.3508
@<TRIPOS>BOND
     1     9     4    1
     2     8     3    1
     3     7     2    1
     4     2     3    1
     5     2     1    1
     6     4     3    1
     7     4     5    1
     8    10     1    1
     9    10     5    1
    10     6     5    1
