@<TRIPOS>MOLECULE
3gmm_NAG_A_1.pdb
 14 14 0 0 0
SMALL
GASTEIGER

@<TRIPOS>ATOM
      1  C1        -0.7830    7.0290   -3.1070 C.3   288  NAG288      0.1665
      2  C2        -1.1780    8.4870   -3.4690 C.3   288  NAG288      0.1576
      3  C3        -2.2440    8.6860   -4.5620 C.3   288  NAG288      0.2069
      4  C4        -3.0970    7.4470   -4.8800 C.3   288  NAG288      0.2134
      5  C5        -2.8340    6.3810   -3.8170 C.3   288  NAG288      0.1809
      6  C6        -3.6040    5.0830   -4.0020 C.3   288  NAG288      0.2141
      7  C7        -0.9700   10.3430   -1.8810 C.2   288  NAG288      0.2420
      8  C8        -1.4960   11.0730   -0.6620 C.3   288  NAG288      0.0964
      9  N2        -1.6150    9.2430   -2.2890 N.am  288  NAG288     -0.2019
     10  O3        -1.5590    9.1520   -5.7080 O.3   288  NAG288     -0.2184
     11  O4        -4.4820    7.7340   -4.9060 O.3   288  NAG288     -0.2176
     12  O5        -1.4650    6.1040   -3.9210 O.3   288  NAG288     -0.3489
     13  O6        -3.0940    4.4840   -5.1620 O.3   288  NAG288     -0.2176
     14  O7         0.0310   10.7550   -2.4770 O.2   288  NAG288     -0.2733
@<TRIPOS>BOND
     1    10     3    1
     2    13     6    1
     3    11     4    1
     4     4     3    1
     5     4     5    1
     6     3     2    1
     7     6     5    1
     8    12     5    1
     9    12     1    1
    10     2     1    1
    11     2     9    1
    12    14     7    2
    13     9     7   am
    14     7     8    1
