@<TRIPOS>MOLECULE
3gmp_FUC_A_1.pdb
 10 10 0 0 0
SMALL
GASTEIGER

@<TRIPOS>ATOM
      1  C1         7.0330  -25.5720   16.2520 C.3   299  FUC299      0.1776
      2  C2         6.0320  -26.1060   15.2410 C.3   299  FUC299      0.2141
      3  C3         4.6320  -25.6630   15.7030 C.3   299  FUC299      0.2172
      4  C4         4.5540  -24.1310   15.5990 C.3   299  FUC299      0.2116
      5  C5         5.7450  -23.5230   16.3610 C.3   299  FUC299      0.1483
      6  C6         5.8800  -22.0530   16.0050 C.3   299  FUC299      0.0349
      7  O2         6.0810  -27.5240   15.2060 O.3   299  FUC299     -0.2176
      8  O3         3.5840  -26.3490   14.9870 O.3   299  FUC299     -0.2175
      9  O4         4.6790  -23.7070   14.2540 O.3   299  FUC299     -0.2177
     10  O5         6.9770  -24.1720   16.0610 O.3   299  FUC299     -0.3508
@<TRIPOS>BOND
     1     9     4    1
     2     8     3    1
     3     7     2    1
     4     2     3    1
     5     2     1    1
     6     4     3    1
     7     4     5    1
     8     6     5    1
     9    10     1    1
    10    10     5    1
