@<TRIPOS>MOLECULE
3gmp_NAG_A_1.pdb
 14 14 0 0 0
SMALL
GASTEIGER

@<TRIPOS>ATOM
      1  C1        -0.7260    6.8360   -2.9360 C.3   288  NAG288      0.1665
      2  C2        -1.1920    8.2940   -3.1600 C.3   288  NAG288      0.1576
      3  C3        -2.3790    8.5000   -4.1130 C.3   288  NAG288      0.2069
      4  C4        -3.0000    7.2210   -4.6770 C.3   288  NAG288      0.2134
      5  C5        -2.7490    6.0870   -3.7030 C.3   288  NAG288      0.1809
      6  C6        -3.4570    4.8100   -4.1150 C.3   288  NAG288      0.2141
      7  C7        -1.0560   10.1870   -1.6100 C.2   288  NAG288      0.2420
      8  C8        -1.4790   10.8250   -0.3070 C.3   288  NAG288      0.0964
      9  N2        -1.5340    8.9700   -1.9000 N.am  288  NAG288     -0.2019
     10  O3        -1.9000    9.3030   -5.1660 O.3   288  NAG288     -0.2184
     11  O4        -4.3910    7.3490   -4.8880 O.3   288  NAG288     -0.2176
     12  O5        -1.3650    5.9160   -3.7870 O.3   288  NAG288     -0.3489
     13  O6        -3.0130    4.5050   -5.4140 O.3   288  NAG288     -0.2176
     14  O7        -0.2850   10.7800   -2.3680 O.2   288  NAG288     -0.2733
@<TRIPOS>BOND
     1    13     6    1
     2    10     3    1
     3    11     4    1
     4     4     3    1
     5     4     5    1
     6     6     5    1
     7     3     2    1
     8    12     5    1
     9    12     1    1
    10     2     1    1
    11     2     9    1
    12    14     7    2
    13     9     7   am
    14     7     8    1
