@<TRIPOS>MOLECULE
3gmp_PBS_A_1.pdb
 42 42 0 0 0
SMALL
GASTEIGER

@<TRIPOS>ATOM
      1  C17        8.8100   -5.9550    3.8120 C.3   300  PBS300      0.0000
      2  C16        9.0340   -6.8980    4.9670 C.3   300  PBS300      0.0000
      3  C15        8.4000   -8.2890    4.8040 C.3   300  PBS300      0.0000
      4  C14        7.6500   -8.5190    6.1290 C.3   300  PBS300      0.0000
      5  C13        7.9420   -9.8150    6.8010 C.3   300  PBS300      0.0000
      6  C12        8.1550   -9.6100    8.2700 C.3   300  PBS300      0.0000
      7  C11        7.1180  -10.4060    9.0220 C.3   300  PBS300      0.0000
      8  C10        6.2480   -9.3790    9.6560 C.3   300  PBS300      0.0000
      9  C9         5.7150   -9.9680   10.9280 C.3   300  PBS300      0.0000
     10  C8         5.7210   -8.7970   11.8510 C.3   300  PBS300      0.0000
     11  C7         4.5880   -9.1930   12.7830 C.3   300  PBS300      0.0000
     12  C6         4.6250   -8.4510   14.1100 C.3   300  PBS300      0.0001
     13  C5         4.3760   -6.9800   13.9100 C.3   300  PBS300      0.0027
     14  C4         4.0240   -6.2580   15.2190 C.3   300  PBS300      0.0356
     15  C3         5.1040   -6.3850   16.2950 C.3   300  PBS300      0.1839
     16  O32        6.3170   -5.9490   15.6620 O.3   300  PBS300     -0.2204
     17  C2         4.8450   -5.5220   17.5240 C.3   300  PBS300      0.2043
     18  O1         4.8760   -4.1310   17.1500 O.3   300  PBS300     -0.2185
     19  C1         3.5100   -5.7160   18.1890 C.3   300  PBS300      0.1576
     20  N          3.4060   -7.1270   18.6060 N.am  300  PBS300     -0.2019
     21  C18        2.2080   -7.6970   18.6130 C.2   300  PBS300      0.2415
     22  O2         1.1800   -7.0800   18.1960 O.2   300  PBS300     -0.2733
     23  C19        2.2700   -9.1200   19.0990 C.3   300  PBS300      0.0868
     24  C20        1.2190   -9.9800   18.4130 C.3   300  PBS300      0.0096
     25  C21        1.8360  -10.2670   17.0440 C.3   300  PBS300      0.0005
     26  C22        0.9760  -11.1760   16.1300 C.3   300  PBS300      0.0000
     27  C23        1.6840  -11.2540   14.7650 C.3   300  PBS300      0.0000
     28  C24        0.8060  -12.1620   13.9260 C.3   300  PBS300      0.0000
     29  C25        1.3720  -12.2960   12.5390 C.3   300  PBS300      0.0000
     30  C          3.4540   -4.8320   19.4860 C.3   300  PBS300      0.1691
     31  OC1        4.5210   -5.1950   20.4060 O.3   300  PBS300     -0.3266
     32  CG1        4.5780   -4.6490   21.7430 C.3   300  PBS300      0.2695
     33  OG         3.4440   -5.1030   22.4480 O.3   300  PBS300     -0.3256
     34  CG         3.4050   -6.5220   22.7940 C.3   300  PBS300      0.1835
     35  CG5        2.1180   -6.7400   23.5970 C.3   300  PBS300      0.2142
     36  OG6        1.0960   -6.0000   22.8940 O.3   300  PBS300     -0.2176
     37  CG4        4.6230   -7.0600   23.5480 C.3   300  PBS300      0.2144
     38  OG5        4.7580   -6.4690   24.8470 O.3   300  PBS300     -0.2176
     39  CG3        5.8540   -6.6450   22.7340 C.3   300  PBS300      0.2198
     40  OG4        7.0140   -6.9860   23.4970 O.3   300  PBS300     -0.2174
     41  CG2        5.8340   -5.1480   22.4550 C.3   300  PBS300      0.2406
     42  OG3        7.0020   -4.7640   21.6850 O.3   300  PBS300     -0.2149
@<TRIPOS>BOND
     1     1     2    1
     2     3     2    1
     3     3     4    1
     4     4     5    1
     5     5     6    1
     6     6     7    1
     7     7     8    1
     8     8     9    1
     9     9    10    1
    10    10    11    1
    11    29    28    1
    12    11    12    1
    13    13    12    1
    14    13    14    1
    15    28    27    1
    16    27    26    1
    17    14    15    1
    18    16    15    1
    19    26    25    1
    20    15    17    1
    21    25    24    1
    22    18    17    1
    23    17    19    1
    24    19    20    1
    25    19    30    1
    26    22    21    2
    27    24    23    1
    28    20    21   am
    29    21    23    1
    30    30    31    1
    31    31    32    1
    32    42    41    1
    33    32    33    1
    34    32    41    1
    35    33    34    1
    36    41    39    1
    37    39    40    1
    38    39    37    1
    39    34    37    1
    40    34    35    1
    41    36    35    1
    42    37    38    1
