@<TRIPOS>MOLECULE
3gmq_FUC_A_1.pdb
 10 10 0 0 0
SMALL
GASTEIGER

@<TRIPOS>ATOM
      1  C1         7.2920  -25.4230   16.5170 C.3   299  FUC299      0.1776
      2  C2         6.2270  -26.0900   15.6160 C.3   299  FUC299      0.2141
      3  C3         4.8350  -25.5060   15.9410 C.3   299  FUC299      0.2172
      4  C4         4.8180  -23.9910   15.6550 C.3   299  FUC299      0.2116
      5  C5         5.9840  -23.3780   16.4590 C.3   299  FUC299      0.1483
      6  C6         6.0380  -21.8480   16.3750 C.3   299  FUC299      0.0349
      7  O2         6.2030  -27.5060   15.8150 O.3   299  FUC299     -0.2176
      8  O3         3.8100  -26.2380   15.2660 O.3   299  FUC299     -0.2175
      9  O4         4.9640  -23.6900   14.2770 O.3   299  FUC299     -0.2177
     10  O5         7.2400  -24.0360   16.1630 O.3   299  FUC299     -0.3508
@<TRIPOS>BOND
     1     9     4    1
     2     8     3    1
     3     2     7    1
     4     2     3    1
     5     2     1    1
     6     4     3    1
     7     4     5    1
     8    10     5    1
     9    10     1    1
    10     6     5    1
