@<TRIPOS>MOLECULE
3gmq_NAG_A_1.pdb
 14 14 0 0 0
SMALL
GASTEIGER

@<TRIPOS>ATOM
      1  C1        -0.9010    6.8410   -3.0620 C.3   288  NAG288      0.1665
      2  C2        -1.2420    8.2160   -3.6890 C.3   288  NAG288      0.1576
      3  C3        -2.4550    8.3270   -4.6220 C.3   288  NAG288      0.2069
      4  C4        -3.1500    7.0230   -4.9880 C.3   288  NAG288      0.2134
      5  C5        -2.8830    5.9960   -3.8850 C.3   288  NAG288      0.1809
      6  C6        -3.4530    4.6470   -4.2580 C.3   288  NAG288      0.2141
      7  C7        -0.6290   10.3270   -2.7390 C.2   288  NAG288      0.2420
      8  C8        -0.8450   11.3920   -1.6890 C.3   288  NAG288      0.0964
      9  N2        -1.4230    9.2560   -2.6810 N.am  288  NAG288     -0.2019
     10  O3        -1.9660    8.9240   -5.7980 O.3   288  NAG288     -0.2184
     11  O4        -4.5420    7.2060   -5.2120 O.3   288  NAG288     -0.2176
     12  O5        -1.4970    5.8200   -3.8190 O.3   288  NAG288     -0.3489
     13  O6        -2.9970    4.3870   -5.5610 O.3   288  NAG288     -0.2176
     14  O7         0.2560   10.4230   -3.6070 O.2   288  NAG288     -0.2733
@<TRIPOS>BOND
     1    10     3    1
     2    13     6    1
     3    11     4    1
     4     4     3    1
     5     4     5    1
     6     3     2    1
     7     6     5    1
     8     5    12    1
     9    12     1    1
    10     2     1    1
    11     2     9    1
    12    14     7    2
    13     7     9   am
    14     7     8    1
