@<TRIPOS>MOLECULE
3gn0_DMO_A_1.pdb
 12 11 0 0 0
SMALL
GASTEIGER

@<TRIPOS>ATOM
      1  CAO      -19.5320  -16.0800   39.3550 C.3   551  DMO551      0.2306
      2  CO       -18.5840  -16.9670   40.2240 C.3   551  DMO551      0.3446
      3  NO       -19.2450  -16.1820   37.9300 N.3   551  DMO551     -0.1169
      4  CBO      -19.2440  -14.6060   39.8070 C.3   551  DMO551      0.0359
      5  CGO      -20.0680  -13.5520   39.0880 C.3   551  DMO551      0.0227
      6  CDO      -20.1120  -12.4070   40.0020 C.3   551  DMO551      0.1094
      7  NEO      -20.9140  -11.3490   39.3390 N.3   551  DMO551     -0.1314
      8  C        -20.9890  -16.5120   39.6210 C.2   551  DMO551      0.3855
      9  O        -21.4790  -16.5030   40.7960 O.co2 551  DMO551     -0.2439
     10  OH       -21.7250  -16.8840   38.6700 O.co2 551  DMO551     -0.2439
     11  F1       -18.7710  -18.3890   39.9350 F     551  DMO551     -0.1962
     12  F2       -18.8670  -16.7650   41.6250 F     551  DMO551     -0.1962
@<TRIPOS>BOND
     1     3     1    1
     2    10     8   ar
     3     5     4    1
     4     5     6    1
     5     7     6    1
     6     1     8    1
     7     1     4    1
     8     1     2    1
     9     8     9   ar
    10    11     2    1
    11     2    12    1
