@<TRIPOS>MOLECULE
3gn1_AX7_A_1.pdb
 10 11 0 0 0
SMALL
GASTEIGER

@<TRIPOS>ATOM
      1  NAF        7.3600  -11.5560   14.5220 N.2   271  AX7271     -0.3232
      2  CAI        6.2590  -12.2810   14.7350 C.ar  271  AX7271      0.1754
      3  CAD        5.9640  -13.6360   14.5210 C.ar  271  AX7271      0.0357
      4  CAB        4.6960  -14.1320   14.8520 C.ar  271  AX7271      0.0028
      5  CAC        3.7390  -13.2690   15.3930 C.ar  271  AX7271      0.0028
      6  CAE        4.0340  -11.9100   15.6040 C.ar  271  AX7271      0.0357
      7  CAJ        5.2960  -11.4200   15.2800 C.ar  271  AX7271      0.1754
      8  NAG        5.8410  -10.2110   15.3760 N.2   271  AX7271     -0.3232
      9  CAH        7.0910  -10.3040   14.9240 C.1   271  AX7271      0.2416
     10  NAA        7.9520   -9.2830   14.8610 N.pl3 271  AX7271     -0.0232
@<TRIPOS>BOND
     1     3     2   ar
     2     3     4   ar
     3     1     2    2
     4     1     9    2
     5     2     7   ar
     6     4     5   ar
     7    10     9    1
     8     9     8    2
     9     7     8    2
    10     7     6   ar
    11     5     6   ar
