@<TRIPOS>MOLECULE
3gn1_NAP_A_1.pdb
 48 52 0 0 0
SMALL
GASTEIGER

@<TRIPOS>ATOM
      1  PA        13.6060   -9.6440   11.9020 P.3   269  NAP269      0.2189
      2  O1A       14.1010  -10.6630   10.9620 O.2   269  NAP269     -0.5170
      3  O2A       13.1260  -10.2620   13.1490 O.3   269  NAP269     -0.4371
      4  O5B       14.6830   -8.5080   12.1160 O.3   269  NAP269     -0.3112
      5  C5B       15.1110   -7.7380   11.0270 C.3   269  NAP269      0.1813
      6  C4B       16.5490   -7.3170   11.3000 C.3   269  NAP269      0.1820
      7  O4B       16.5880   -6.5640   12.4880 O.3   269  NAP269     -0.3136
      8  C3B       17.5420   -8.4380   11.5760 C.3   269  NAP269      0.2157
      9  O3B       18.0370   -9.0170   10.3990 O.3   269  NAP269     -0.2175
     10  C2B       18.6480   -7.7130   12.3660 C.3   269  NAP269      0.2314
     11  O2B       19.8230   -7.4220   11.6170 O.3   269  NAP269     -0.2630
     12  C1B       17.9590   -6.4080   12.7910 C.3   269  NAP269      0.3158
     13  N9A       18.3110   -6.2190   14.2090 N.pl3 269  NAP269     -0.1439
     14  C8A       17.9420   -6.9470   15.3020 C.3   269  NAP269      0.3377
     15  N7A       18.5860   -6.4380   16.3880 N.2   269  NAP269     -0.2095
     16  C5A       19.3700   -5.4160   15.9980 C.2   269  NAP269      0.2526
     17  C6A       20.2440   -4.5650   16.6900 C.2   269  NAP269      0.4393
     18  N6A       20.4280   -4.6590   18.0090 N.pl3 269  NAP269      0.2180
     19  N1A       20.9060   -3.5990   15.9750 N.2   269  NAP269      0.0021
     20  C2A       20.7140   -3.4470   14.5990 C.3   269  NAP269      0.5254
     21  N3A       19.8580   -4.3010   13.9080 N.2   269  NAP269     -0.0055
     22  C4A       19.2070   -5.2710   14.6160 C.2   269  NAP269      0.3518
     23  O3        12.4350   -8.8740   11.1340 O.3   269  NAP269     -0.2703
     24  PN        11.2870   -9.3280   10.1220 P.3   269  NAP269      0.2189
     25  O1N       11.8170   -9.3270    8.7450 O.2   269  NAP269     -0.5170
     26  O2N       10.6380  -10.5230   10.6920 O.3   269  NAP269     -0.4371
     27  O5D       10.2720   -8.0780   10.2560 O.3   269  NAP269     -0.3112
     28  C5D       10.4260   -6.8210    9.6100 C.3   269  NAP269      0.1813
     29  C4D        9.7430   -5.7190   10.4320 C.3   269  NAP269      0.1799
     30  O4D        8.3350   -5.9100   10.4670 O.3   269  NAP269     -0.3327
     31  C3D       10.2320   -5.6950   11.8800 C.3   269  NAP269      0.2158
     32  O3D       10.2310   -4.3690   12.3390 O.3   269  NAP269     -0.2175
     33  C2D        9.1540   -6.4710   12.6100 C.3   269  NAP269      0.2309
     34  O2D        9.0180   -6.0830   13.9510 O.3   269  NAP269     -0.2158
     35  C1D        7.9050   -6.1390   11.8040 C.3   269  NAP269      0.2263
     36  N1N        6.9850   -7.2750   11.9500 N.pl3 269  NAP269     -0.2787
     37  C2N        7.2960   -8.4900   11.3920 C.3   269  NAP269      0.1244
     38  C3N        6.4330   -9.5660   11.5530 C.2   269  NAP269      0.0544
     39  C7N        6.7530  -10.8770   10.9230 C.2   269  NAP269      0.2818
     40  O7N        5.6870  -11.7750   10.8840 O.2   269  NAP269     -0.2670
     41  N7N        7.9640  -11.1530   10.4180 N.am  269  NAP269     -0.0839
     42  C4N        5.2330   -9.4010   12.2510 C.2   269  NAP269      0.0033
     43  C5N        4.9210   -8.1660   12.8230 C.2   269  NAP269      0.0157
     44  C6N        5.8150   -7.1020   12.6670 C.2   269  NAP269      0.0633
     45  P2B       21.0800   -8.4240   11.3240 P.3   269  NAP269      0.5328
     46  O1X       21.9010   -7.7060   10.2580 O.2   269  NAP269     -0.2224
     47  O2X       20.5420   -9.7250   10.7990 O.3   269  NAP269     -0.1145
     48  O3X       21.8680   -8.6830   12.5620 O.3   269  NAP269     -0.1145
@<TRIPOS>BOND
     1    25    24    2
     2    28    27    1
     3    28    29    1
     4    24    27    1
     5    24    26    1
     6    24    23    1
     7    46    45    2
     8     9     8    1
     9    41    39   am
    10    29    30    1
    11    29    31    1
    12    30    35    1
    13    47    45    1
    14    40    39    2
    15    39    38    1
    16     2     1    2
    17     5     6    1
    18     5     4    1
    19    23     1    1
    20     6     8    1
    21     6     7    1
    22    45    11    1
    23    45    48    1
    24    37    38    1
    25    37    36    1
    26    38    42    2
    27     8    10    1
    28    11    10    1
    29    35    36    1
    30    35    33    1
    31    31    32    1
    32    31    33    1
    33     1     4    1
    34     1     3    1
    35    36    44    1
    36    42    43    1
    37    10    12    1
    38     7    12    1
    39    33    34    1
    40    44    43    2
    41    12    13    1
    42    21    20    1
    43    21    22    2
    44    13    22    1
    45    13    14    1
    46    20    19    1
    47    22    16    1
    48    14    15    1
    49    19    17    2
    50    16    15    2
    51    16    17    1
    52    17    18    1
