@<TRIPOS>MOLECULE
3gn2_AX8_A_1.pdb
 19 21 0 0 0
SMALL
GASTEIGER

@<TRIPOS>ATOM
      1  CAJ        1.2150  -13.8160   15.0220 C.ar  270  AX8270      0.0096
      2  CAO       -0.0340  -14.3690   15.2750 C.ar  270  AX8270      0.0679
      3 CLAC       -0.6510  -15.5350   14.1350 Cl    270  AX8270     -0.0814
      4  CAN       -0.7630  -13.9880   16.4100 C.ar  270  AX8270      0.0682
      5 CLAB       -2.3260  -14.6740   16.7430 Cl    270  AX8270     -0.0814
      6  CAG       -0.2340  -13.0430   17.2900 C.ar  270  AX8270      0.0120
      7  CAF        1.0270  -12.4950   17.0280 C.ar  270  AX8270     -0.0017
      8  CAM        1.7510  -12.8680   15.8890 C.ar  270  AX8270     -0.0011
      9  CAK        3.1340  -12.2690   15.5630 C.3   270  AX8270      0.1259
     10  NAS        3.4580  -11.2150   16.5370 N.pl3 270  AX8270     -0.2418
     11  CAR        4.0590  -11.4200   17.7020 C.2   270  AX8270      0.0809
     12  CAI        4.5500  -12.5750   18.3140 C.2   270  AX8270      0.0169
     13  CAE        5.1480  -12.4650   19.5710 C.2   270  AX8270     -0.0028
     14  CAD        5.2480  -11.2150   20.1930 C.2   270  AX8270     -0.0186
     15  CAH        4.7600  -10.0570   19.5730 C.3   270  AX8270      0.0863
     16  CAQ        4.1610  -10.1700   18.3130 C.2   270  AX8270      0.1300
     17  NAL        3.6060   -9.2640   17.4940 N.2   270  AX8270     -0.3732
     18  CAP        3.1810   -9.9170   16.4090 C.cat 270  AX8270      0.2818
     19  NAA        2.5710   -9.3390   15.3670 N.pl3 270  AX8270     -0.0777
@<TRIPOS>BOND
     1     3     2    1
     2     1     2   ar
     3     1     8   ar
     4     2     4   ar
     5    19    18    1
     6     9     8    1
     7     9    10    1
     8     8     7   ar
     9    18    10    1
    10    18    17    2
    11     4     5    1
    12     4     6   ar
    13    10    11    1
    14     7     6   ar
    15    17    16    2
    16    11    16    1
    17    11    12    2
    18    16    15    1
    19    12    13    1
    20    13    14    2
    21    15    14    1
