@<TRIPOS>MOLECULE
3gn2_NAP_A_1.pdb
 48 52 0 0 0
SMALL
GASTEIGER

@<TRIPOS>ATOM
      1  PA        13.7860   -9.6280   11.9680 P.3   269  NAP269      0.2189
      2  O1A       14.2790  -10.6310   11.0000 O.2   269  NAP269     -0.5170
      3  O2A       13.3360  -10.2090   13.2410 O.3   269  NAP269     -0.4371
      4  O5B       14.8950   -8.5130   12.2780 O.3   269  NAP269     -0.3112
      5  C5B       15.3150   -7.6730   11.2260 C.3   269  NAP269      0.1813
      6  C4B       16.7620   -7.2740   11.4520 C.3   269  NAP269      0.1820
      7  O4B       16.8510   -6.4980   12.6440 O.3   269  NAP269     -0.3136
      8  C3B       17.7300   -8.4360   11.6500 C.3   269  NAP269      0.2157
      9  O3B       18.1280   -9.0310   10.4270 O.3   269  NAP269     -0.2175
     10  C2B       18.8690   -7.7570   12.4030 C.3   269  NAP269      0.2314
     11  O2B       19.9810   -7.4790   11.5660 O.3   269  NAP269     -0.2630
     12  C1B       18.2330   -6.4290   12.8840 C.3   269  NAP269      0.3158
     13  N9A       18.5900   -6.2530   14.2910 N.pl3 269  NAP269     -0.1439
     14  C8A       18.2560   -7.0280   15.3720 C.3   269  NAP269      0.3377
     15  N7A       18.8960   -6.5230   16.4670 N.2   269  NAP269     -0.2095
     16  C5A       19.6350   -5.4470   16.0830 C.2   269  NAP269      0.2526
     17  C6A       20.4890   -4.5620   16.7710 C.2   269  NAP269      0.4393
     18  N6A       20.7200   -4.6800   18.0880 N.pl3 269  NAP269      0.2180
     19  N1A       21.0930   -3.5420   16.0590 N.2   269  NAP269      0.0021
     20  C2A       20.8930   -3.4110   14.6980 C.3   269  NAP269      0.5254
     21  N3A       20.0480   -4.2830   14.0120 N.2   269  NAP269     -0.0055
     22  C4A       19.4500   -5.2790   14.7130 C.2   269  NAP269      0.3518
     23  O3        12.6040   -8.8100   11.2800 O.3   269  NAP269     -0.2703
     24  PN        11.4310   -9.2870   10.3000 P.3   269  NAP269      0.2189
     25  O1N       11.9870   -9.2620    8.9270 O.2   269  NAP269     -0.5170
     26  O2N       10.7880  -10.4900   10.8870 O.3   269  NAP269     -0.4371
     27  O5D       10.4000   -8.0690   10.4650 O.3   269  NAP269     -0.3112
     28  C5D       10.6920   -6.8030    9.8870 C.3   269  NAP269      0.1813
     29  C4D       10.0380   -5.7030   10.7330 C.3   269  NAP269      0.1799
     30  O4D        8.6410   -5.9630   10.7860 O.3   269  NAP269     -0.3327
     31  C3D       10.5260   -5.6600   12.1830 C.3   269  NAP269      0.2158
     32  O3D       10.5410   -4.3190   12.6220 O.3   269  NAP269     -0.2175
     33  C2D        9.4540   -6.4290   12.9330 C.3   269  NAP269      0.2309
     34  O2D        9.3140   -6.0550   14.2980 O.3   269  NAP269     -0.2158
     35  C1D        8.2180   -6.0920   12.1210 C.3   269  NAP269      0.2263
     36  N1N        7.2100   -7.1440   12.2640 N.pl3 269  NAP269     -0.2787
     37  C2N        7.4270   -8.3680   11.6900 C.3   269  NAP269      0.1244
     38  C3N        6.4860   -9.3790   11.8400 C.2   269  NAP269      0.0544
     39  C7N        6.7350  -10.7210   11.2070 C.2   269  NAP269      0.2818
     40  O7N        5.7100  -11.6620   11.1930 O.2   269  NAP269     -0.2670
     41  N7N        7.9150  -11.0260   10.6720 N.am  269  NAP269     -0.0839
     42  C4N        5.3090   -9.1250   12.5620 C.2   269  NAP269      0.0033
     43  C5N        5.1000   -7.8670   13.1370 C.2   269  NAP269      0.0157
     44  C6N        6.0660   -6.8740   12.9810 C.2   269  NAP269      0.0633
     45  P2B       21.1980   -8.5220   11.3600 P.3   269  NAP269      0.5328
     46  O1X       22.1450   -7.8810   10.3730 O.2   269  NAP269     -0.2224
     47  O2X       20.5680   -9.7830   10.8010 O.3   269  NAP269     -0.1145
     48  O3X       21.8690   -8.8240   12.6850 O.3   269  NAP269     -0.1145
@<TRIPOS>BOND
     1    25    24    2
     2    28    27    1
     3    28    29    1
     4    24    27    1
     5    24    26    1
     6    24    23    1
     7    46    45    2
     8     9     8    1
     9    41    39   am
    10    29    30    1
    11    29    31    1
    12    30    35    1
    13    47    45    1
    14     2     1    2
    15    40    39    2
    16    39    38    1
    17     5     6    1
    18     5     4    1
    19    23     1    1
    20    45    11    1
    21    45    48    1
    22     6     8    1
    23     6     7    1
    24    11    10    1
    25     8    10    1
    26    37    38    1
    27    37    36    1
    28    38    42    2
    29     1     4    1
    30     1     3    1
    31    35    36    1
    32    35    33    1
    33    31    32    1
    34    31    33    1
    35    36    44    1
    36    10    12    1
    37    42    43    1
    38     7    12    1
    39    12    13    1
    40    33    34    1
    41    44    43    2
    42    21    20    1
    43    21    22    2
    44    13    22    1
    45    13    14    1
    46    20    19    1
    47    22    16    1
    48    14    15    1
    49    19    17    2
    50    16    15    2
    51    16    17    1
    52    17    18    1
