@<TRIPOS>MOLECULE
3gn7_3GN_A_1.pdb
 18 20 0 0 0
SMALL
GASTEIGER

@<TRIPOS>ATOM
      1  C4        26.5090   65.4040    9.3900 C.ar  900  3GN900      0.1782
      2  C5        26.9340   66.1890   10.4440 C.ar  900  3GN900      0.0897
      3  C6        28.2340   66.0460   10.8660 C.ar  900  3GN900      0.0074
      4  C8        25.4300   64.4350    7.8210 C.1   900  3GN900      0.1264
      5  C10       26.0620   67.1560   11.1150 C.2   900  3GN900      0.2868
      6  C13       24.4130   63.9970    6.8530 C.3   900  3GN900      0.1535
      7  C15       23.1140   65.8710    6.0270 C.3   900  3GN900      0.0899
      8  C17       24.8540   64.2600    5.4360 C.3   900  3GN900      0.0338
      9  C1        29.0900   65.1440   10.2740 C.ar  900  3GN900      0.0030
     10  C2        28.7020   64.3570    9.2150 C.ar  900  3GN900      0.0357
     11  C3        27.4010   64.5340    8.8050 C.ar  900  3GN900      0.1740
     12  N7        26.6920   63.9290    7.8070 N.2   900  3GN900     -0.3398
     13  N9        25.2860   65.3350    8.7730 N.2   900  3GN900     -0.3396
     14  N11       24.7270   66.9820   10.8570 N.am  900  3GN900     -0.0836
     15  O12       26.5500   68.0350   11.8080 O.2   900  3GN900     -0.2666
     16  N14       23.1610   64.7760    7.0210 N.3   900  3GN900     -0.2048
     17  C16       24.0620   65.4430    4.9320 C.3   900  3GN900      0.0214
     18  C18       24.0960   62.5400    7.0200 C.3   900  3GN900      0.0348
@<TRIPOS>BOND
     1    17     8    1
     2    17     7    1
     3     8     6    1
     4     7    16    1
     5     6    18    1
     6     6    16    1
     7     6     4    1
     8    12     4    2
     9    12    11    2
    10     4    13    2
    11    13     1    2
    12    11    10   ar
    13    11     1   ar
    14    10     9   ar
    15     1     2   ar
    16     9     3   ar
    17     2     3   ar
    18     2     5    1
    19    14     5   am
    20     5    15    2
