@<TRIPOS>MOLECULE
3gn8_DEX_A_1.pdb
 28 31 0 0 0
SMALL
GASTEIGER

@<TRIPOS>ATOM
      1  C1       -35.4540  -13.9880   -9.3290 C.2   247  DEX247     -0.0171
      2  C2       -34.4210  -13.0500   -9.3160 C.2   247  DEX247      0.0378
      3  C3       -33.6040  -12.9130   -8.1790 C.2   247  DEX247      0.1948
      4  C4       -33.8480  -13.7420   -7.0720 C.2   247  DEX247      0.0339
      5  C5       -34.8650  -14.6820   -7.0980 C.2   247  DEX247     -0.0354
      6  C6       -35.0430  -15.4770   -5.9300 C.3   247  DEX247      0.0226
      7  C7       -36.5220  -15.4750   -5.4290 C.3   247  DEX247      0.0071
      8  C8       -37.4950  -15.7030   -6.6240 C.3   247  DEX247      0.0336
      9  C9       -37.1680  -14.6930   -7.7620 C.3   247  DEX247      0.1679
     10  C10      -35.7090  -14.8700   -8.2350 C.3   247  DEX247      0.0639
     11  C11      -38.2020  -14.7620   -8.9250 C.3   247  DEX247      0.1823
     12  C12      -39.6650  -14.6430   -8.4580 C.3   247  DEX247      0.0385
     13  C13      -39.9560  -15.6510   -7.3210 C.3   247  DEX247      0.0350
     14  C14      -38.9330  -15.4200   -6.1790 C.3   247  DEX247      0.0055
     15  C15      -39.4580  -16.2690   -4.9950 C.3   247  DEX247      0.0031
     16  C16      -41.0130  -16.1660   -5.1920 C.3   247  DEX247      0.0349
     17  C17      -41.2420  -15.3720   -6.5030 C.3   247  DEX247      0.1795
     18  C18      -39.9500  -17.0860   -7.8730 C.3   247  DEX247      0.0030
     19  C19      -35.4180  -16.3060   -8.7560 C.3   247  DEX247      0.0112
     20  C20      -42.5190  -15.8160   -7.1840 C.2   247  DEX247      0.2109
     21  C21      -43.2140  -14.7770   -8.0550 C.3   247  DEX247      0.2484
     22  C22      -41.6490  -15.4550   -4.0010 C.3   247  DEX247      0.0030
     23  F1       -37.2360  -13.4080   -7.1820 F     247  DEX247     -0.2368
     24  O1       -32.6930  -12.0770   -8.1280 O.2   247  DEX247     -0.2866
     25  O2       -38.0400  -15.9870   -9.6690 O.3   247  DEX247     -0.2203
     26  O3       -41.4050  -13.9930   -6.2050 O.3   247  DEX247     -0.2181
     27  O4       -42.9830  -16.9430   -7.0360 O.2   247  DEX247     -0.2907
     28  O5       -44.0240  -15.4790   -8.9860 O.3   247  DEX247     -0.2118
@<TRIPOS>BOND
     1    25    11    1
     2     1     2    2
     3     1    10    1
     4     2     3    1
     5    28    21    1
     6    11    12    1
     7    11     9    1
     8    19    10    1
     9    12    13    1
    10    10     9    1
    11    10     5    1
    12     3    24    2
    13     3     4    1
    14    21    20    1
    15    18    13    1
    16     9    23    1
    17     9     8    1
    18    13    17    1
    19    13    14    1
    20    20    27    2
    21    20    17    1
    22     5     4    2
    23     5     6    1
    24     8    14    1
    25     8     7    1
    26    17    26    1
    27    17    16    1
    28    14    15    1
    29     6     7    1
    30    16    15    1
    31    16    22    1
