@<TRIPOS>MOLECULE
3gnc_QQQ_A_1.pdb
 16 17 0 0 0
SMALL
GASTEIGER

@<TRIPOS>ATOM
      1  O11       -5.6100   38.8830   -2.1290 O.3   397  QQQ397     -0.0612
      2  S10       -4.8540   38.6760   -0.9310 S.3   397  QQQ397      0.0842
      3  O13       -5.3460   39.5620    0.0900 O.3   397  QQQ397     -0.0612
      4  O12       -3.2820   38.9790   -1.1470 O.3   397  QQQ397     -0.0612
      5  C8        -5.0740   37.1210   -0.4120 C.2   397  QQQ397      0.3027
      6  N7        -5.5700   36.9230    0.8280 N.2   397  QQQ397     -0.3687
      7  C3        -5.6240   35.5820    0.9520 C.2   397  QQQ397      0.1474
      8  C4        -6.0370   34.7290    1.9670 C.2   397  QQQ397      0.0292
      9  C5        -5.9650   33.3530    1.7720 C.2   397  QQQ397     -0.0187
     10  C6        -5.4880   32.8110    0.5750 C.3   397  QQQ397      0.0535
     11  C1        -5.0620   33.6250   -0.4680 C.2   397  QQQ397     -0.0039
     12  C2        -5.1150   35.0060   -0.3260 C.2   397  QQQ397      0.0804
     13  N9        -4.7920   36.0200   -1.1310 N.pl3 397  QQQ397     -0.2473
     14  C14       -4.2110   35.8770   -2.5120 C.3   397  QQQ397      0.0809
     15  C15       -5.1360   35.1220   -3.4640 C.3   397  QQQ397      0.0219
     16  C16       -2.8720   35.1440   -2.4100 C.3   397  QQQ397      0.0219
@<TRIPOS>BOND
     1    15    14    1
     2    14    16    1
     3    14    13    1
     4     1     2    1
     5     4     2    1
     6    13     5    1
     7    13    12    1
     8     2     5    1
     9     2     3    1
    10    11    12    2
    11    11    10    1
    12     5     6    2
    13    12     7    1
    14    10     9    1
    15     6     7    2
    16     7     8    1
    17     9     8    2
