@<TRIPOS>MOLECULE
3gnd_5RP_A_1.pdb
 14 13 0 0 0
SMALL
GASTEIGER

@<TRIPOS>ATOM
      1  C2        58.3450 -124.1950 -105.8520 C.3   984  5RP984      0.2486
      2  C3        58.0260 -125.6350 -106.2810 C.2   984  5RP984      0.2165
      3  C5        58.1440 -126.7330 -105.2210 C.3   984  5RP984      0.2439
      4  O13       59.3720 -127.4140 -105.2400 O.3   984  5RP984     -0.2122
      5  C6        56.9120 -127.6260 -105.1680 C.3   984  5RP984      0.2194
      6  O14       55.7270 -126.9620 -105.5420 O.3   984  5RP984     -0.2172
      7  C7        56.8450 -128.4940 -103.9110 C.3   984  5RP984      0.1896
      8  O8        56.3730 -129.7920 -104.0930 O.3   984  5RP984     -0.2674
      9  P9        57.4110 -131.0540 -104.1720 P.3   984  5RP984      0.5327
     10  O12       58.8820 -130.5910 -103.6460 O.3   984  5RP984     -0.1145
     11  O11       56.8100 -132.2270 -103.2090 O.3   984  5RP984     -0.1145
     12  O10       57.5160 -131.5570 -105.5590 O.2   984  5RP984     -0.2224
     13  O4        57.5320 -125.8770 -107.3420 O.2   984  5RP984     -0.2905
     14  O1        59.0120 -123.3410 -106.7430 O.3   984  5RP984     -0.2118
@<TRIPOS>BOND
     1    13     2    2
     2    14     1    1
     3     2     1    1
     4     2     3    1
     5    12     9    2
     6     6     5    1
     7     4     3    1
     8     3     5    1
     9     5     7    1
    10     9     8    1
    11     9    10    1
    12     9    11    1
    13     8     7    1
