@<TRIPOS>MOLECULE
3gni_ATP_B_1.pdb
 31 33 0 0 0
SMALL
GASTEIGER

@<TRIPOS>ATOM
      1  PG         7.6870  -24.9020  -28.7440 P.3     1  ATP1        0.5373
      2  O1G        7.4950  -25.7190  -30.0120 O.2     1  ATP1       -0.2221
      3  O2G        7.9110  -25.7680  -27.5190 O.3     1  ATP1       -0.1143
      4  O3G        8.6570  -23.7360  -28.8500 O.3     1  ATP1       -0.1143
      5  PB         5.6810  -23.4770  -27.2620 P.3     1  ATP1        0.2277
      6  O1B        5.7760  -24.4610  -26.1300 O.3     1  ATP1       -0.4368
      7  O2B        6.2850  -22.1060  -27.1100 O.2     1  ATP1       -0.5168
      8  O3B        6.2500  -24.1720  -28.5960 O.3     1  ATP1       -0.2258
      9  PA         3.4570  -21.9910  -28.3390 P.3     1  ATP1        0.2189
     10  O1A        2.9500  -21.0470  -27.2800 O.3     1  ATP1       -0.4371
     11  O2A        4.3730  -21.4400  -29.3970 O.2     1  ATP1       -0.5170
     12  O3A        4.1090  -23.2840  -27.6140 O.3     1  ATP1       -0.2700
     13  O5'        2.2020  -22.7030  -29.0190 O.3     1  ATP1       -0.3112
     14  C5'        2.4150  -23.6630  -30.0590 C.3     1  ATP1        0.1813
     15  C4'        1.6320  -23.2520  -31.2880 C.3     1  ATP1        0.1821
     16  O4'        0.2430  -23.1900  -30.9510 O.3     1  ATP1       -0.3135
     17  C3'        1.9430  -21.8570  -31.8080 C.3     1  ATP1        0.2184
     18  O3'        3.0930  -21.8010  -32.6480 O.3     1  ATP1       -0.2174
     19  C2'        0.6770  -21.5450  -32.5750 C.3     1  ATP1        0.2570
     20  O2'        0.6710  -22.2080  -33.8530 O.3     1  ATP1       -0.2130
     21  C1'       -0.4020  -22.1390  -31.6810 C.3     1  ATP1        0.3186
     22  N9        -0.8740  -21.0390  -30.8010 N.pl3   1  ATP1       -0.1439
     23  C8        -0.3880  -20.7010  -29.5810 C.3     1  ATP1        0.3377
     24  N7        -1.0410  -19.6180  -29.0780 N.2     1  ATP1       -0.2095
     25  C5        -1.9770  -19.2340  -29.9780 C.2     1  ATP1        0.2526
     26  C6        -3.0070  -18.1690  -30.0730 C.2     1  ATP1        0.4393
     27  N6        -3.2000  -17.2510  -29.0880 N.pl3   1  ATP1        0.2180
     28  N1        -3.7690  -18.1380  -31.1860 N.2     1  ATP1        0.0021
     29  C2        -3.6050  -19.0210  -32.1920 C.3     1  ATP1        0.5254
     30  N3        -2.6910  -20.0090  -32.1770 N.2     1  ATP1       -0.0055
     31  C4        -1.8560  -20.1670  -31.1140 C.2     1  ATP1        0.3518
@<TRIPOS>BOND
     1    20    19    1
     2    18    17    1
     3    19    17    1
     4    19    21    1
     5    29    30    1
     6    29    28    1
     7    30    31    2
     8    17    15    1
     9    21    16    1
    10    21    22    1
    11    15    16    1
    12    15    14    1
    13    28    26    2
    14    31    22    1
    15    31    25    1
    16    22    23    1
    17    26    25    1
    18    26    27    1
    19    14    13    1
    20     2     1    2
    21    25    24    2
    22    23    24    1
    23    11     9    2
    24    13     9    1
    25     4     1    1
    26     1     8    1
    27     1     3    1
    28     8     5    1
    29     9    12    1
    30     9    10    1
    31    12     5    1
    32     5     7    2
    33     5     6    1
