@<TRIPOS>MOLECULE
3gnp_SOG_A_1.pdb
 20 20 0 0 0
SMALL
GASTEIGER

@<TRIPOS>ATOM
      1  C1        -7.5270    4.7410   28.3120 C.3   1001  SOG1001     0.1955
      2  C2        -6.9780    4.7320   29.7590 C.3   1001  SOG1001     0.2219
      3  C3        -8.0470    5.2300   30.7260 C.3   1001  SOG1001     0.2181
      4  C4        -8.8540    6.2650   29.9310 C.3   1001  SOG1001     0.2143
      5  C5        -9.8150    5.3930   29.1410 C.3   1001  SOG1001     0.1820
      6  C6       -10.9400    6.0860   28.3820 C.3   1001  SOG1001     0.2142
      7  C1'       -7.6690    5.7150   25.8240 C.3   1001  SOG1001     0.0603
      8  C2'       -6.6510    5.9700   24.7230 C.3   1001  SOG1001     0.0164
      9  C3'       -7.2430    6.7900   23.5850 C.3   1001  SOG1001     0.0266
     10  C4'       -6.3020    6.6480   22.4170 C.2   1001  SOG1001    -0.0307
     11  C5'       -6.4400    5.6660   21.5220 C.2   1001  SOG1001    -0.0307
     12  C6'       -7.5590    4.6460   21.6070 C.3   1001  SOG1001     0.0257
     13  C7'       -6.9910    3.2660   21.3510 C.3   1001  SOG1001     0.0047
     14  C8'       -7.4890    2.2810   22.3670 C.3   1001  SOG1001     0.0004
     15  S1        -6.8050    6.0710   27.3250 S.3   1001  SOG1001    -0.1094
     16  O2        -6.5120    3.4160   30.1440 O.3   1001  SOG1001    -0.2167
     17  O3        -7.4190    5.7570   31.8860 O.3   1001  SOG1001    -0.2175
     18  O4        -9.5130    7.2800   30.6850 O.3   1001  SOG1001    -0.2176
     19  O5        -8.9800    4.6570   28.2350 O.3   1001  SOG1001    -0.3398
     20  O6       -10.4130    7.0770   27.4940 O.3   1001  SOG1001    -0.2176
@<TRIPOS>BOND
     1    13    12    1
     2    13    14    1
     3    11    12    1
     4    11    10    2
     5    10     9    1
     6     9     8    1
     7     8     7    1
     8     7    15    1
     9    15     1    1
    10    20     6    1
    11    19     1    1
    12    19     5    1
    13     1     2    1
    14     6     5    1
    15     5     4    1
    16     2    16    1
    17     2     3    1
    18     4    18    1
    19     4     3    1
    20     3    17    1
