@<TRIPOS>MOLECULE
3gnq_NAD_B_1.pdb
 44 48 0 0 0
SMALL
GASTEIGER

@<TRIPOS>ATOM
      1  PA        23.5280   -3.4810    8.4950 P.3   901  NAD901      0.2189
      2  O1A       23.3500   -4.7440    7.7500 O.2   901  NAD901     -0.5170
      3  O2A       22.7850   -2.3450    7.9190 O.3   901  NAD901     -0.4371
      4  O5B       25.0900   -3.1020    8.6020 O.3   901  NAD901     -0.3112
      5  C5B       26.0870   -4.0700    8.8390 C.3   901  NAD901      0.1813
      6  C4B       27.3360   -3.6630    8.0600 C.3   901  NAD901      0.1821
      7  O4B       28.3930   -4.5290    8.4260 O.3   901  NAD901     -0.3135
      8  C3B       27.1490   -3.7850    6.5460 C.3   901  NAD901      0.2184
      9  O3B       27.6560   -2.6510    5.8740 O.3   901  NAD901     -0.2174
     10  C2B       27.9170   -5.0390    6.1860 C.3   901  NAD901      0.2570
     11  O2B       28.4390   -5.0410    4.8760 O.3   901  NAD901     -0.2130
     12  C1B       29.0010   -5.0200    7.2500 C.3   901  NAD901      0.3186
     13  N9A       29.6200   -6.3260    7.4930 N.pl3 901  NAD901     -0.1439
     14  C8A       29.0490   -7.5630    7.3930 C.3   901  NAD901      0.3377
     15  N7A       29.9870   -8.4840    7.7150 N.2   901  NAD901     -0.2095
     16  C5A       31.1390   -7.8480    8.0140 C.2   901  NAD901      0.2526
     17  C6A       32.3860   -8.3190    8.3970 C.2   901  NAD901      0.4393
     18  N6A       32.5440   -9.6140    8.6490 N.pl3 901  NAD901      0.2180
     19  N1A       33.3930   -7.4120    8.6490 N.2   901  NAD901      0.0021
     20  C2A       33.1680   -6.0500    8.5230 C.3   901  NAD901      0.5254
     21  N3A       31.9210   -5.5900    8.1360 N.2   901  NAD901     -0.0055
     22  C4A       30.9240   -6.4840    7.8820 C.2   901  NAD901      0.3518
     23  O3        23.0500   -3.7600   10.0170 O.3   901  NAD901     -0.2703
     24  PN        22.6590   -2.5450   11.0160 P.3   901  NAD901      0.2189
     25  O1N       21.2320   -2.1880   10.8350 O.2   901  NAD901     -0.5170
     26  O2N       23.6690   -1.4700   10.9080 O.3   901  NAD901     -0.4371
     27  O5D       22.8140   -3.3140   12.4180 O.3   901  NAD901     -0.3112
     28  C5D       24.0690   -3.7660   12.8670 C.3   901  NAD901      0.1813
     29  C4D       23.9980   -4.0930   14.3520 C.3   901  NAD901      0.1799
     30  O4D       23.4200   -3.0170   15.0780 O.3   901  NAD901     -0.3327
     31  C3D       23.1350   -5.3210   14.6330 C.3   901  NAD901      0.2158
     32  O3D       23.7370   -6.0850   15.6630 O.3   901  NAD901     -0.2175
     33  C2D       21.8070   -4.7480   15.0820 C.3   901  NAD901      0.2309
     34  O2D       21.0450   -5.6100   15.9050 O.3   901  NAD901     -0.2158
     35  C1D       22.2930   -3.5000   15.8060 C.3   901  NAD901      0.2263
     36  N1N       21.2890   -2.4320   15.9150 N.pl3 901  NAD901     -0.2787
     37  C2N       20.5100   -2.1010   14.8510 C.3   901  NAD901      0.1244
     38  C3N       19.5740   -1.0800   15.0010 C.2   901  NAD901      0.0544
     39  C7N       18.7530   -0.6320   13.8350 C.2   901  NAD901      0.2818
     40  O7N       17.4760   -0.1300   14.1170 O.2   901  NAD901     -0.2670
     41  N7N       19.2470   -0.7270   12.5990 N.am  901  NAD901     -0.0839
     42  C4N       19.4370   -0.4020   16.2040 C.2   901  NAD901      0.0033
     43  C5N       20.2460   -0.7560   17.2680 C.2   901  NAD901      0.0157
     44  C6N       21.1670   -1.7810   17.1130 C.2   901  NAD901      0.0633
@<TRIPOS>BOND
     1    11    10    1
     2     9     8    1
     3    10     8    1
     4    10    12    1
     5     8     6    1
     6    12    13    1
     7    12     7    1
     8    14    13    1
     9    14    15    1
    10    13    22    1
    11    15    16    2
    12     2     1    2
    13    22    16    1
    14    22    21    2
    15     3     1    1
    16    16    17    1
    17     6     7    1
    18     6     5    1
    19    21    20    1
    20    17    18    1
    21    17    19    2
    22     1     4    1
    23     1    23    1
    24    20    19    1
    25     4     5    1
    26    23    24    1
    27    25    24    2
    28    26    24    1
    29    24    27    1
    30    27    28    1
    31    41    39   am
    32    28    29    1
    33    39    40    2
    34    39    38    1
    35    29    31    1
    36    29    30    1
    37    31    33    1
    38    31    32    1
    39    37    38    1
    40    37    36    1
    41    38    42    2
    42    30    35    1
    43    33    35    1
    44    33    34    1
    45    35    36    1
    46    36    44    1
    47    42    43    1
    48    44    43    2
