@<TRIPOS>MOLECULE
3gnr_G2F_A_1.pdb
 11 11 0 0 0
SMALL
GASTEIGER

@<TRIPOS>ATOM
      1  C1        -4.6650   -1.9140  -18.5860 C.3   1001  G2F1001     0.1801
      2  C2        -5.1900   -2.5540  -19.8710 C.3   1001  G2F1001     0.2230
      3  C3        -6.4770   -3.3270  -19.5900 C.3   1001  G2F1001     0.2194
      4  C4        -6.1480   -4.3630  -18.5210 C.3   1001  G2F1001     0.2144
      5  C5        -5.6470   -3.6690  -17.2440 C.3   1001  G2F1001     0.1810
      6  C6        -5.2920   -4.6150  -16.0970 C.3   1001  G2F1001     0.2141
      7  O3        -6.9420   -3.9890  -20.7830 O.3   1001  G2F1001    -0.2173
      8  O4        -7.2790   -5.1650  -18.2390 O.3   1001  G2F1001    -0.2176
      9  O5        -4.4660   -2.8970  -17.5630 O.3   1001  G2F1001    -0.3479
     10  O6        -4.2580   -5.5290  -16.4950 O.3   1001  G2F1001    -0.2176
     11  F2        -5.4110   -1.5410  -20.7630 F     1001  G2F1001    -0.2317
@<TRIPOS>BOND
     1     7     3    1
     2    11     2    1
     3     2     3    1
     4     2     1    1
     5     3     4    1
     6     1     9    1
     7     4     8    1
     8     4     5    1
     9     9     5    1
    10     5     6    1
    11    10     6    1
