@<TRIPOS>MOLECULE
3gnv_XNZ_A_1.pdb
 37 41 0 0 0
SMALL
GASTEIGER

@<TRIPOS>ATOM
      1 CL37       28.0250   43.8540   95.6130 Cl    579  XNZ579     -0.0824
      2  C17       28.2390   44.2750   97.2560 C.ar  579  XNZ579      0.0583
      3  C18       28.7080   43.2810   98.0920 C.ar  579  XNZ579      0.0480
      4  C19       28.9080   43.5520   99.4270 C.ar  579  XNZ579      0.1399
      5  O22       29.3790   42.5370  100.2030 O.3   579  XNZ579     -0.4706
      6  C23       29.5280   42.7140  101.6100 C.3   579  XNZ579      0.2320
      7  C24       28.2000   42.9560  102.2890 C.ar  579  XNZ579      0.0212
      8  C29       28.1670   43.7540  103.4370 C.ar  579  XNZ579     -0.0007
      9  C28       26.9520   43.9810  104.0910 C.ar  579  XNZ579     -0.0002
     10  C27       25.7770   43.4160  103.6020 C.ar  579  XNZ579     -0.0000
     11  C26       25.8140   42.6170  102.4510 C.ar  579  XNZ579     -0.0002
     12  C25       27.0220   42.3850  101.7870 C.ar  579  XNZ579     -0.0007
     13  C20       28.6270   44.8360   99.9180 C.ar  579  XNZ579      0.0367
     14  C21       28.1510   45.8260   99.0810 C.ar  579  XNZ579      0.0013
     15  C16       27.9440   45.5570   97.7350 C.ar  579  XNZ579      0.0073
     16  C8        27.4310   46.6080   96.7580 C.3   579  XNZ579      0.1125
     17  N7        28.5230   46.8510   95.7930 N.am  579  XNZ579     -0.2681
     18  C30       28.1790   47.4820   94.5800 C.2   579  XNZ579      0.2268
     19  O32       27.1990   47.0260   94.0090 O.2   579  XNZ579     -0.2748
     20  C31       28.8860   48.6670   93.9430 C.3   579  XNZ579      0.0949
     21  C4        29.8540   47.0500   96.3000 C.3   579  XNZ579      0.1535
     22  C3        30.8730   46.1880   95.8880 C.2   579  XNZ579      0.0007
     23  C2        32.1730   46.2980   96.3650 C.2   579  XNZ579      0.0008
     24  C9        27.0000   47.8950   97.4920 C.3   579  XNZ579      0.1278
     25  C12       25.5380   48.0550   97.7550 C.2   579  XNZ579      0.1585
     26  O36       24.7700   47.1310   97.5660 O.2   579  XNZ579     -0.2956
     27  C13       25.0180   49.3810   98.2680 C.3   579  XNZ579      0.0654
     28  C14       25.9330   49.9370   99.3450 C.3   579  XNZ579      0.0132
     29  C34       25.4080   51.3300   99.7410 C.3   579  XNZ579      0.0008
     30  C35       26.0010   49.0090  100.5800 C.3   579  XNZ579      0.0008
     31  C15       27.3230   50.0650   98.7430 C.3   579  XNZ579      0.0553
     32  C10       27.8400   48.8500   97.9600 C.2   579  XNZ579      0.0950
     33  N11       29.2060   48.8590   97.8050 N.2   579  XNZ579     -0.4091
     34  C5        30.1680   48.0090   97.2650 C.2   579  XNZ579      0.1689
     35  C6        31.4660   48.1200   97.7500 C.2   579  XNZ579      0.2227
     36  O33       31.7890   49.0400   98.6860 O.2   579  XNZ579     -0.2841
     37  C1        32.4650   47.2780   97.2980 C.2   579  XNZ579      0.0442
@<TRIPOS>BOND
     1    20    18    1
     2    19    18    2
     3    18    17   am
     4     1     2    1
     5    17    21    1
     6    17    16    1
     7    22    21    1
     8    22    23    2
     9    21    34    1
    10    23    37    1
    11    16    24    1
    12    16    15    1
    13     2    15   ar
    14     2     3   ar
    15    34    35    1
    16    34    33    2
    17    37    35    2
    18    24    25    1
    19    24    32    1
    20    26    25    2
    21    15    14   ar
    22    35    36    1
    23    25    27    1
    24    33    32    2
    25    32    31    1
    26     3     4   ar
    27    27    28    1
    28    31    28    1
    29    14    13   ar
    30    28    29    1
    31    28    30    1
    32     4    13   ar
    33     4     5    1
    34     5     6    1
    35     6     7    1
    36    12     7   ar
    37    12    11   ar
    38     7     8   ar
    39    11    10   ar
    40     8     9   ar
    41    10     9   ar
