@<TRIPOS>MOLECULE
3gnw_XNC_A_1.pdb
 44 49 0 0 0
SMALL
GASTEIGER

@<TRIPOS>ATOM
      1  O35       27.2090    6.8400   40.1460 O.2   579  XNC579     -0.2671
      2  C16       28.2350    6.4290   39.6280 C.2   579  XNC579      0.2795
      3  C17       29.2100    5.7280   40.5020 C.2   579  XNC579      0.1835
      4  C43       29.6290    4.4390   40.2160 C.2   579  XNC579      0.0326
      5  C42       30.5430    3.8330   41.0740 C.2   579  XNC579     -0.0162
      6  C41       31.0460    4.5340   42.1850 C.3   579  XNC579      0.0804
      7  C40       30.6440    5.8340   42.4480 C.2   579  XNC579      0.0916
      8  C44       31.1510    6.6080   43.6350 C.3   579  XNC579      0.0618
      9  N39       29.7200    6.4160   41.6040 N.2   579  XNC579     -0.4056
     10  N7        28.4990    6.6200   38.2610 N.am  579  XNC579     -0.2612
     11  C4        29.7960    6.5320   37.6850 C.3   579  XNC579      0.1539
     12  C3        30.8280    7.3740   38.1260 C.2   579  XNC579      0.0007
     13  C2        32.0890    7.3190   37.5480 C.2   579  XNC579      0.0008
     14  C8        27.3780    6.9220   37.3460 C.3   579  XNC579      0.1293
     15  C9        26.9060    5.6410   36.7090 C.3   579  XNC579      0.1987
     16  S12       25.2010    5.5080   36.7120 S.O2  579  XNC579     -0.0036
     17  O32       24.6590    6.6790   36.0270 O.2   579  XNC579     -0.1726
     18  O33       24.6740    5.5040   38.0560 O.2   579  XNC579     -0.1726
     19  C13       24.7630    3.9640   35.8880 C.3   579  XNC579      0.1516
     20  C14       25.7620    3.5660   34.8060 C.3   579  XNC579      0.0284
     21  C37       25.3440    2.1900   34.2310 C.3   579  XNC579      0.0022
     22  C38       25.8350    4.6180   33.6660 C.3   579  XNC579      0.0022
     23  C15       27.1250    3.4330   35.5270 C.3   579  XNC579      0.0579
     24  C10       27.7020    4.6770   36.1870 C.2   579  XNC579      0.1101
     25  N11       29.0900    4.7110   36.1600 N.2   579  XNC579     -0.4078
     26  C5        30.0430    5.6160   36.6560 C.2   579  XNC579      0.1690
     27  C6        31.3110    5.5550   36.1070 C.2   579  XNC579      0.2227
     28  O36       31.6040    4.6780   35.1050 O.2   579  XNC579     -0.2841
     29  C1        32.3180    6.4040   36.5510 C.2   579  XNC579      0.0442
     30  C18       27.8670    8.0410   36.3960 C.ar  579  XNC579      0.0255
     31  C23       28.1250    9.3010   36.9200 C.ar  579  XNC579      0.1408
     32  F34       27.9370    9.4960   38.2230 F     579  XNC579     -0.2043
     33  C22       28.5550   10.3460   36.1000 C.ar  579  XNC579      0.0662
     34  C21       28.7350   10.1290   34.7330 C.ar  579  XNC579      0.1413
     35  C20       28.4790    8.8560   34.2050 C.ar  579  XNC579      0.0368
     36  C19       28.0420    7.8260   35.0300 C.ar  579  XNC579      0.0027
     37  O24       29.1790   11.1700   33.9580 O.3   579  XNC579     -0.4706
     38  C25       29.4400   11.0410   32.5430 C.3   579  XNC579      0.2320
     39  C26       28.1320   10.9290   31.7720 C.ar  579  XNC579      0.0212
     40  C31       28.0230   10.0310   30.7260 C.ar  579  XNC579     -0.0007
     41  C30       26.8260    9.8880   30.0340 C.ar  579  XNC579     -0.0002
     42  C29       25.7290   10.6630   30.3820 C.ar  579  XNC579     -0.0000
     43  C28       25.8350   11.5800   31.4400 C.ar  579  XNC579     -0.0002
     44  C27       27.0300   11.7070   32.1370 C.ar  579  XNC579     -0.0007
@<TRIPOS>BOND
     1    41    42   ar
     2    41    40   ar
     3    42    43   ar
     4    40    39   ar
     5    43    44   ar
     6    39    44   ar
     7    39    38    1
     8    38    37    1
     9    22    20    1
    10    37    34    1
    11    35    34   ar
    12    35    36   ar
    13    21    20    1
    14    34    33   ar
    15    20    23    1
    16    20    19    1
    17    36    30   ar
    18    28    27    1
    19    23    24    1
    20    19    16    1
    21    17    16    2
    22    33    31   ar
    23    27    29    2
    24    27    26    1
    25    25    24    2
    26    25    26    2
    27    24    15    1
    28    30    31   ar
    29    30    14    1
    30    29    13    1
    31    26    11    1
    32    15    16    1
    33    15    14    1
    34    16    18    2
    35    31    32    1
    36    14    10    1
    37    13    12    2
    38    11    12    1
    39    11    10    1
    40    10     2   am
    41     2     1    2
    42     2     3    1
    43     4     3    1
    44     4     5    2
    45     3     9    2
    46     5     6    1
    47     9     7    2
    48     6     7    1
    49     7     8    1
