@<TRIPOS>MOLECULE
3gnx_XYL_A_1.pdb
 10 9 0 0 0
SMALL
GASTEIGER

@<TRIPOS>ATOM
      1  C1        44.8720   27.8110   13.3400 C.2   389  XYL389      0.2427
      2  C2        44.1660   28.1870   12.0230 C.3   389  XYL389      0.2486
      3  C3        43.0390   27.3530   11.3200 C.3   389  XYL389      0.2225
      4  C4        43.0190   25.9000   11.2890 C.3   389  XYL389      0.2179
      5  C5        43.4160   25.7130    9.7650 C.3   389  XYL389      0.2175
      6  O1        45.2930   28.6920   14.1210 O.2   389  XYL389     -0.2854
      7  O2        43.1150   28.9690   12.5530 O.3   389  XYL389     -0.2118
      8  O3        42.7420   27.5750    9.8900 O.3   389  XYL389     -0.2171
      9  O4        43.8560   25.7050   12.3800 O.3   389  XYL389     -0.2175
     10  O5        44.5010   24.8460    9.4300 O.3   389  XYL389     -0.2175
@<TRIPOS>BOND
     1    10     5    1
     2     5     4    1
     3     8     3    1
     4     4     3    1
     5     4     9    1
     6     3     2    1
     7     2     7    1
     8     2     1    1
     9     1     6    2
