@<TRIPOS>MOLECULE
3go4_SAH_A_1.pdb
 26 28 0 0 0
SMALL
GASTEIGER

@<TRIPOS>ATOM
      1  N        -15.9840   24.0660   16.0910 N.3   277  SAH277     -0.1208
      2  CA       -15.8780   23.0800   17.2460 C.3   277  SAH277      0.1952
      3  CB       -17.1950   22.3460   17.5440 C.3   277  SAH277      0.0422
      4  CG       -17.6690   21.4370   16.4020 C.3   277  SAH277      0.0597
      5  SD       -19.2320   20.6480   16.7230 S.3   277  SAH277     -0.1375
      6  C        -14.7740   22.0850   16.9600 C.2   277  SAH277      0.3819
      7  O        -14.0900   21.5690   17.8450 O.co2 277  SAH277     -0.2441
      8  OXT      -14.4920   21.7930   15.8040 O.co2 277  SAH277     -0.2441
      9  C5'      -20.4270   21.4190   15.6810 C.3   277  SAH277      0.0899
     10  C4'      -21.0630   22.6090   16.3740 C.3   277  SAH277      0.1630
     11  O4'      -21.7460   23.4060   15.4030 O.3   277  SAH277     -0.3153
     12  C3'      -22.0870   22.2010   17.4210 C.3   277  SAH277      0.2168
     13  O3'      -21.7760   22.8630   18.6300 O.3   277  SAH277     -0.2175
     14  C2'      -23.4100   22.6580   16.8490 C.3   277  SAH277      0.2569
     15  O2'      -24.3860   23.0080   17.8080 O.3   277  SAH277     -0.2130
     16  C1'      -22.9650   23.8440   16.0020 C.3   277  SAH277      0.3185
     17  N9       -23.9000   24.2030   14.9400 N.pl3 277  SAH277     -0.1439
     18  C8       -24.5140   23.3540   14.0950 C.3   277  SAH277      0.3377
     19  N7       -25.3070   24.0190   13.2300 N.2   277  SAH277     -0.2095
     20  C5       -25.2060   25.3200   13.5300 C.2   277  SAH277      0.2526
     21  C6       -25.7760   26.5600   12.9920 C.2   277  SAH277      0.4393
     22  N6       -26.6220   26.4690   11.9430 N.pl3 277  SAH277      0.2180
     23  N1       -25.4310   27.7290   13.5760 N.2   277  SAH277      0.0021
     24  C2       -24.5450   27.7810   14.6080 C.3   277  SAH277      0.5254
     25  N3       -23.9870   26.6790   15.1590 N.2   277  SAH277     -0.0055
     26  C4       -24.2600   25.4540   14.6530 C.2   277  SAH277      0.3518
@<TRIPOS>BOND
     1    22    21    1
     2    21    20    1
     3    21    23    2
     4    19    20    2
     5    19    18    1
     6    20    26    1
     7    23    24    1
     8    18    17    1
     9    24    25    1
    10    26    17    1
    11    26    25    2
    12    17    16    1
    13    11    16    1
    14    11    10    1
    15     9    10    1
    16     9     5    1
    17     8     6   ar
    18    16    14    1
    19     1     2    1
    20    10    12    1
    21     4     5    1
    22     4     3    1
    23    14    12    1
    24    14    15    1
    25     6     2    1
    26     6     7   ar
    27     2     3    1
    28    12    13    1
