@<TRIPOS>MOLECULE
3go6_RIB_A_1.pdb
 10 10 0 0 0
SMALL
GASTEIGER

@<TRIPOS>ATOM
      1  O5'       22.3510    5.6840    5.9660 O.3   305  RIB305     -0.2176
      2  C5'       21.7580    4.5600    5.2770 C.3   305  RIB305      0.2142
      3  C4'       20.2250    4.6660    5.3780 C.3   305  RIB305      0.1837
      4  O4'       19.7960    5.7730    4.5590 O.3   305  RIB305     -0.3236
      5  C3'       19.4960    3.4610    4.8100 C.3   305  RIB305      0.2169
      6  O3'       19.0800    2.4920    5.8050 O.3   305  RIB305     -0.2175
      7  C2'       18.3330    4.0590    4.0400 C.3   305  RIB305      0.2433
      8  O2'       17.0700    3.6200    4.5540 O.3   305  RIB305     -0.2148
      9  C1'       18.4730    5.5730    4.0920 C.3   305  RIB305      0.3024
     10  O1'       17.5750    6.1650    5.0400 O.3   305  RIB305     -0.1869
@<TRIPOS>BOND
     1     7     9    1
     2     7     8    1
     3     7     5    1
     4     9     4    1
     5     9    10    1
     6     4     3    1
     7     5     3    1
     8     5     6    1
     9     2     3    1
    10     2     1    1
