@<TRIPOS>MOLECULE
3go6_ADP_B_1.pdb
 27 29 0 0 0
SMALL
GASTEIGER

@<TRIPOS>ATOM
      1  PB       -10.6540   -2.1870   27.3120 P.3   305  ADP305      0.5373
      2  O1B      -10.6370   -0.6690   27.2590 O.3   305  ADP305     -0.1143
      3  O2B      -12.0450   -2.7610   27.4750 O.3   305  ADP305     -0.1143
      4  O3B       -9.8220   -2.8300   26.2300 O.2   305  ADP305     -0.2221
      5  PA       -10.5660   -2.5080   30.2050 P.3   305  ADP305      0.2231
      6  O1A      -10.8980   -1.0620   30.5450 O.3   305  ADP305     -0.4370
      7  O2A      -11.6450   -3.5630   30.3120 O.2   305  ADP305     -0.5169
      8  O3A       -9.9040   -2.5540   28.7100 O.3   305  ADP305     -0.2261
      9  O5'       -9.3630   -2.9640   31.1640 O.3   305  ADP305     -0.3111
     10  C5'       -8.8830   -4.3040   31.2450 C.3   305  ADP305      0.1813
     11  C4'       -7.6300   -4.2470   32.1030 C.3   305  ADP305      0.1821
     12  O4'       -6.7920   -3.1780   31.6560 O.3   305  ADP305     -0.3135
     13  C3'       -7.9230   -3.9310   33.5630 C.3   305  ADP305      0.2184
     14  O3'       -8.1220   -5.1250   34.3100 O.3   305  ADP305     -0.2174
     15  C2'       -6.7080   -3.1340   34.0220 C.3   305  ADP305      0.2570
     16  O2'       -5.6250   -3.9590   34.4560 O.3   305  ADP305     -0.2130
     17  C1'       -6.2490   -2.4330   32.7590 C.3   305  ADP305      0.3186
     18  N9        -6.6840   -1.0070   32.7300 N.pl3 305  ADP305     -0.1439
     19  C8        -7.6700   -0.4740   31.9680 C.3   305  ADP305      0.3377
     20  N7        -7.8020    0.8630   32.1910 N.2   305  ADP305     -0.2095
     21  C5        -6.8830    1.2100   33.1160 C.2   305  ADP305      0.2526
     22  C6        -6.4640    2.4590   33.8090 C.2   305  ADP305      0.4393
     23  N6        -7.0830    3.6360   33.5520 N.pl3 305  ADP305      0.2180
     24  N1        -5.4560    2.3800   34.7130 N.2   305  ADP305      0.0021
     25  C2        -4.8330    1.2160   34.9940 C.3   305  ADP305      0.5254
     26  N3        -5.1600    0.0500   34.4010 N.2   305  ADP305     -0.0055
     27  C4        -6.1490   -0.0230   33.4710 C.2   305  ADP305      0.3518
@<TRIPOS>BOND
     1     4     1    2
     2     2     1    1
     3     1     3    1
     4     1     8    1
     5     8     5    1
     6     5     7    2
     7     5     6    1
     8     5     9    1
     9     9    10    1
    10    10    11    1
    11    12    11    1
    12    12    17    1
    13    19    20    1
    14    19    18    1
    15    11    13    1
    16    20    21    2
    17    18    17    1
    18    18    27    1
    19    17    15    1
    20    21    27    1
    21    21    22    1
    22    27    26    2
    23    23    22    1
    24    13    15    1
    25    13    14    1
    26    22    24    2
    27    15    16    1
    28    26    25    1
    29    24    25    1
