@<TRIPOS>MOLECULE
3go7_RIB_A_1.pdb
 10 10 0 0 0
SMALL
GASTEIGER

@<TRIPOS>ATOM
      1  O5'       22.3630    5.5710    5.8950 O.3   305  RIB305     -0.2176
      2  C5'       21.7620    4.4550    5.2040 C.3   305  RIB305      0.2142
      3  C4'       20.2300    4.6140    5.2940 C.3   305  RIB305      0.1837
      4  O4'       19.7880    5.7050    4.4910 O.3   305  RIB305     -0.3236
      5  C3'       19.4250    3.4290    4.7990 C.3   305  RIB305      0.2169
      6  O3'       19.0490    2.6020    5.8990 O.3   305  RIB305     -0.2175
      7  C2'       18.2200    4.0380    4.0710 C.3   305  RIB305      0.2433
      8  O2'       16.9330    3.6860    4.5990 O.3   305  RIB305     -0.2148
      9  C1'       18.4370    5.5350    4.0720 C.3   305  RIB305      0.3024
     10  O1'       17.5730    6.2050    4.9870 O.3   305  RIB305     -0.1869
@<TRIPOS>BOND
     1     7     9    1
     2     7     8    1
     3     7     5    1
     4     9     4    1
     5     9    10    1
     6     4     3    1
     7     5     3    1
     8     5     6    1
     9     2     3    1
    10     2     1    1
