@<TRIPOS>MOLECULE
3gob_HXX_A_1.pdb
 12 12 0 0 0
SMALL
GASTEIGER

@<TRIPOS>ATOM
      1  C2        22.9540   -9.7760   34.6200 C.ar  601  HXX601      0.2133
      2  C3        22.5300   -9.8000   36.0310 C.ar  601  HXX601      0.0968
      3  C4        21.2830   -9.1770   36.4130 C.ar  601  HXX601      0.0155
      4  C5        20.4520   -8.5360   35.4470 C.ar  601  HXX601      0.0127
      5  C6        20.8290   -8.4900   34.0610 C.ar  601  HXX601      0.0672
      6  O1'       21.9560   -9.8910   31.3740 O.co2 601  HXX601     -0.2404
      7  C1'       22.5220   -9.0800   32.1600 C.2   601  HXX601      0.3917
      8  O2'       23.4090   -8.2450   31.8570 O.co2 601  HXX601     -0.2404
      9  C1        22.0990   -9.1130   33.6090 C.ar  601  HXX601      0.1299
     10  O2        24.1860  -10.3900   34.2310 O.3   601  HXX601     -0.2854
     11 CL1        23.4830  -10.5610   37.2810 Cl    601  HXX601     -0.0789
     12 CL2        19.7170   -7.6680   32.9790 Cl    601  HXX601     -0.0819
@<TRIPOS>BOND
     1     6     7   ar
     2     8     7   ar
     3     7     9    1
     4    12     5    1
     5     9     5   ar
     6     9     1   ar
     7     5     4   ar
     8    10     1    1
     9     1     2   ar
    10     4     3   ar
    11     2     3   ar
    12     2    11    1
