@<TRIPOS>MOLECULE
3goc_YES_B_1.pdb
 14 13 0 0 0
SMALL
GASTEIGER

@<TRIPOS>ATOM
      1  O1        -3.5500   -8.2820   27.9690 O.3   304  YES304     -0.2202
      2  C1        -4.8710   -7.8800   27.7850 C.3   304  YES304      0.1870
      3  C2        -5.8470   -8.6870   27.0860 C.3   304  YES304      0.0919
      4  C3        -5.3360   -8.8270   25.6280 C.3   304  YES304      0.1870
      5  O3        -5.2310   -7.5570   24.8660 O.3   304  YES304     -0.2202
      6  C4        -7.2500   -8.0580   27.2560 C.3   304  YES304      0.1870
      7  O4        -8.3410   -8.8880   26.5340 O.3   304  YES304     -0.2202
      8  C5        -5.8520  -10.0860   27.8840 C.3   304  YES304      0.0126
      9  C6        -6.3960  -10.0570   29.3820 C.3   304  YES304      0.0359
     10  C7        -5.7110  -11.0300   30.2830 C.3   304  YES304      0.1821
     11  O7        -4.2970  -11.0360   30.1080 O.3   304  YES304     -0.2204
     12  C8        -6.5940  -11.2760   27.1710 C.3   304  YES304      0.0359
     13  C9        -5.5950  -12.3200   26.8870 C.3   304  YES304      0.1821
     14  O9        -4.3610  -12.0460   26.2860 O.3   304  YES304     -0.2204
@<TRIPOS>BOND
     1     5     4    1
     2     4     3    1
     3    14    13    1
     4     7     6    1
     5    13    12    1
     6     3     6    1
     7     3     2    1
     8     3     8    1
     9    12     8    1
    10     2     1    1
    11     8     9    1
    12     9    10    1
    13    11    10    1
