@<TRIPOS>MOLECULE
3goi_GLC_A_1.pdb
 12 12 0 0 0
SMALL
GASTEIGER

@<TRIPOS>ATOM
      1  C1        23.3700    2.4350   66.4240 C.3     2  GLC2        0.3024
      2  C2        23.1810    3.7180   65.5800 C.3     2  GLC2        0.2434
      3  C3        24.5900    4.3410   65.4570 C.3     2  GLC2        0.2199
      4  C4        25.3800    4.6760   66.7390 C.3     2  GLC2        0.2144
      5  C5        25.4180    3.3600   67.5320 C.3     2  GLC2        0.1836
      6  C6        25.8940    3.4930   68.9910 C.3     2  GLC2        0.2142
      7  O1        24.3620    1.7240   65.6460 O.3     2  GLC2       -0.1869
      8  O2        22.5330    3.5180   64.2450 O.3     2  GLC2       -0.2148
      9  O3        24.5640    5.3880   64.4950 O.3     2  GLC2       -0.2174
     10  O4        26.7360    4.9690   66.2460 O.3     2  GLC2       -0.2176
     11  O5        24.0660    2.8820   67.6090 O.3     2  GLC2       -0.3236
     12  O6        25.1640    4.6600   69.4780 O.3     2  GLC2       -0.2176
@<TRIPOS>BOND
     1     8     2    1
     2     9     3    1
     3     3     2    1
     4     3     4    1
     5     2     1    1
     6     7     1    1
     7    10     4    1
     8     1    11    1
     9     4     5    1
    10     5    11    1
    11     5     6    1
    12     6    12    1
