@<TRIPOS>MOLECULE
3goi_LOI_A_1.pdb
 24 26 0 0 0
SMALL
GASTEIGER

@<TRIPOS>ATOM
      1  C4        41.5540   14.9230   63.9650 C.ar    1  LOI1        0.0079
      2  C5        41.0860   15.8800   64.8440 C.ar    1  LOI1        0.0167
      3  C6        39.9420   15.6720   62.4310 C.ar    1  LOI1        0.0124
      4  C7        35.3790   19.9540   60.5170 C.3     1  LOI1        0.1202
      5  C8        43.8250   11.3250   63.5440 C.ar    1  LOI1        0.2031
      6  C10       40.9640   14.7920   62.7400 C.ar    1  LOI1        0.0325
      7  C13       37.2600   18.5680   61.0060 C.2     1  LOI1        0.2328
      8  C15       38.3770   17.5500   62.9210 C.2     1  LOI1        0.2727
      9  C1        35.9020   20.0640   58.0450 C.3     1  LOI1        0.0625
     10  C2        40.4490   17.7880   66.5990 C.3     1  LOI1        0.1355
     11  C3        41.3070   11.2150   63.5590 C.3     1  LOI1        0.1341
     12  C9        36.1500   19.6330   59.4300 C.2     1  LOI1        0.1007
     13  C11       40.0560   16.7280   64.5420 C.ar    1  LOI1        0.0698
     14  C12       39.5000   16.6430   63.2990 C.ar    1  LOI1        0.0708
     15  C14       42.7740   12.7610   62.2740 C.ar    1  LOI1        0.1974
     16  N16       44.6940   12.0720   62.9070 N.ar    1  LOI1       -0.1250
     17  N17       37.2210   18.8350   59.7270 N.2     1  LOI1       -0.3867
     18  N18       44.0380   12.9860   62.1020 N.ar    1  LOI1       -0.1217
     19  N19       39.5600   17.6690   65.4510 N.pl3   1  LOI1       -0.2356
     20  N20       38.2270   17.7840   61.6020 N.am    1  LOI1       -0.1399
     21  N21       42.5990   11.7240   63.1400 N.ar    1  LOI1       -0.2857
     22  O22       37.6540   18.0110   63.7680 O.2     1  LOI1       -0.2679
     23  S23       36.0080   19.2510   61.9340 S.3     1  LOI1       -0.0580
     24  S24       41.4290   13.5560   61.5380 S.3     1  LOI1       -0.0487
@<TRIPOS>BOND
     1     9    12    1
     2    12    17    2
     3    12     4    1
     4    17     7    2
     5     4    23    1
     6     7    20    1
     7     7    23    1
     8    24    15    1
     9    24     6    1
    10    20     8   am
    11    18    15   ar
    12    18    16   ar
    13    15    21   ar
    14     3     6   ar
    15     3    14   ar
    16     6     1   ar
    17    16     5   ar
    18     8    14    1
    19     8    22    2
    20    21     5   ar
    21    21    11    1
    22    14    13   ar
    23     1     2   ar
    24    13     2   ar
    25    13    19    1
    26    19    10    1
