@<TRIPOS>MOLECULE
3gok_P4O_A_1.pdb
 26 30 0 0 0
SMALL
GASTEIGER

@<TRIPOS>ATOM
      1  C19        5.5760   59.8410    9.6780 C.ar    1  P4O1        0.0045
      2  C20        5.7730   60.8590    8.7550 C.ar    1  P4O1        0.0177
      3  C25        7.0240   61.1030    8.2150 C.ar    1  P4O1        0.0015
      4  C24        7.1560   62.1410    7.3080 C.ar    1  P4O1        0.0001
      5  C23        6.0790   62.9290    6.9260 C.ar    1  P4O1        0.0015
      6  C22        4.8090   62.7130    7.4430 C.ar    1  P4O1        0.0191
      7  C21        4.5990   61.6910    8.3640 C.ar    1  P4O1        0.0813
      8  N16        3.3610   61.4280    8.8980 N.ar    1  P4O1       -0.2438
      9  C17        3.2190   60.4330    9.8030 C.ar    1  P4O1        0.1003
     10  C18        4.3010   59.6310   10.1880 C.ar    1  P4O1        0.0368
     11  C14        4.1440   58.5730   11.1890 C.ar    1  P4O1        0.0829
     12  C13        4.9880   57.4860   11.2420 C.ar    1  P4O1        0.0217
     13  N15        3.1940   58.7320   12.1180 N.ar    1  P4O1       -0.2438
     14  C10        3.0030   57.8150   13.0770 C.ar    1  P4O1        0.0989
     15  C11        3.8090   56.6840   13.1680 C.ar    1  P4O1        0.0232
     16  C12        4.8020   56.5250   12.2260 C.ar    1  P4O1        0.0326
     17  C2         5.6970   55.3600   12.3050 C.2     1  P4O1        0.1319
     18  C3         5.5030   54.2110   13.0370 C.2     1  P4O1        0.0459
     19  C4         6.6330   53.4640   12.8010 C.2     1  P4O1        0.1107
     20  C6         7.0960   52.1380   13.2780 C.1     1  P4O1        0.1523
     21  O26        6.4640   51.5270   14.1390 O.2     1  P4O1       -0.2222
     22  N7         8.2390   51.7100   12.7300 N.2     1  P4O1       -0.2020
     23  C8         8.8660   52.1530   11.4870 C.3     1  P4O1        0.1453
     24  C9         8.8430   53.6710   11.5220 C.3     1  P4O1        0.0869
     25  C5         7.4900   54.1510   11.9800 C.2     1  P4O1        0.1219
     26  N1         6.8970   55.3130   11.6960 N.2     1  P4O1       -0.4054
@<TRIPOS>BOND
     1     5     4   ar
     2     5     6   ar
     3     4     3   ar
     4     6     7   ar
     5     3     2   ar
     6     7     2   ar
     7     7     8   ar
     8     2     1   ar
     9     8     9   ar
    10     1    10   ar
    11     9    10   ar
    12    10    11    1
    13    11    12   ar
    14    11    13   ar
    15    12    16   ar
    16    23    24    1
    17    23    22    1
    18    24    25    1
    19    26    25    2
    20    26    17    2
    21    25    19    1
    22    13    14   ar
    23    16    17    1
    24    16    15   ar
    25    17    18    1
    26    22    20    2
    27    19    18    2
    28    19    20    1
    29    14    15   ar
    30    20    21    2
