@<TRIPOS>MOLECULE
3gol_XND_A_1.pdb
 30 33 0 0 0
SMALL
GASTEIGER

@<TRIPOS>ATOM
      1 CL29       22.8850   11.7430   34.4460 Cl    579  XND579     -0.0822
      2  C22       23.5200   10.6420   33.2960 C.ar  579  XND579      0.0585
      3  C21       23.6640   11.0150   31.9710 C.ar  579  XND579      0.0225
      4  C20       24.1840   10.0970   31.0740 C.ar  579  XND579      0.0561
      5 CL28       24.3740   10.5290   29.4160 Cl    579  XND579     -0.0825
      6  C23       23.8850    9.3720   33.7150 C.ar  579  XND579      0.0112
      7  C24       24.4020    8.4610   32.8130 C.ar  579  XND579     -0.0010
      8  C16       24.5570    8.8130   31.4790 C.ar  579  XND579      0.0072
      9  C11       25.1290    7.8480   30.4080 C.3   579  XND579      0.1125
     10  C5        25.5760    6.4930   30.9760 C.3   579  XND579      0.1278
     11  C6        27.0250    6.3110   31.1840 C.2   579  XND579      0.1585
     12  O25       27.7650    7.2760   31.1170 O.2   579  XND579     -0.2956
     13  C1        27.5250    4.9310   31.5500 C.3   579  XND579      0.0654
     14  N10       24.1720    7.7170   29.2860 N.am  579  XND579     -0.2681
     15  C17       24.7150    7.2950   28.0350 C.2   579  XND579      0.2268
     16  C19       23.8790    6.6660   26.9430 C.3   579  XND579      0.0949
     17  O18       25.9180    7.3990   27.8020 O.2   579  XND579     -0.2748
     18  C9        22.8210    7.4810   29.7130 C.3   579  XND579      0.1535
     19  C15       21.8190    8.3460   29.2860 C.2   579  XND579      0.0007
     20  C14       20.5100    8.1790   29.6780 C.2   579  XND579      0.0008
     21  C13       20.1750    7.1400   30.5250 C.2   579  XND579      0.0442
     22  C12       21.1590    6.2770   30.9810 C.2   579  XND579      0.2227
     23  O30       20.8530    5.2670   31.8180 O.2   579  XND579     -0.2841
     24  C8        22.4730    6.4400   30.6000 C.2   579  XND579      0.1689
     25  N7        23.3650    5.5130   31.1820 N.2   579  XND579     -0.4091
     26  C4        24.7290    5.5120   31.3850 C.2   579  XND579      0.0950
     27  C3        25.2090    4.2580   32.1250 C.3   579  XND579      0.0553
     28  C2        26.6350    4.3300   32.6480 C.3   579  XND579      0.0132
     29  C27       27.1390    2.9100   32.9990 C.3   579  XND579      0.0008
     30  C26       26.6130    5.2380   33.9050 C.3   579  XND579      0.0008
@<TRIPOS>BOND
     1    16    15    1
     2    17    15    2
     3    15    14   am
     4    14    18    1
     5    14     9    1
     6    19    20    2
     7    19    18    1
     8     5     4    1
     9    20    21    1
    10    18    24    1
    11     9    10    1
    12     9     8    1
    13    21    22    2
    14    24    22    1
    15    24    25    2
    16    10    11    1
    17    10    26    1
    18    22    23    1
    19     4     8   ar
    20     4     3   ar
    21    12    11    2
    22    25    26    2
    23    11    13    1
    24    26    27    1
    25     8     7   ar
    26    13    28    1
    27     3     2   ar
    28    27    28    1
    29    28    29    1
    30    28    30    1
    31     7     6   ar
    32     2     6   ar
    33     2     1    1
