@<TRIPOS>MOLECULE
3gon_ANP_A_1.pdb
 31 33 0 0 0
SMALL
GASTEIGER

@<TRIPOS>ATOM
      1  PG        15.0240   27.9590    0.7410 P.3   500  ANP500      0.4884
      2  O1G       14.5680   26.5620    0.5710 O.3   500  ANP500     -0.1240
      3  O2G       15.5250   28.6020   -0.6460 O.2   500  ANP500     -0.2331
      4  O3G       16.2750   28.0490    1.7510 O.3   500  ANP500     -0.1240
      5  PB        14.1210   30.5060    0.9470 P.3   500  ANP500      0.4669
      6  O1B       13.4350   31.3610    1.9380 O.3   500  ANP500     -0.1253
      7  O2B       15.5690   30.6990    0.7030 O.2   500  ANP500     -0.2351
      8  N3B       13.8610   28.9430    1.3060 N.3   500  ANP500     -0.0163
      9  PA        13.4320   32.0860   -1.2900 P.3   500  ANP500      0.2220
     10  O1A       14.6990   32.1130   -2.0520 O.2   500  ANP500     -0.5170
     11  O2A       12.1420   32.2390   -2.0060 O.3   500  ANP500     -0.4370
     12  O3A       13.3450   30.7080   -0.4490 O.3   500  ANP500     -0.2360
     13  O5'       13.4790   33.2550   -0.1720 O.3   500  ANP500     -0.3111
     14  C5'       12.2620   33.9040    0.1780 C.3   500  ANP500      0.1813
     15  C4'       12.3050   35.4030   -0.0260 C.3   500  ANP500      0.1821
     16  O4'       13.6450   35.9570    0.0320 O.3   500  ANP500     -0.3135
     17  C3'       11.7780   35.8940   -1.3590 C.3   500  ANP500      0.2184
     18  O3'       10.3720   35.7540   -1.4410 O.3   500  ANP500     -0.2174
     19  C2'       12.2660   37.3390   -1.2830 C.3   500  ANP500      0.2570
     20  O2'       11.5740   38.0180   -0.2490 O.3   500  ANP500     -0.2130
     21  C1'       13.6920   37.1150   -0.7760 C.3   500  ANP500      0.3186
     22  N9        14.6380   36.8850   -1.8930 N.pl3 500  ANP500     -0.1439
     23  C8        15.1780   35.7020   -2.1940 C.3   500  ANP500      0.3377
     24  N7        15.9500   35.8120   -3.2640 N.2   500  ANP500     -0.2095
     25  C5        15.9020   37.0840   -3.6510 C.2   500  ANP500      0.2526
     26  C6        16.4980   37.7730   -4.6850 C.2   500  ANP500      0.4393
     27  N6        17.2890   37.0770   -5.5110 N.pl3 500  ANP500      0.2180
     28  N1        16.2690   39.0800   -4.8230 N.2   500  ANP500      0.0021
     29  C2        15.4760   39.7210   -3.9760 C.3   500  ANP500      0.5254
     30  N3        14.8800   39.0900   -2.9700 N.2   500  ANP500     -0.0055
     31  C4        15.0670   37.7880   -2.7790 C.2   500  ANP500      0.3518
@<TRIPOS>BOND
     1    27    26    1
     2    28    26    2
     3    28    29    1
     4    26    25    1
     5    29    30    1
     6    25    24    2
     7    25    31    1
     8    24    23    1
     9    30    31    2
    10    31    22    1
    11    23    22    1
    12    10     9    2
    13    11     9    1
    14    22    21    1
    15    18    17    1
    16    17    19    1
    17    17    15    1
    18     9    12    1
    19     9    13    1
    20    19    21    1
    21    19    20    1
    22    21    16    1
    23     3     1    2
    24    12     5    1
    25    13    14    1
    26    15    16    1
    27    15    14    1
    28     2     1    1
    29     7     5    2
    30     1     8    1
    31     1     4    1
    32     5     8    1
    33     5     6    1
