@<TRIPOS>MOLECULE
3gon_PMV_A_1.pdb
 14 13 0 0 0
SMALL
GASTEIGER

@<TRIPOS>ATOM
      1  OP2       14.5380   24.4610    3.2660 O.3   400  PMV400     -0.1145
      2  P         15.9650   25.0120    3.7640 P.3   400  PMV400      0.5326
      3  OP3       15.7750   26.5940    3.9960 O.3   400  PMV400     -0.1145
      4  OP1       17.0770   24.6750    2.8450 O.2   400  PMV400     -0.2224
      5  O5        16.2100   24.3590    5.2150 O.3   400  PMV400     -0.2702
      6  C5        15.3070   24.6210    6.2860 C.3   400  PMV400      0.1563
      7  C4        15.8810   24.1510    7.4670 C.3   400  PMV400      0.0636
      8  C3        14.9510   24.2310    8.6760 C.3   400  PMV400      0.1399
      9  O3A       15.6840   23.6880    9.7760 O.3   400  PMV400     -0.2250
     10  C3A       13.6650   23.4340    8.4620 C.3   400  PMV400      0.0336
     11  C2        14.5790   25.6840    8.9680 C.3   400  PMV400      0.1444
     12  C1        15.7580   26.4960    9.5020 C.2   400  PMV400      0.3674
     13  O2        16.6200   25.9500   10.1870 O.co2 400  PMV400     -0.2456
     14  O1        15.8630   27.6940    9.2430 O.co2 400  PMV400     -0.2456
@<TRIPOS>BOND
     1     4     2    2
     2     1     2    1
     3     2     3    1
     4     2     5    1
     5     5     6    1
     6     6     7    1
     7     7     8    1
     8    10     8    1
     9     8    11    1
    10     8     9    1
    11    11    12    1
    12    14    12   ar
    13    12    13   ar
