@<TRIPOS>MOLECULE
3gou_HEM_A_1.pdb
 43 50 0 0 0
SMALL
GASTEIGER

@<TRIPOS>ATOM
      1 FE         -7.9710   -7.1550   -1.3990 Fe    142  HEM142      0.0000
      2  CHA       -4.9090   -7.9930   -2.2490 C.2   142  HEM142      0.0000
      3  CHB       -9.2540   -9.6980   -3.3790 C.2   142  HEM142      0.0000
      4  CHC      -11.1460   -6.4060   -0.4740 C.2   142  HEM142      0.0000
      5  CHD       -6.8540   -4.4570    0.4010 C.2   142  HEM142      0.0000
      6  NA        -7.2710   -8.5840   -2.4880 N.ar  142  HEM142      0.0000
      7  C1A       -5.9430   -8.6780   -2.8170 C.ar  142  HEM142      0.0000
      8  C2A       -5.7740   -9.6340   -3.8830 C.ar  142  HEM142      0.0000
      9  C3A       -6.9780  -10.1100   -4.1940 C.ar  142  HEM142      0.0000
     10  C4A       -7.9170   -9.4610   -3.3270 C.ar  142  HEM142      0.0000
     11  CMA       -7.3520  -11.1640   -5.2670 C.3   142  HEM142      0.0000
     12  CAA       -4.4190   -9.9930   -4.5190 C.3   142  HEM142      0.0000
     13  CBA       -4.1880  -11.5090   -4.5070 C.3   142  HEM142      0.0000
     14  CGA       -2.7120  -11.6780   -4.7440 C.2   142  HEM142      0.0000
     15  O1A       -2.1100  -10.7800   -5.4280 O.co2 142  HEM142      0.0000
     16  O2A       -2.1580  -12.7070   -4.2420 O.co2 142  HEM142      0.0000
     17  NB        -9.7990   -7.9260   -1.8380 N.2   142  HEM142      0.0000
     18  C1B      -10.1500   -8.9280   -2.7150 C.2   142  HEM142      0.0000
     19  C2B      -11.5900   -9.0620   -2.8110 C.2   142  HEM142      0.0000
     20  C3B      -12.0960   -8.1360   -1.9760 C.2   142  HEM142      0.0000
     21  C4B      -10.9910   -7.4250   -1.3740 C.2   142  HEM142      0.0000
     22  CMB      -12.3180  -10.0970   -3.7140 C.3   142  HEM142      0.0000
     23  CAB      -13.5590   -7.7740   -1.6530 C.2   142  HEM142      0.0000
     24  CBB      -14.5520   -8.5660   -2.0510 C.2   142  HEM142      0.0000
     25  NC        -8.7990   -5.7460   -0.2580 N.ar  142  HEM142      0.0000
     26  C1C      -10.1490   -5.5870   -0.0330 C.ar  142  HEM142      0.0000
     27  C2C      -10.3830   -4.4120    0.7480 C.ar  142  HEM142      0.0000
     28  C3C       -9.2030   -3.8670    0.9890 C.ar  142  HEM142      0.0000
     29  C4C       -8.1970   -4.6880    0.3620 C.ar  142  HEM142      0.0000
     30  CMC      -11.7690   -3.9110    1.1920 C.3   142  HEM142      0.0000
     31  CAC       -8.9400   -2.5800    1.7900 C.2   142  HEM142      0.0000
     32  CBC       -9.2690   -1.3850    1.2100 C.2   142  HEM142      0.0000
     33  ND        -6.1880   -6.3700   -0.9460 N.2   142  HEM142      0.0000
     34  C1D       -5.9200   -5.2040   -0.2520 C.2   142  HEM142      0.0000
     35  C2D       -4.5110   -4.8880   -0.3250 C.2   142  HEM142      0.0000
     36  C3D       -3.8950   -6.0110   -1.1720 C.2   142  HEM142      0.0000
     37  C4D       -5.0160   -6.8580   -1.5030 C.2   142  HEM142      0.0000
     38  CMD       -3.8010   -3.6730    0.3130 C.3   142  HEM142      0.0000
     39  CAD       -2.4160   -6.2260   -1.6040 C.3   142  HEM142      0.0000
     40  CBD       -2.2450   -5.7090   -3.0570 C.3   142  HEM142      0.0000
     41  CGD       -0.9010   -6.0140   -3.7000 C.2   142  HEM142      0.0000
     42  O1D        0.1660   -5.9490   -3.0210 O.co2 142  HEM142      0.0000
     43  O2D       -0.9170   -6.3140   -4.9320 O.co2 142  HEM142      0.0000
@<TRIPOS>BOND
     1    15    14   ar
     2    11     9    1
     3    43    41   ar
     4    14    13    1
     5    14    16   ar
     6    12    13    1
     7    12     8    1
     8     9     8   ar
     9     9    10   ar
    10     8     7   ar
    11    22    19    1
    12    41    40    1
    13    41    42   ar
    14     3    10    2
    15     3    18    1
    16    10     6   ar
    17    40    39    1
    18     7     6   ar
    19     7     2    2
    20    19    18    1
    21    19    20    2
    22    18    17    2
    23     6     1    1
    24     2    37    1
    25    24    23    2
    26    20    23    1
    27    20    21    1
    28    17     1    1
    29    17    21    1
    30    39    36    1
    31    37    36    1
    32    37    33    2
    33     1    33    1
    34     1    25    1
    35    21     4    2
    36    36    35    2
    37    33    34    1
    38     4    26    1
    39    35    34    1
    40    35    38    1
    41    25    26   ar
    42    25    29   ar
    43    34     5    2
    44    26    27   ar
    45    29     5    1
    46    29    28   ar
    47    27    28   ar
    48    27    30    1
    49    28    31    1
    50    32    31    2
