@<TRIPOS>MOLECULE
3goy_3AB_A_1.pdb
 10 10 0 0 0
SMALL
GASTEIGER

@<TRIPOS>ATOM
      1  N3        30.9490    2.5650   38.7360 N.pl3   1  3AB1       -0.1281
      2  C3        29.7330    2.4430   38.2700 C.ar    1  3AB1        0.0892
      3  C2        29.1180    1.2300   38.1330 C.ar    1  3AB1        0.0227
      4  C4        29.0670    3.5780   37.9070 C.ar    1  3AB1        0.0181
      5  C5        27.7870    3.5370   37.4150 C.ar    1  3AB1        0.0015
      6  C6        27.1900    2.3270   37.2790 C.ar    1  3AB1        0.0047
      7  C1        27.8490    1.1960   37.6160 C.ar    1  3AB1        0.0580
      8  C1'       27.1260   -0.0750   37.4330 C.2     1  3AB1        0.2842
      9  O1'       26.1990   -0.1700   36.6610 O.2     1  3AB1       -0.2667
     10  N1'       27.5900   -1.0580   38.1290 N.am    1  3AB1       -0.0837
@<TRIPOS>BOND
     1     9     8    2
     2     6     5   ar
     3     6     7   ar
     4     5     4   ar
     5     8     7    1
     6     8    10   am
     7     7     3   ar
     8     4     2   ar
     9     3     2   ar
    10     2     1    1
