@<TRIPOS>MOLECULE
3gp0_NIL_A_1.pdb
 39 43 0 0 0
SMALL
GASTEIGER

@<TRIPOS>ATOM
      1  O17       19.8780   60.1390   22.9360 O.2     1  NIL1       -0.2680
      2  C16       19.1410   59.7490   23.8470 C.2     1  NIL1        0.2690
      3  N14       18.3680   58.6150   23.7530 N.am    1  NIL1       -0.1754
      4  C11       18.4440   57.7110   22.7500 C.ar    1  NIL1        0.0749
      5  C9        17.3340   56.8940   22.4470 C.ar    1  NIL1        0.0312
      6  C8        17.3950   55.9320   21.4600 C.ar    1  NIL1        0.0507
      7  N51       16.3110   55.1500   21.2400 N.pl3   1  NIL1       -0.2819
      8  C56       15.2030   55.0650   22.0270 C.3     1  NIL1        0.1337
      9  C55       14.4220   54.1530   21.4650 C.2     1  NIL1        0.0539
     10  C58       13.0550   53.7100   22.0060 C.3     1  NIL1        0.0487
     11  N54       15.0210   53.6560   20.3830 N.2     1  NIL1       -0.2549
     12  C52       16.1830   54.2740   20.2330 C.3     1  NIL1        0.2194
     13  C6        18.6080   55.7200   20.7550 C.ar    1  NIL1        0.0185
     14  C12       19.6470   57.5120   22.0380 C.ar    1  NIL1        0.0205
     15  C5        19.7220   56.5290   21.0490 C.ar    1  NIL1        0.0739
     16  C2        21.0390   56.3490   20.2500 C.3     1  NIL1        0.4187
     17  F4        22.1010   56.2240   21.0030 F       1  NIL1       -0.1659
     18  F3        20.9400   55.3410   19.4480 F       1  NIL1       -0.1659
     19  F1        21.3140   57.3350   19.4510 F       1  NIL1       -0.1659
     20  C18       19.0860   60.5960   25.1220 C.ar    1  NIL1        0.0567
     21  C25       18.4420   60.1960   26.3010 C.ar    1  NIL1        0.0043
     22  C23       18.4570   61.0080   27.4390 C.ar    1  NIL1       -0.0028
     23  C22       19.1550   62.2240   27.4160 C.ar    1  NIL1       -0.0058
     24  C27       19.1860   63.1270   28.6500 C.3     1  NIL1        0.0324
     25  C21       19.8120   62.6190   26.2570 C.ar    1  NIL1        0.0787
     26  C19       19.7860   61.8080   25.1080 C.ar    1  NIL1        0.0216
     27  N31       20.4830   63.7890   26.2300 N.pl3   1  NIL1       -0.1361
     28  C33       20.2290   64.7980   25.3740 C.1     1  NIL1        0.1696
     29  N40       19.0500   64.9280   24.7240 N.2     1  NIL1       -0.1683
     30  C38       18.8170   65.9400   23.9070 C.2     1  NIL1        0.1144
     31  C36       19.8230   66.9020   23.7160 C.2     1  NIL1        0.0546
     32  C35       21.0570   66.7530   24.3810 C.2     1  NIL1        0.1472
     33  N34       21.2200   65.7040   25.2090 N.2     1  NIL1       -0.3361
     34  C41       22.1420   67.6590   24.1940 C.ar    1  NIL1        0.0497
     35  C49       22.0460   68.7000   23.2470 C.ar    1  NIL1        0.0057
     36  C47       23.1410   69.5810   23.0690 C.ar    1  NIL1        0.0208
     37  C45       24.3000   69.3720   23.8450 C.ar    1  NIL1        0.0989
     38  N44       24.3900   68.3550   24.7240 N.ar    1  NIL1       -0.2422
     39  C42       23.3470   67.5040   24.9260 C.ar    1  NIL1        0.1014
@<TRIPOS>BOND
     1    18    16    1
     2    19    16    1
     3    12    11    1
     4    12     7    1
     5    16    17    1
     6    16    15    1
     7    11     9    2
     8    13    15   ar
     9    13     6   ar
    10    15    14   ar
    11     7     6    1
    12     7     8    1
    13     6     5   ar
    14     9    10    1
    15     9     8    1
    16    14     4   ar
    17     5     4   ar
    18     4     3    1
    19     1     2    2
    20    36    35   ar
    21    36    37   ar
    22    35    34   ar
    23    31    30    2
    24    31    32    1
    25     3     2   am
    26    37    38   ar
    27     2    20    1
    28    30    29    1
    29    34    32    1
    30    34    39   ar
    31    32    33    2
    32    38    39   ar
    33    29    28    2
    34    26    20   ar
    35    26    25   ar
    36    20    21   ar
    37    33    28    2
    38    28    27    1
    39    27    25    1
    40    25    23   ar
    41    21    22   ar
    42    23    22   ar
    43    23    24    1
