@<TRIPOS>MOLECULE
3gp3_SEP_A_1.pdb
 11 10 0 0 0
SMALL
GASTEIGER

@<TRIPOS>ATOM
      1  N         -5.3370   -3.1500    7.4150 N.3   252  SEP252     -0.1181
      2  CA        -6.0660   -3.1530    6.1270 C.3   252  SEP252      0.2242
      3  CB        -6.3900   -4.5650    5.6980 C.3   252  SEP252      0.1842
      4  OG        -6.5600   -5.4460    6.7940 O.3   252  SEP252     -0.2681
      5  C         -7.4040   -2.4420    6.2440 C.2   252  SEP252      0.3844
      6  O         -7.9370   -2.1110    5.1920 O.co2 252  SEP252     -0.2440
      7  OXT       -7.9240   -2.3580    7.3750 O.co2 252  SEP252     -0.2440
      8  P         -6.7330   -7.0420    6.2920 P.3   252  SEP252      0.5327
      9  O1P       -7.8440   -7.5350    7.3660 O.3   252  SEP252     -0.1145
     10  O2P       -7.1480   -7.1200    4.7860 O.2   252  SEP252     -0.2224
     11  O3P       -5.3910   -7.7770    6.5360 O.3   252  SEP252     -0.1145
@<TRIPOS>BOND
     1    10     8    2
     2     6     5   ar
     3     3     2    1
     4     3     4    1
     5     2     5    1
     6     2     1    1
     7     5     7   ar
     8     8    11    1
     9     8     4    1
    10     8     9    1
