@<TRIPOS>MOLECULE
3gp5_3PG_A_1.pdb
 11 10 0 0 0
SMALL
GASTEIGER

@<TRIPOS>ATOM
      1  C1        -0.2090  -19.1540   29.5360 C.2   252  3PG252      0.3972
      2  O1        -1.2540  -19.0620   30.2130 O.co2 252  3PG252     -0.2427
      3  O2         0.5500  -18.1910   29.3550 O.co2 252  3PG252     -0.2427
      4  C2         0.2370  -20.4180   28.8260 C.3   252  3PG252      0.2838
      5  O3         1.0560  -21.2640   29.6190 O.3   252  3PG252     -0.2081
      6  C3        -0.8390  -21.2940   28.2450 C.3   252  3PG252      0.1983
      7  O1P       -1.9240  -20.5380   27.7110 O.3   252  3PG252     -0.2669
      8  P         -2.4800  -20.9000   26.2700 P.3   252  3PG252      0.5327
      9  O2P       -3.9170  -20.4520   26.4660 O.3   252  3PG252     -0.1145
     10  O3P       -2.3600  -22.4380   26.1770 O.3   252  3PG252     -0.1145
     11  O4P       -1.5980  -20.1200   25.3380 O.2   252  3PG252     -0.2224
@<TRIPOS>BOND
     1    11     8    2
     2    10     8    1
     3     8     9    1
     4     8     7    1
     5     7     6    1
     6     6     4    1
     7     4     1    1
     8     4     5    1
     9     3     1   ar
    10     1     2   ar
