@<TRIPOS>MOLECULE
3gp6_SDS_A_1.pdb
 17 16 0 0 0
SMALL
GASTEIGER

@<TRIPOS>ATOM
      1  S         12.3050   45.0430   25.1570 S.3   163  SDS163     -0.0001
      2  O1S       11.7680   46.1900   24.4980 O.2   163  SDS163     -0.3452
      3  O2S       11.1740   44.5690   26.1390 O.3   163  SDS163     -0.2412
      4  O3S       12.5350   43.9290   24.2940 O.2   163  SDS163     -0.3452
      5  O4        13.4860   45.3020   25.9750 O.3   163  SDS163     -0.2682
      6  C1        11.2290   45.2040   27.4850 C.3   163  SDS163      0.1725
      7  C2         7.8400   42.7600   39.9210 C.3   163  SDS163      0.0000
      8  C3         8.6540   43.7830   39.0600 C.3   163  SDS163      0.0000
      9  C4         8.8210   43.3650   37.6200 C.3   163  SDS163      0.0000
     10  C5         9.6580   44.2690   36.7360 C.3   163  SDS163      0.0000
     11  C6         9.7490   43.8260   35.3140 C.3   163  SDS163      0.0000
     12  C7        10.7200   44.6280   34.4300 C.3   163  SDS163      0.0000
     13  C8        10.6530   44.2840   32.9300 C.3   163  SDS163      0.0000
     14  C9        11.4190   45.2970   32.0620 C.3   163  SDS163      0.0000
     15  C10       11.4700   44.9510   30.5610 C.3   163  SDS163      0.0001
     16  C11       10.2170   45.1840   29.7660 C.3   163  SDS163      0.0027
     17  C12       10.2240   44.5680   28.3650 C.3   163  SDS163      0.0346
@<TRIPOS>BOND
     1     4     1    2
     2     2     1    2
     3     1     5    1
     4     1     3    1
     5     3     6    1
     6     6    17    1
     7    17    16    1
     8    16    15    1
     9    15    14    1
    10    14    13    1
    11    13    12    1
    12    12    11    1
    13    11    10    1
    14    10     9    1
    15     9     8    1
    16     8     7    1
