@<TRIPOS>MOLECULE
3gp9_GDP_A_1.pdb
 28 30 0 0 0
SMALL
GASTEIGER

@<TRIPOS>ATOM
      1  PB       -10.2060   13.6330   17.7820 P.3   138  GDP138      0.5373
      2  O1B       -8.8110   14.1690   17.5580 O.3   138  GDP138     -0.1143
      3  O2B      -10.8160   14.3660   18.9510 O.3   138  GDP138     -0.1143
      4  O3B      -11.0370   13.8590   16.5410 O.2   138  GDP138     -0.2221
      5  O3A      -10.1380   12.0590   18.1190 O.3   138  GDP138     -0.2261
      6  PA       -11.5080   11.2450   18.3260 P.3   138  GDP138      0.2231
      7  O1A      -11.2840    9.7820   18.5910 O.2   138  GDP138     -0.5169
      8  O2A      -12.3450   11.8810   19.4100 O.3   138  GDP138     -0.4370
      9  O5'      -12.2030   11.4110   16.8850 O.3   138  GDP138     -0.3111
     10  C5'      -13.6130   11.5920   16.8200 C.3   138  GDP138      0.1813
     11  C4'      -13.8020   13.0610   16.5340 C.3   138  GDP138      0.1799
     12  O4'      -14.8180   13.2410   15.5600 O.3   138  GDP138     -0.3326
     13  C3'      -14.2280   13.8530   17.7640 C.3   138  GDP138      0.2158
     14  O3'      -13.1660   14.7100   18.1900 O.3   138  GDP138     -0.2175
     15  C2'      -15.3730   14.7260   17.3010 C.3   138  GDP138      0.2310
     16  O2'      -15.1170   16.0910   17.6410 O.3   138  GDP138     -0.2158
     17  C1'      -15.3230   14.5550   15.7940 C.3   138  GDP138      0.2293
     18  N9       -16.6350   14.7590   15.1490 N.pl3 138  GDP138     -0.2354
     19  C8       -17.5270   13.8290   14.7670 C.3   138  GDP138      0.2246
     20  N7       -18.6030   14.4180   14.1930 N.2   138  GDP138     -0.2322
     21  C5       -18.3940   15.7510   14.2030 C.2   138  GDP138      0.2182
     22  C6       -19.1170   16.9680   13.7620 C.1   138  GDP138      0.2372
     23  O6       -20.2370   16.8840   13.2150 O.2   138  GDP138     -0.2069
     24  N1       -18.5350   18.1590   13.9700 N.2   138  GDP138     -0.2485
     25  C2       -17.3290   18.2860   14.5580 C.1   138  GDP138      0.2531
     26  N2       -16.8060   19.5230   14.7320 N.pl3 138  GDP138     -0.0226
     27  N3       -16.6110   17.2200   14.9870 N.2   138  GDP138     -0.3074
     28  C4       -17.0890   15.9620   14.8350 C.2   138  GDP138      0.2300
@<TRIPOS>BOND
     1    23    22    2
     2    22    24    2
     3    22    21    1
     4    24    25    2
     5    20    21    2
     6    20    19    1
     7    21    28    1
     8    25    26    1
     9    25    27    2
    10    19    18    1
    11    28    27    2
    12    28    18    1
    13    18    17    1
    14    12    17    1
    15    12    11    1
    16    17    15    1
    17    11    10    1
    18    11    13    1
    19     4     1    2
    20    10     9    1
    21     9     6    1
    22    15    16    1
    23    15    13    1
    24     2     1    1
    25    13    14    1
    26     1     5    1
    27     1     3    1
    28     5     6    1
    29     6     7    2
    30     6     8    1
