@<TRIPOS>MOLECULE
3gpa_CDP_A_1.pdb
 25 26 0 0 0
SMALL
GASTEIGER

@<TRIPOS>ATOM
      1  O3B      -10.5400   12.9120   17.4020 O.3   201  CDP201     -0.1143
      2  PB       -10.0000   14.3140   17.5640 P.3   201  CDP201      0.5373
      3  O1B       -9.4660   14.6370   18.9350 O.3   201  CDP201     -0.1143
      4  O2B       -9.0830   14.7650   16.4520 O.2   201  CDP201     -0.2221
      5  O3A      -11.3210   15.1990   17.2640 O.3   201  CDP201     -0.2261
      6  PA       -12.3210   15.8880   18.3180 P.3   201  CDP201      0.2231
      7  O1A      -11.7060   15.9770   19.6880 O.3   201  CDP201     -0.4370
      8  O2A      -12.9480   17.0990   17.6820 O.2   201  CDP201     -0.5169
      9  O5'      -13.3750   14.7070   18.5070 O.3   201  CDP201     -0.3111
     10  C5'      -14.5230   14.6320   17.7140 C.3   201  CDP201      0.1813
     11  C4'      -14.5220   13.1960   17.2620 C.3   201  CDP201      0.1799
     12  O4'      -15.8900   12.9460   17.0100 O.3   201  CDP201     -0.3320
     13  C3'      -13.7960   13.1720   15.9220 C.3   201  CDP201      0.2158
     14  O3'      -12.6580   12.3090   15.8870 O.3   201  CDP201     -0.2175
     15  C2'      -14.8320   12.7460   14.9130 C.3   201  CDP201      0.2319
     16  O2'      -14.7930   11.3240   14.7990 O.3   201  CDP201     -0.2157
     17  C1'      -16.1380   13.0780   15.6080 C.3   201  CDP201      0.2400
     18  N1       -16.6820   14.3870   15.2190 N.am  201  CDP201     -0.1778
     19  C2       -17.9110   14.3370   14.5610 C.1   201  CDP201      0.2756
     20  O2       -18.4210   13.2120   14.4130 O.2   201  CDP201     -0.1925
     21  N3       -18.5190   15.4650   14.1340 N.2   201  CDP201     -0.3024
     22  C4       -17.9310   16.6660   14.3330 C.2   201  CDP201      0.2346
     23  N4       -18.5550   17.7860   13.8930 N.pl3 201  CDP201     -0.0921
     24  C5       -16.6940   16.7400   14.9760 C.2   201  CDP201      0.0687
     25  C6       -16.0650   15.5690   15.4040 C.2   201  CDP201      0.0836
@<TRIPOS>BOND
     1    23    22    1
     2    21    22    2
     3    21    19    2
     4    22    24    1
     5    20    19    2
     6    19    18   am
     7    16    15    1
     8    15    17    1
     9    15    13    1
    10    24    25    2
    11    18    25    1
    12    18    17    1
    13    17    12    1
    14    14    13    1
    15    13    11    1
    16     4     2    2
    17    12    11    1
    18    11    10    1
    19     5     2    1
    20     5     6    1
    21     1     2    1
    22     2     3    1
    23     8     6    2
    24    10     9    1
    25     6     9    1
    26     6     7    1
