@<TRIPOS>MOLECULE
3gpb_PLP_A_1.pdb
 15 15 0 0 0
SMALL
GASTEIGER

@<TRIPOS>ATOM
      1  N1        24.7570   25.5000   30.1540 N.ar  999  PLP999     -0.2452
      2  C2        23.6590   24.7400   30.3630 C.ar  999  PLP999      0.0978
      3  C2A       22.6060   25.2260   31.3300 C.3   999  PLP999      0.0555
      4  C3        23.5250   23.5260   29.7350 C.ar  999  PLP999      0.2049
      5  O3        22.3870   22.7700   29.9210 O.3   999  PLP999     -0.2857
      6  C4        24.4870   23.0940   28.8870 C.ar  999  PLP999      0.0182
      7  C4A       24.3040   21.7770   28.0970 C.3   999  PLP999      0.0342
      8  C5        25.6050   23.8850   28.6720 C.ar  999  PLP999      0.0261
      9  C6        25.7360   25.0670   29.3290 C.ar  999  PLP999      0.0965
     10  C5A       26.5220   23.6350   27.4670 C.3   999  PLP999      0.1815
     11  O4P       26.1620   24.4710   26.3330 O.3   999  PLP999     -0.2653
     12  P         27.0740   24.6970   25.0870 P.3   999  PLP999      0.5329
     13  O1P       27.6760   23.4220   24.7220 O.3   999  PLP999     -0.1145
     14  O2P       26.1990   25.3470   24.0840 O.2   999  PLP999     -0.2224
     15  O3P       28.3550   25.6290   25.4620 O.3   999  PLP999     -0.1145
@<TRIPOS>BOND
     1    14    12    2
     2    13    12    1
     3    12    15    1
     4    12    11    1
     5    11    10    1
     6    10     8    1
     7     7     6    1
     8     8     6   ar
     9     8     9   ar
    10     6     4   ar
    11     9     1   ar
    12     4     5    1
    13     4     2   ar
    14     1     2   ar
    15     2     3    1
