@<TRIPOS>MOLECULE
3gpb_G1P_A_1.pdb
 16 16 0 0 0
SMALL
GASTEIGER

@<TRIPOS>ATOM
      1  C1        33.7170   22.8440   27.9500 C.3   900  G1P900      0.2781
      2  C2        34.1010   22.9780   26.4350 C.3   900  G1P900      0.2410
      3  C3        32.9420   22.4260   25.5300 C.3   900  G1P900      0.2198
      4  C4        32.6880   21.0080   25.8920 C.3   900  G1P900      0.2144
      5  C5        32.4880   20.8010   27.4190 C.3   900  G1P900      0.1835
      6  C6        32.2750   19.3500   27.7350 C.3   900  G1P900      0.2142
      7  O1        32.3890   23.3650   28.2180 O.3   900  G1P900     -0.2416
      8  O2        34.4700   24.2680   25.9470 O.3   900  G1P900     -0.2149
      9  O3        33.2310   22.4910   24.1290 O.3   900  G1P900     -0.2174
     10  O4        31.5060   20.6690   25.1990 O.3   900  G1P900     -0.2176
     11  O5        33.6350   21.3340   28.1680 O.3   900  G1P900     -0.3253
     12  O6        33.3990   18.5860   27.3040 O.3   900  G1P900     -0.2176
     13  P         31.9460   24.8500   28.7630 P.3   900  G1P900      0.5346
     14  O1P       32.7230   25.7300   27.9120 O.2   900  G1P900     -0.2223
     15  O2P       30.4210   24.9880   28.4280 O.3   900  G1P900     -0.1145
     16  O3P       32.3440   24.8010   30.2510 O.3   900  G1P900     -0.1145
@<TRIPOS>BOND
     1     9     3    1
     2    10     4    1
     3     3     4    1
     4     3     2    1
     5     4     5    1
     6     8     2    1
     7     2     1    1
     8    12     6    1
     9     5     6    1
    10     5    11    1
    11    14    13    2
    12     1    11    1
    13     1     7    1
    14     7    13    1
    15    15    13    1
    16    13    16    1
