@<TRIPOS>MOLECULE
3gpc_COA_A_1.pdb
 42 44 0 0 0
SMALL
GASTEIGER

@<TRIPOS>ATOM
      1  N1A       31.8160   -8.4110   11.1100 N.2   578  COA578      0.0021
      2  C2A       31.6880   -8.0250   12.4300 C.3   578  COA578      0.5254
      3  N3A       30.5110   -8.2700   13.1040 N.2   578  COA578     -0.0055
      4  C4A       29.4960   -8.8570   12.4170 C.2   578  COA578      0.3518
      5  C5A       29.5760   -9.2550   11.0820 C.2   578  COA578      0.2526
      6  C6A       30.7980   -9.0210   10.4120 C.2   578  COA578      0.4393
      7  N6A       31.0400   -9.4180    9.1550 N.pl3 578  COA578      0.2180
      8  N7A       28.3690   -9.8020   10.7290 N.2   578  COA578     -0.2095
      9  C8A       27.5600   -9.7540   11.8190 C.3   578  COA578      0.3377
     10  N9A       28.2680   -9.1500   12.8640 N.pl3 578  COA578     -0.1439
     11  C1B       27.9290   -8.7950   14.2630 C.3   578  COA578      0.3185
     12  C2B       27.4940   -7.3200   14.4060 C.3   578  COA578      0.2543
     13  O2B       27.8340   -6.7280   15.6740 O.3   578  COA578     -0.2131
     14  C3B       26.0060   -7.4480   14.2090 C.3   578  COA578      0.1928
     15  O3B       25.2370   -6.4180   14.8220 O.3   578  COA578     -0.2673
     16  P3B       24.1380   -6.6670   16.0050 P.3   578  COA578      0.5327
     17  O7A       23.4390   -5.3560   16.2990 O.3   578  COA578     -0.1145
     18  O8A       24.8580   -7.1510   17.2530 O.3   578  COA578     -0.1145
     19  O9A       23.0560   -7.6570   15.6260 O.2   578  COA578     -0.2224
     20  C4B       25.7490   -8.8270   14.8000 C.3   578  COA578      0.1795
     21  O4B       26.8900   -9.6340   14.6820 O.3   578  COA578     -0.3136
     22  C5B       24.6370   -9.5190   14.0850 C.3   578  COA578      0.1812
     23  O5B       24.1070  -10.4310   15.0020 O.3   578  COA578     -0.3112
     24  P1A       22.6570  -11.0100   14.6660 P.3   578  COA578      0.2189
     25  O1A       22.6460  -11.6350   13.2930 O.2   578  COA578     -0.5170
     26  O2A       21.6060   -9.9290   14.8150 O.3   578  COA578     -0.4371
     27  O3A       22.5260  -12.2380   15.6990 O.3   578  COA578     -0.2703
     28  P2A       22.5720  -12.0620   17.2960 P.3   578  COA578      0.2188
     29  O4A       21.4380  -12.9160   17.8390 O.3   578  COA578     -0.4371
     30  O5A       22.4190  -10.6130   17.7160 O.2   578  COA578     -0.5170
     31  O6A       24.0260  -12.6290   17.7430 O.3   578  COA578     -0.3138
     32  CBP       25.0570  -14.7030   18.4060 C.3   578  COA578      0.0645
     33  CCP       24.6220  -13.8090   17.2390 C.3   578  COA578      0.1519
     34  CDP       25.4510  -13.7850   19.5720 C.3   578  COA578      0.0056
     35  CEP       26.2970  -15.4530   17.9270 C.3   578  COA578      0.0056
     36  CAP       23.9730  -15.7410   18.7800 C.3   578  COA578      0.2312
     37  OAP       22.7920  -15.4840   18.0440 O.3   578  COA578     -0.2131
     38  C9P       23.5800  -15.8870   20.2460 C.2   578  COA578      0.2719
     39  O9P       22.2170  -16.0040   20.5840 O.2   578  COA578     -0.2706
     40  N8P       24.4930  -15.9440   21.2200 N.am  578  COA578     -0.2033
     41  C7P       24.1240  -15.6550   22.6000 C.3   578  COA578      0.1153
     42  C6P       23.8300  -16.9240   23.3950 C.3   578  COA578      0.0253
@<TRIPOS>BOND
     1     7     6    1
     2     6     5    1
     3     6     1    2
     4     8     5    2
     5     8     9    1
     6     5     4    1
     7     1     2    1
     8     9    10    1
     9     4    10    1
    10     4     3    2
    11     2     3    1
    12    10    11    1
    13    25    24    2
    14    22    20    1
    15    22    23    1
    16    14    12    1
    17    14    20    1
    18    14    15    1
    19    11    12    1
    20    11    21    1
    21    12    13    1
    22    24    26    1
    23    24    23    1
    24    24    27    1
    25    21    20    1
    26    15    16    1
    27    19    16    2
    28    27    28    1
    29    16    17    1
    30    16    18    1
    31    33    31    1
    32    33    32    1
    33    28    30    2
    34    28    31    1
    35    28    29    1
    36    35    32    1
    37    37    36    1
    38    32    36    1
    39    32    34    1
    40    36    38    1
    41    38    39    2
    42    38    40   am
    43    40    41    1
    44    41    42    1
