@<TRIPOS>MOLECULE
3gpd_NAD_G_1.pdb
 44 48 0 0 0
SMALL
GASTEIGER

@<TRIPOS>ATOM
      1  PA        -3.9840    9.4750   18.2250 P.3   336  NAD336      0.2189
      2  O1A       -3.8660    8.0170   18.4570 O.3   336  NAD336     -0.4371
      3  O2A       -3.2570    9.8190   16.9830 O.2   336  NAD336     -0.5170
      4  O5B       -3.3440   10.2600   19.4450 O.3   336  NAD336     -0.3112
      5  C5B       -4.0290   10.2350   20.6680 C.3   336  NAD336      0.1813
      6  C4B       -3.0330   10.3190   21.8100 C.3   336  NAD336      0.1821
      7  O4B       -3.5740   11.1580   22.8730 O.3   336  NAD336     -0.3135
      8  C3B       -2.8450    9.0630   22.3010 C.3   336  NAD336      0.2184
      9  O3B       -1.4610    8.6290   22.1840 O.3   336  NAD336     -0.2174
     10  C2B       -3.2160    9.3300   23.5380 C.3   336  NAD336      0.2570
     11  O2B       -3.8440    8.3800   24.1390 O.3   336  NAD336     -0.2130
     12  C1B       -3.2560   10.6560   24.1320 C.3   336  NAD336      0.3186
     13  N9A       -4.3890   10.6820   25.1910 N.pl3 336  NAD336     -0.1439
     14  C8A       -5.6060   11.3710   25.2820 C.3   336  NAD336      0.3377
     15  N7A       -5.5890   11.8270   26.6680 N.2   336  NAD336     -0.2095
     16  C5A       -4.4520   11.1170   27.4190 C.2   336  NAD336      0.2526
     17  C6A       -3.9510   10.9720   28.8190 C.2   336  NAD336      0.4393
     18  N6A       -4.2670   11.8290   29.7880 N.pl3 336  NAD336      0.2180
     19  N1A       -3.1120    9.8980   29.1220 N.2   336  NAD336      0.0021
     20  C2A       -2.7370    9.0650   28.1020 C.3   336  NAD336      0.5254
     21  N3A       -3.0410    9.1470   26.8130 N.2   336  NAD336     -0.0055
     22  C4A       -3.9370   10.1800   26.5210 C.2   336  NAD336      0.3518
     23  O3        -5.4760   10.0420   18.3400 O.3   336  NAD336     -0.2703
     24  PN        -6.8060   10.2530   17.3390 P.3   336  NAD336      0.2189
     25  O1N       -6.7700    9.2870   16.2190 O.2   336  NAD336     -0.5170
     26  O2N       -6.8010   11.6250   16.7780 O.3   336  NAD336     -0.4371
     27  O5D       -8.0380    9.9450   18.3580 O.3   336  NAD336     -0.3112
     28  C5D       -8.9230   11.0250   18.7680 C.3   336  NAD336      0.1813
     29  C4D      -10.4190   10.6260   18.7260 C.3   336  NAD336      0.1799
     30  O4D      -11.1110   11.2650   17.5660 O.3   336  NAD336     -0.3327
     31  C3D      -10.7420    9.1560   18.5850 C.3   336  NAD336      0.2158
     32  O3D      -10.7730    8.4240   19.8270 O.3   336  NAD336     -0.2175
     33  C2D      -12.1640    9.2270   17.9390 C.3   336  NAD336      0.2309
     34  O2D      -13.1230    9.4040   19.0000 O.3   336  NAD336     -0.2158
     35  C1D      -12.1710   10.4610   16.9980 C.3   336  NAD336      0.2263
     36  N1N      -12.0750   10.4070   15.3670 N.pl3 336  NAD336     -0.2787
     37  C2N      -11.0370    9.7930   14.5640 C.3   336  NAD336      0.1244
     38  C3N      -10.9890    9.9270   13.2020 C.2   336  NAD336      0.0544
     39  C7N       -9.5630    9.3970   12.6830 C.2   336  NAD336      0.2818
     40  O7N       -9.4410    8.9490   11.5560 O.2   336  NAD336     -0.2670
     41  N7N       -8.5430    9.4920   13.5680 N.am  336  NAD336     -0.0839
     42  C4N      -11.9750   10.6180   12.4640 C.2   336  NAD336      0.0033
     43  C5N      -12.9790   11.1390   13.2760 C.2   336  NAD336      0.0157
     44  C6N      -13.1060   11.0870   14.6440 C.2   336  NAD336      0.0633
@<TRIPOS>BOND
     1    40    39    2
     2    42    38    2
     3    42    43    1
     4    39    38    1
     5    39    41   am
     6    38    37    1
     7    43    44    2
     8    37    36    1
     9    44    36    1
    10    36    35    1
    11    25    24    2
    12    26    24    1
    13     3     1    2
    14    35    30    1
    15    35    33    1
    16    24    23    1
    17    24    27    1
    18    30    29    1
    19    33    31    1
    20    33    34    1
    21     1    23    1
    22     1     2    1
    23     1     4    1
    24    27    28    1
    25    31    29    1
    26    31    32    1
    27    29    28    1
    28     4     5    1
    29     5     6    1
    30     6     8    1
    31     6     7    1
    32     9     8    1
    33     8    10    1
    34     7    12    1
    35    10    12    1
    36    10    11    1
    37    12    13    1
    38    13    14    1
    39    13    22    1
    40    14    15    1
    41    22    21    2
    42    22    16    1
    43    15    16    2
    44    21    20    1
    45    16    17    1
    46    20    19    1
    47    17    19    2
    48    17    18    1
