@<TRIPOS>MOLECULE
3gpe_PT5_A_1.pdb
 24 24 0 0 0
SMALL
GASTEIGER

@<TRIPOS>ATOM
      1  O12       31.0180  -20.4850   20.6360 O.3   600  PT5600     -0.1145
      2  P1        29.9050  -21.4880   20.4500 P.3   600  PT5600      0.5327
      3  O13       28.6940  -21.4480   21.3500 O.3   600  PT5600     -0.1145
      4  O11       29.4000  -21.3990   18.9260 O.2   600  PT5600     -0.2224
      5  O6        31.2800  -21.9360   17.9480 O.3   600  PT5600     -0.2177
      6  O1        30.5370  -22.9660   20.5230 O.3   600  PT5600     -0.2673
      7  C1        31.4900  -23.3970   19.5530 C.3   600  PT5600      0.1918
      8  C6        32.1520  -22.1810   18.9150 C.3   600  PT5600      0.2120
      9  C2        32.5180  -24.2990   20.2260 C.3   600  PT5600      0.2147
     10  O2        33.0220  -23.6570   21.4030 O.3   600  PT5600     -0.2176
     11  C3        33.6760  -24.6160   19.2860 C.3   600  PT5600      0.2146
     12  O3        34.8760  -24.0150   19.7860 O.3   600  PT5600     -0.2176
     13  C4        33.3980  -24.1050   17.8770 C.3   600  PT5600      0.1892
     14  O4        32.2380  -24.7520   17.3560 O.3   600  PT5600     -0.2674
     15  P4        31.4920  -24.1620   16.0560 P.3   600  PT5600      0.5327
     16  O41       31.7040  -22.6700   16.1600 O.3   600  PT5600     -0.1145
     17  O42       32.2100  -24.8150   14.8970 O.2   600  PT5600     -0.2224
     18  O43       30.0570  -24.6020   16.2260 O.3   600  PT5600     -0.1145
     19  C5        33.1800  -22.5960   17.8690 C.3   600  PT5600      0.1891
     20  O5        34.4140  -21.9290   18.1240 O.3   600  PT5600     -0.2674
     21  P5        34.6640  -20.4400   17.5640 P.3   600  PT5600      0.5327
     22  O52       36.0000  -20.0490   18.1500 O.3   600  PT5600     -0.1145
     23  O51       34.6680  -20.6120   16.0630 O.2   600  PT5600     -0.2224
     24  O53       33.4940  -19.6470   18.0970 O.3   600  PT5600     -0.1145
@<TRIPOS>BOND
     1    17    15    2
     2    15    16    1
     3    15    18    1
     4    15    14    1
     5    23    21    2
     6    14    13    1
     7    21    24    1
     8    21    20    1
     9    21    22    1
    10    19    13    1
    11    19    20    1
    12    19     8    1
    13    13    11    1
    14     5     8    1
    15     8     7    1
    16     4     2    2
    17    11    12    1
    18    11     9    1
    19     7     9    1
    20     7     6    1
    21     9    10    1
    22     2     6    1
    23     2     1    1
    24     2     3    1
