@<TRIPOS>MOLECULE
3gph_OID_A_1.pdb
 17 17 0 0 0
SMALL
GASTEIGER

@<TRIPOS>ATOM
      1  O17       11.9910   -5.9390  -18.7990 O.co2 501  OID501     -0.2457
      2  C2        10.7600   -5.9400  -19.0560 C.2   501  OID501      0.3649
      3  O1        10.1630   -6.9310  -19.5400 O.co2 501  OID501     -0.2457
      4  C3         9.9690   -4.6870  -18.7810 C.3   501  OID501      0.1141
      5  C4         8.4560   -4.8970  -18.8020 C.3   501  OID501      0.0118
      6  C5         7.8960   -5.5470  -17.5380 C.3   501  OID501      0.0006
      7  C6         6.5560   -4.9010  -17.2110 C.3   501  OID501      0.0000
      8  C7         5.9590   -5.3970  -15.8940 C.3   501  OID501      0.0000
      9  C8         5.1940   -4.3160  -15.1190 C.3   501  OID501      0.0001
     10  C9         4.2910   -4.9950  -14.1010 C.3   501  OID501      0.0020
     11  C10        3.8800   -4.2090  -12.8560 C.3   501  OID501      0.0245
     12  C11        3.7340   -5.2150  -11.6930 C.3   501  OID501      0.1076
     13  N12        4.8160   -5.0240  -10.7220 N.ar  501  OID501     -0.3078
     14  C16        4.7440   -4.3450   -9.5680 C.ar  501  OID501      0.1786
     15  N15        5.9650   -4.3480   -8.9820 N.ar  501  OID501     -0.2223
     16  C14        6.7870   -5.0480   -9.7560 C.ar  501  OID501      0.1193
     17  C13        6.0710   -5.4620  -10.8510 C.ar  501  OID501      0.0980
@<TRIPOS>BOND
     1     3     2   ar
     2     2     1   ar
     3     2     4    1
     4     5     4    1
     5     5     6    1
     6     6     7    1
     7     7     8    1
     8     8     9    1
     9     9    10    1
    10    10    11    1
    11    11    12    1
    12    12    13    1
    13    17    13   ar
    14    17    16   ar
    15    13    14   ar
    16    16    15   ar
    17    14    15   ar
