@<TRIPOS>MOLECULE
3gph_HEM_A_1.pdb
 43 50 0 0 0
SMALL
GASTEIGER

@<TRIPOS>ATOM
      1  CHA        6.4660   -6.5120   -5.8220 C.2   500  HEM500      0.0000
      2  CHB        2.6250   -3.6500   -6.6100 C.2   500  HEM500      0.0000
      3  CHC        5.2680    0.1380   -7.7950 C.2   500  HEM500      0.0000
      4  CHD        9.2190   -2.7060   -7.0930 C.2   500  HEM500      0.0000
      5  C1A        5.1630   -6.0560   -5.9230 C.2   500  HEM500      0.0000
      6  C2A        3.9230   -6.7630   -5.5910 C.2   500  HEM500      0.0000
      7  C3A        2.8930   -5.9440   -5.8000 C.2   500  HEM500      0.0000
      8  C4A        3.4200   -4.7030   -6.2680 C.2   500  HEM500      0.0000
      9  CMA        1.3960   -6.2450   -5.6220 C.3   500  HEM500      0.0000
     10  CAA        3.7720   -8.2050   -5.0830 C.3   500  HEM500      0.0000
     11  CBA        4.1530   -8.3460   -3.6140 C.3   500  HEM500      0.0000
     12  CGA        4.2020   -9.8070   -3.2500 C.2   500  HEM500      0.0000
     13  O1A        3.3630  -10.2190   -2.4280 O.co2 500  HEM500      0.0000
     14  O2A        5.0800  -10.5500   -3.7720 O.co2 500  HEM500      0.0000
     15  C1B        2.9560   -2.3920   -7.0070 C.ar  500  HEM500      0.0000
     16  C2B        2.0230   -1.3400   -7.2410 C.ar  500  HEM500      0.0000
     17  C3B        2.7220   -0.2490   -7.5910 C.ar  500  HEM500      0.0000
     18  C4B        4.1320   -0.6140   -7.5650 C.ar  500  HEM500      0.0000
     19  CMB        0.4840   -1.5270   -7.1140 C.3   500  HEM500      0.0000
     20  CAB        2.0650    1.1030   -7.9450 C.2   500  HEM500      0.0000
     21  CBB        2.6990    2.1330   -8.4470 C.2   500  HEM500      0.0000
     22  C1C        6.5690   -0.3030   -7.6250 C.2   500  HEM500      0.0000
     23  C2C        7.7490    0.5030   -7.7030 C.2   500  HEM500      0.0000
     24  C3C        8.8490   -0.2830   -7.5300 C.2   500  HEM500      0.0000
     25  C4C        8.3870   -1.6220   -7.3010 C.2   500  HEM500      0.0000
     26  CMC        7.6250    2.0120   -7.9570 C.3   500  HEM500      0.0000
     27  CAC       10.3740    0.0110   -7.5110 C.2   500  HEM500      0.0000
     28  CBC       10.9440    1.2130   -7.6840 C.2   500  HEM500      0.0000
     29  C1D        8.9190   -3.9960   -6.7410 C.ar  500  HEM500      0.0000
     30  C2D        9.8420   -5.0860   -6.5540 C.ar  500  HEM500      0.0000
     31  C3D        8.9820   -6.2880   -6.1380 C.ar  500  HEM500      0.0000
     32  C4D        7.6170   -5.8040   -6.1130 C.ar  500  HEM500      0.0000
     33  CMD       11.3770   -5.0560   -6.7250 C.3   500  HEM500      0.0000
     34  CAD        9.4850   -7.7090   -5.8230 C.3   500  HEM500      0.0000
     35  CBD        9.5490   -7.8480   -4.3100 C.3   500  HEM500      0.0000
     36  CGD       10.0880   -9.1800   -3.8200 C.2   500  HEM500      0.0000
     37  O1D       10.8290   -9.1460   -2.7970 O.co2 500  HEM500      0.0000
     38  O2D        9.7890  -10.2580   -4.4030 O.co2 500  HEM500      0.0000
     39  NA         4.7900   -4.8030   -6.3340 N.2   500  HEM500      0.0000
     40  NB         4.2100   -1.9240   -7.2160 N.ar  500  HEM500      0.0000
     41  NC         7.0040   -1.5910   -7.3770 N.2   500  HEM500      0.0000
     42  ND         7.6550   -4.4680   -6.4870 N.ar  500  HEM500      0.0000
     43 FE          5.9680   -3.2220   -6.8160 Fe    500  HEM500      0.0000
@<TRIPOS>BOND
     1    21    20    2
     2    26    23    1
     3    20    17    1
     4     3    22    2
     5     3    18    1
     6    23    22    1
     7    23    24    2
     8    28    27    2
     9    22    41    1
    10    17    18   ar
    11    17    16   ar
    12    18    40   ar
    13    24    27    1
    14    24    25    1
    15    41    25    2
    16    41    43    1
    17    25     4    1
    18    16    19    1
    19    16    15   ar
    20    40    15   ar
    21    40    43    1
    22     4    29    2
    23    15     2    1
    24    43    42    1
    25    43    39    1
    26    29    30   ar
    27    29    42   ar
    28    33    30    1
    29     2     8    2
    30    30    31   ar
    31    42    32   ar
    32    39     8    1
    33    39     5    2
    34     8     7    1
    35    31    32   ar
    36    31    34    1
    37    32     1    2
    38     5     1    1
    39     5     6    1
    40    34    35    1
    41     7     9    1
    42     7     6    2
    43     6    10    1
    44    10    11    1
    45    38    36   ar
    46    35    36    1
    47    36    37   ar
    48    14    12   ar
    49    11    12    1
    50    12    13   ar
