@<TRIPOS>MOLECULE
3gpj_SY2_H_1.pdb
 35 35 0 0 0
SMALL
GASTEIGER

@<TRIPOS>ATOM
      1  C8        58.4080 -134.7200   34.8370 C.2   7710  SY27710     0.3401
      2  C6        53.4990 -133.8200   34.3290 C.3   7710  SY27710     0.0023
      3  C5        55.3630 -132.4710   35.4030 C.3   7710  SY27710     0.0023
      4  C4        55.0120 -133.3770   34.2130 C.3   7710  SY27710     0.0311
      5  O2        56.2100 -135.3210   31.8640 O.co2 7710  SY27710    -0.2437
      6  C1        55.7490 -135.5250   32.9990 C.2   7710  SY27710     0.3843
      7  C3        56.0320 -134.5800   34.1770 C.3   7710  SY27710     0.1993
      8  O35       54.9720 -136.5980   33.2820 O.co2 7710  SY27710    -0.2437
      9  N7        57.4300 -134.1120   34.0690 N.am  7710  SY27710    -0.1774
     10  N36       59.7200 -134.3110   34.7640 N.am  7710  SY27710    -0.1796
     11  C11       60.8080 -134.9370   35.5740 C.3   7710  SY27710     0.1743
     12  C15       60.5250 -134.8150   37.0350 C.2   7710  SY27710     0.2622
     13  N17       60.8820 -135.8770   37.8310 N.am  7710  SY27710    -0.1887
     14  C18       60.6490 -135.7740   39.2640 C.3   7710  SY27710     0.2001
     15  C34       59.5800 -136.8200   39.6980 C.3   7710  SY27710     0.0388
     16  C33       59.7260 -138.1980   38.9890 C.3   7710  SY27710     0.0050
     17  C32       59.1640 -139.3720   39.8620 C.3   7710  SY27710     0.0273
     18  C31       60.0440 -139.6580   41.1190 C.3   7710  SY27710     0.1375
     19  N30       59.6160 -138.8720   42.2730 N.2   7710  SY27710    -0.2063
     20  C28       60.4430 -138.2200   43.1580 C.1   7710  SY27710     0.1260
     21  O29       59.9300 -137.6070   44.0900 O.2   7710  SY27710    -0.2270
     22  C27       61.9730 -138.1960   43.0930 C.3   7710  SY27710     0.1237
     23  C26       62.5990 -136.8320   43.5280 C.3   7710  SY27710     0.0428
     24  C22       63.0540 -136.0130   42.2840 C.3   7710  SY27710     0.1156
     25  C23       63.6390 -134.6080   42.6930 C.3   7710  SY27710     0.0233
     26  C25       64.5510 -133.9970   41.5790 C.3   7710  SY27710     0.0020
     27  C24       62.5150 -133.5430   43.0590 C.3   7710  SY27710     0.0020
     28  N21       61.9030 -135.8630   41.3920 N.2   7710  SY27710    -0.2069
     29  C19       61.9610 -135.9930   40.0240 C.1   7710  SY27710     0.1457
     30  O20       63.0060 -136.2540   39.3870 O.2   7710  SY27710    -0.2253
     31  O16       60.0110 -133.8050   37.4520 O.2   7710  SY27710    -0.2715
     32  C12       62.2350 -134.3470   35.3170 C.3   7710  SY27710     0.0290
     33  C14       62.5940 -134.5310   33.8330 C.3   7710  SY27710     0.0023
     34  C13       62.3010 -132.8450   35.6530 C.3   7710  SY27710     0.0023
     35  O9        58.0780 -135.6310   35.5820 O.2   7710  SY27710    -0.2492
@<TRIPOS>BOND
     1     5     6   ar
     2     6     8   ar
     3     6     7    1
     4    33    32    1
     5     9     7    1
     6     9     1   am
     7     7     4    1
     8     4     2    1
     9     4     3    1
    10    10     1   am
    11    10    11    1
    12     1    35    2
    13    32    11    1
    14    32    34    1
    15    11    12    1
    16    12    31    2
    17    12    13   am
    18    13    14    1
    19    16    15    1
    20    16    17    1
    21    14    15    1
    22    14    29    1
    23    30    29    2
    24    17    18    1
    25    29    28    2
    26    18    19    1
    27    28    24    1
    28    26    25    1
    29    19    20    2
    30    24    25    1
    31    24    23    1
    32    25    27    1
    33    22    20    1
    34    22    23    1
    35    20    21    2
