@<TRIPOS>MOLECULE
3gpl_ANP_A_1.pdb
 31 33 0 0 0
SMALL
GASTEIGER

@<TRIPOS>ATOM
      1  PG        15.3430  -14.8050   31.7050 P.3   801  ANP801      0.4884
      2  O1G       15.3840  -14.4410   30.2720 O.2   801  ANP801     -0.2331
      3  O2G       16.6500  -14.3010   32.4950 O.3   801  ANP801     -0.1240
      4  O3G       14.0850  -14.1500   32.4650 O.3   801  ANP801     -0.1240
      5  PB        14.0090  -17.1200   31.2440 P.3   801  ANP801      0.4669
      6  O1B       13.9550  -16.6950   29.8280 O.2   801  ANP801     -0.2351
      7  O2B       12.8100  -16.8980   32.0820 O.3   801  ANP801     -0.1253
      8  N3B       15.2730  -16.4070   31.9750 N.3   801  ANP801     -0.0163
      9  PA        15.3000  -19.3950   30.2050 P.3   801  ANP801      0.2220
     10  O1A       14.4120  -20.0410   29.2140 O.2   801  ANP801     -0.5170
     11  O2A       16.3210  -18.4400   29.7180 O.3   801  ANP801     -0.4370
     12  O3A       14.3720  -18.6860   31.3150 O.3   801  ANP801     -0.2360
     13  O5'       16.0340  -20.5180   31.0900 O.3   801  ANP801     -0.3111
     14  C5'       16.8800  -21.4280   30.3880 C.3   801  ANP801      0.1813
     15  C4'       17.6180  -22.3770   31.3300 C.3   801  ANP801      0.1821
     16  O4'       16.6480  -23.2320   31.9620 O.3   801  ANP801     -0.3135
     17  C3'       18.3380  -23.2750   30.3240 C.3   801  ANP801      0.2184
     18  O3'       19.1760  -24.1900   31.0350 O.3   801  ANP801     -0.2174
     19  C2'       17.0990  -23.9950   29.7940 C.3   801  ANP801      0.2570
     20  O2'       17.4920  -25.1460   29.0440 O.3   801  ANP801     -0.2130
     21  C1'       16.5340  -24.4140   31.1510 C.3   801  ANP801      0.3186
     22  N9        15.1310  -24.8790   31.0790 N.pl3 801  ANP801     -0.1439
     23  C8        14.0910  -24.1740   30.6380 C.3   801  ANP801      0.3377
     24  N7        12.9780  -24.8940   30.7610 N.2   801  ANP801     -0.2095
     25  C5        13.3070  -26.0710   31.2860 C.2   801  ANP801      0.2526
     26  C6        12.5890  -27.1970   31.6610 C.2   801  ANP801      0.4393
     27  N6        11.2700  -27.2540   31.5020 N.pl3 801  ANP801      0.2180
     28  N1        13.2500  -28.2340   32.2000 N.2   801  ANP801      0.0021
     29  C2        14.5580  -28.1930   32.3720 C.3   801  ANP801      0.5254
     30  N3        15.2710  -27.1360   32.0250 N.2   801  ANP801     -0.0055
     31  C4        14.6800  -26.0630   31.4840 C.2   801  ANP801      0.3518
@<TRIPOS>BOND
     1    20    19    1
     2    10     9    2
     3    11     9    1
     4    19    17    1
     5    19    21    1
     6     6     5    2
     7     9    13    1
     8     9    12    1
     9     2     1    2
    10    17    18    1
    11    17    15    1
    12    14    13    1
    13    14    15    1
    14    23    24    1
    15    23    22    1
    16    24    25    2
    17    22    21    1
    18    22    31    1
    19    21    16    1
    20     5    12    1
    21     5     8    1
    22     5     7    1
    23    25    31    1
    24    25    26    1
    25    15    16    1
    26    31    30    2
    27    27    26    1
    28    26    28    2
    29     1     8    1
    30     1     4    1
    31     1     3    1
    32    30    29    1
    33    28    29    1
