@<TRIPOS>MOLECULE
3gpo_APR_A_1.pdb
 36 39 0 0 0
SMALL
GASTEIGER

@<TRIPOS>ATOM
      1  N1        15.2070   39.9840   -9.4250 N.2   161  APR161      0.0021
      2  C2        15.3640   41.2450   -8.9870 C.3   161  APR161      0.5254
      3  N3        15.1580   42.3210   -9.7700 N.2   161  APR161     -0.0055
      4  C4        14.7930   42.1800  -11.0660 C.2   161  APR161      0.3518
      5  C5        14.6140   40.8300  -11.6250 C.2   161  APR161      0.2526
      6  C6        14.8490   39.6980  -10.7010 C.2   161  APR161      0.4393
      7  N6        14.7020   38.4150  -11.1110 N.pl3 161  APR161      0.2180
      8  N7        14.2430   40.9880  -12.9100 N.2   161  APR161     -0.2095
      9  C8        14.2120   42.3260  -13.1600 C.3   161  APR161      0.3377
     10  N9        14.5490   43.0330  -12.0540 N.pl3 161  APR161     -0.1439
     11  C1'       14.5880   44.5090  -11.8620 C.3   161  APR161      0.3186
     12  C2'       14.4950   45.3220  -13.1460 C.3   161  APR161      0.2570
     13  O2'       15.7820   45.6850  -13.6600 O.3   161  APR161     -0.2130
     14  C3'       13.6950   46.5500  -12.7310 C.3   161  APR161      0.2184
     15  O3'       14.5820   47.5410  -12.1820 O.3   161  APR161     -0.2174
     16  O4'       13.3680   44.8000  -11.1530 O.3   161  APR161     -0.3135
     17  C4'       12.7910   46.0480  -11.6160 C.3   161  APR161      0.1821
     18  C5'       11.3450   45.8510  -12.0610 C.3   161  APR161      0.1813
     19  O5'       11.3220   45.5520  -13.4610 O.3   161  APR161     -0.3112
     20  PA        10.1890   44.6340  -14.1190 P.3   161  APR161      0.2189
     21  O1A       10.2250   43.2800  -13.4520 O.3   161  APR161     -0.4371
     22  O2A       10.3030   44.7180  -15.6140 O.2   161  APR161     -0.5170
     23  O3A        8.7660   45.2660  -13.6570 O.3   161  APR161     -0.2703
     24  PB         7.9370   46.5110  -14.2840 P.3   161  APR161      0.2189
     25  O1B        6.9110   46.8390  -13.1920 O.3   161  APR161     -0.4371
     26  O2B        8.9150   47.5490  -14.7530 O.2   161  APR161     -0.5170
     27  O5D        7.1290   45.8590  -15.4900 O.3   161  APR161     -0.3112
     28  C5D        6.1890   44.8180  -15.2360 C.3   161  APR161      0.1813
     29  O4D        7.1620   43.3430  -16.8410 O.3   161  APR161     -0.3237
     30  O1D        7.7820   41.1230  -17.0330 O.3   161  APR161     -0.1869
     31  C1D        6.7120   42.0250  -17.1990 C.3   161  APR161      0.3023
     32  O2D        4.6360   40.7150  -16.6350 O.3   161  APR161     -0.2148
     33  C2D        5.5400   41.7710  -16.2700 C.3   161  APR161      0.2433
     34  O3D        4.2340   43.0030  -17.8150 O.3   161  APR161     -0.2175
     35  C3D        4.8410   43.0870  -16.5100 C.3   161  APR161      0.2168
     36  C4D        5.9770   44.0880  -16.5500 C.3   161  APR161      0.1807
@<TRIPOS>BOND
     1    34    35    1
     2    31    30    1
     3    31    29    1
     4    31    33    1
     5    29    36    1
     6    32    33    1
     7    36    35    1
     8    36    28    1
     9    35    33    1
    10    22    20    2
    11    27    28    1
    12    27    24    1
    13    26    24    2
    14    24    23    1
    15    24    25    1
    16    20    23    1
    17    20    19    1
    18    20    21    1
    19    13    12    1
    20    19    18    1
    21     9     8    1
    22     9    10    1
    23    12    14    1
    24    12    11    1
    25     8     5    2
    26    14    15    1
    27    14    17    1
    28    18    17    1
    29    10    11    1
    30    10     4    1
    31    11    16    1
    32     5     4    1
    33     5     6    1
    34    17    16    1
    35     7     6    1
    36     4     3    2
    37     6     1    2
    38     3     2    1
    39     1     2    1
