@<TRIPOS>MOLECULE
3gpq_NUC_E_1.pdb
 35 38 0 0 0
SMALL
GASTEIGER

@<TRIPOS>ATOM
      1  OP3       13.2890   45.7400  -17.5330 O.2     1  RA1        -0.2224
      2  P         12.7870   44.8280  -16.4540 P.3     1  RA1         0.5327
      3  OP1       11.3430   45.0960  -16.2140 O.3     1  RA1        -0.1145
      4  OP2       13.1730   43.4290  -16.7940 O.3     1  RA1        -0.1145
      5  O5'       13.6230   45.2040  -15.1420 O.3     1  RA1        -0.2675
      6  C5'       13.2770   46.3380  -14.3460 C.3     1  RA1         0.1859
      7  C4'       14.0440   46.3120  -13.0370 C.3     1  RA1         0.1795
      8  O4'       13.4930   45.2990  -12.1510 O.3     1  RA1        -0.3136
      9  C3'       15.4950   45.8760  -13.1820 C.3     1  RA1         0.1884
     10  O3'       16.2580   46.9520  -13.6920 O.3     1  RA1        -0.3111
     11  C2'       15.8230   45.4750  -11.7400 C.3     1  RA1         0.2541
     12  O2'       15.8920   46.5650  -10.8380 O.3     1  RA1        -0.2131
     13  C1'       14.5680   44.6870  -11.4420 C.3     1  RA1         0.3185
     14  N9        14.6190   43.2680  -11.7620 N.pl3   1  RA1        -0.1439
     15  C8        14.1070   42.6450  -12.8830 C.3     1  RA1         0.3377
     16  N7        14.2710   41.3460  -12.8540 N.2     1  RA1        -0.2095
     17  C5        14.9280   41.0990  -11.6580 C.2     1  RA1         0.2526
     18  C6        15.3830   39.9290  -11.0270 C.2     1  RA1         0.4393
     19  N6        15.2560   38.7210  -11.5430 N.pl3   1  RA1         0.2180
     20  N1        15.9880   40.0490   -9.8210 N.2     1  RA1         0.0021
     21  C2        16.1420   41.2580   -9.2850 C.3     1  RA1         0.5254
     22  N3        15.7520   42.4170   -9.7740 N.2     1  RA1        -0.0055
     23  C4        15.1500   42.2780  -10.9670 C.2     1  RA1         0.3518
     24  P         17.8550   46.8780  -13.6060 P.3     2  RA2         0.2141
     25  OP1       18.2800   45.6460  -14.3140 O.2     2  RA2        -0.5172
     26  OP2       18.2280   47.0510  -12.1730 O.3     2  RA2        -0.4373
     27  O5'       18.3050   48.1790  -14.4380 O.3     2  RA2        -0.3114
     28  C5'       17.4950   49.3660  -14.4230 C.3     2  RA2         0.1812
     29  C4'       17.9160   50.4390  -15.4200 C.3     2  RA2         0.1780
     30  O4'       19.3120   50.3360  -15.8210 O.3     2  RA2        -0.3482
     31  C3'       17.1220   50.4860  -16.7280 C.3     2  RA2         0.2140
     32  O3'       16.1650   51.5500  -16.6810 O.3     2  RA2        -0.2176
     33  C2'       18.1960   50.7050  -17.8030 C.3     2  RA2         0.2140
     34  O2'       17.8590   51.6860  -18.7680 O.3     2  RA2        -0.2176
     35  C1'       19.4050   51.1460  -16.9770 C.3     2  RA2         0.1777
@<TRIPOS>BOND
     1    34    33    1
     2    33    35    1
     3    33    31    1
     4     1     2    2
     5    35    30    1
     6     4     2    1
     7    31    32    1
     8    31    29    1
     9     2     3    1
    10     2     5    1
    11    30    29    1
    12    29    28    1
    13     5     6    1
    14    27    28    1
    15    27    24    1
    16     6     7    1
    17    25    24    2
    18    10    24    1
    19    10     9    1
    20    24    26    1
    21     9     7    1
    22     9    11    1
    23     7     8    1
    24    15    16    1
    25    15    14    1
    26    16    17    2
    27     8    13    1
    28    14    13    1
    29    14    23    1
    30    11    13    1
    31    11    12    1
    32    17    18    1
    33    17    23    1
    34    19    18    1
    35    18    20    2
    36    23    22    2
    37    20    21    1
    38    22    21    1
