@<TRIPOS>MOLECULE
3gpt_GPT_2_1.pdb
 21 22 0 0 0
SMALL
GASTEIGER

@<TRIPOS>ATOM
      1  C1        25.8480 -157.9550   56.5580 C.3   224  GPT224      0.1944
      2  C2        24.3420 -158.3450   56.5520 C.3   224  GPT224      0.0573
      3  C3        24.0300 -159.8380   56.9700 C.3   224  GPT224      0.1393
      4  C4        24.2250 -160.2410   58.4800 C.3   224  GPT224      0.1695
      5  C6        22.9530 -159.8330   59.2850 C.3   224  GPT224      0.0366
      6  F21       25.9960 -156.6720   56.0910 F     224  GPT224     -0.2343
      7  C19       24.8780 -160.8980   56.2970 C.1   224  GPT224      0.1279
      8  O20       25.2680 -160.8280   55.1580 O.2   224  GPT224     -0.2270
      9  N18       25.1300 -161.8950   57.1490 N.2   224  GPT224     -0.1975
     10  C7        24.5900 -161.7860   58.4760 C.3   224  GPT224      0.2070
     11  C16       25.7130 -162.0010   59.4510 C.2   224  GPT224      0.2349
     12  O17       26.8250 -162.3910   59.1060 O.2   224  GPT224     -0.2860
     13  C8        23.4130 -162.8720   58.6440 C.3   224  GPT224      0.1865
     14  O15       22.2790 -162.4010   57.8650 O.3   224  GPT224     -0.2202
     15  C9        23.6950 -164.3750   58.1880 C.3   224  GPT224      0.0546
     16  C14       24.9450 -165.0730   58.8940 C.3   224  GPT224      0.0073
     17  C13       24.8710 -166.6270   58.8830 C.3   224  GPT224      0.0051
     18  C12       23.6080 -167.0830   59.6440 C.3   224  GPT224      0.0257
     19  C11       22.3740 -166.4120   59.0430 C.2   224  GPT224     -0.0306
     20  C10       22.4470 -165.2320   58.4030 C.2   224  GPT224     -0.0284
     21  O5        25.2920 -159.4990   59.0710 O.3   224  GPT224     -0.2220
@<TRIPOS>BOND
     1     8     7    2
     2     6     1    1
     3     7     3    1
     4     7     9    2
     5     2     1    1
     6     2     3    1
     7     3     4    1
     8     9    10    1
     9    14    13    1
    10    15    20    1
    11    15    13    1
    12    15    16    1
    13    20    19    2
    14    10     4    1
    15    10    13    1
    16    10    11    1
    17     4    21    1
    18     4     5    1
    19    17    16    1
    20    17    18    1
    21    19    18    1
    22    12    11    2
