@<TRIPOS>MOLECULE
3gpw_SA1_2_1.pdb
 20 22 0 0 0
SMALL
GASTEIGER

@<TRIPOS>ATOM
      1  C1        25.2830 -158.2190   57.5630 C.3     0  SA10        0.1433
      2  O2        25.4670 -159.4110   58.3250 O.3     0  SA10       -0.3550
      3  C3        24.2710 -160.2540   58.2790 C.3     0  SA10        0.1358
      4  C4        23.2170 -159.8010   59.3450 C.3     0  SA10        0.0333
      5  C5        23.9000 -160.0100   56.8230 C.3     0  SA10        0.1358
      6  C6        24.8490 -160.9630   56.1400 C.1     0  SA10        0.1278
      7  O7        25.1830 -160.8940   54.9810 O.2     0  SA10       -0.2270
      8  N8        25.2540 -161.8750   57.0290 N.2     0  SA10       -0.1976
      9  C9        24.7070 -161.7330   58.3880 C.3     0  SA10        0.2040
     10  C10       23.6120 -162.8420   58.4710 C.3     0  SA10        0.1864
     11  C11       23.8930 -164.2990   58.1680 C.3     0  SA10        0.0546
     12  C12       22.6560 -165.1580   58.3740 C.2     0  SA10       -0.0284
     13  C13       22.7050 -166.4240   58.8160 C.2     0  SA10       -0.0306
     14  C14       24.0020 -167.1440   59.1530 C.3     0  SA10        0.0257
     15  C15       25.1980 -166.3820   58.6320 C.3     0  SA10        0.0051
     16  C16       25.0370 -164.9360   58.9830 C.3     0  SA10        0.0073
     17  O17       22.5110 -162.4290   57.6010 O.3     0  SA10       -0.2202
     18  C18       25.7890 -161.8920   59.3580 C.2     0  SA10        0.2348
     19  O19       26.9560 -162.1460   59.0130 O.2     0  SA10       -0.2860
     20  C20       24.2150 -158.5620   56.5510 C.3     0  SA10        0.0511
@<TRIPOS>BOND
     1     7     6    2
     2     6     5    1
     3     6     8    2
     4    20     5    1
     5    20     1    1
     6     5     3    1
     7     8     9    1
     8     1     2    1
     9    17    10    1
    10    11    12    1
    11    11    10    1
    12    11    16    1
    13     3     2    1
    14     3     9    1
    15     3     4    1
    16    12    13    2
    17     9    10    1
    18     9    18    1
    19    15    16    1
    20    15    14    1
    21    13    14    1
    22    19    18    2
