@<TRIPOS>MOLECULE
3gq8_NHE_A_1.pdb
 13 13 0 0 0
SMALL
GASTEIGER

@<TRIPOS>ATOM
      1  C3'       16.5790   36.9590  247.0550 C.ar  693  NHE693      0.0013
      2  C2'       17.5960   37.3800  247.9120 C.ar  693  NHE693      0.0161
      3  C1'       17.3130   38.2490  248.9700 C.ar  693  NHE693      0.0654
      4  C6'       15.9990   38.6870  249.1730 C.ar  693  NHE693      0.0161
      5  N         18.3070   38.6390  249.7830 N.pl3 693  NHE693     -0.2359
      6  C1        18.0720   39.5730  250.9010 C.3   693  NHE693      0.1336
      7  C2        18.9980   39.2620  252.0800 C.3   693  NHE693      0.1285
      8  S         19.0040   40.6310  253.2950 S.3   693  NHE693     -0.1942
      9  O1        19.1700   41.9200  252.5510 O.3   693  NHE693     -0.3074
     10  O2        17.6890   40.6410  254.0330 O.3   693  NHE693     -0.3074
     11  O3        20.1220   40.4650  254.2790 O.3   693  NHE693     -0.3074
     12  C5'       14.9760   38.2630  248.3200 C.ar  693  NHE693      0.0013
     13  C4'       15.2670   37.3980  247.2610 C.ar  693  NHE693      0.0001
@<TRIPOS>BOND
     1     1    13   ar
     2     1     2   ar
     3    13    12   ar
     4     2     3   ar
     5    12     4   ar
     6     3     4   ar
     7     3     5    1
     8     5     6    1
     9     6     7    1
    10     7     8    1
    11     9     8    1
    12     8    10    1
    13     8    11    1
