@<TRIPOS>MOLECULE
3gqc_DCP_A_1.pdb
 28 29 0 0 0
SMALL
GASTEIGER

@<TRIPOS>ATOM
      1  N1         3.2350  -27.6220   13.9600 N.am  101  DCP101     -0.1802
      2  C2         4.4620  -26.9120   13.8020 C.1   101  DCP101      0.2756
      3  N3         4.5630  -25.5970   14.0810 N.2   101  DCP101     -0.3024
      4  C4         3.5260  -24.9000   14.6080 C.2   101  DCP101      0.2346
      5  C5         2.3050  -25.5380   14.8580 C.2   101  DCP101      0.0687
      6  C6         2.1690  -26.9010   14.5620 C.2   101  DCP101      0.0835
      7  O2         5.4610  -27.4730   13.3090 O.2   101  DCP101     -0.1925
      8  N4         3.7000  -23.5850   14.8980 N.pl3 101  DCP101     -0.0921
      9  C1'        3.3720  -29.0490   14.3110 C.3   101  DCP101      0.2090
     10  C2'        3.8460  -29.2790   15.7330 C.3   101  DCP101      0.0874
     11  C3'        2.6510  -29.9160   16.4010 C.3   101  DCP101      0.1857
     12  C4'        1.7910  -30.4670   15.2660 C.3   101  DCP101      0.1773
     13  O4'        2.1080  -29.6840   14.1100 O.3   101  DCP101     -0.3339
     14  O3'        3.1100  -30.9400   17.2700 O.3   101  DCP101     -0.2203
     15  C5'        0.2990  -30.3690   15.5400 C.3   101  DCP101      0.1812
     16  O5'       -0.0660  -29.0140   15.7930 O.3   101  DCP101     -0.3112
     17  PA        -1.3400  -28.6230   16.7030 P.3   101  DCP101      0.2189
     18  O1A       -2.3330  -29.7580   16.7630 O.3   101  DCP101     -0.4371
     19  O2A       -1.8050  -27.2630   16.2500 O.2   101  DCP101     -0.5170
     20  O3A       -0.7000  -28.3940   18.1450 O.3   101  DCP101     -0.2700
     21  PB        -0.1560  -29.5130   19.1430 P.3   101  DCP101      0.2277
     22  O1B        1.3220  -29.3460   19.3210 O.3   101  DCP101     -0.4368
     23  O2B       -0.6600  -30.8640   18.7340 O.2   101  DCP101     -0.5168
     24  O3B       -0.8060  -29.0000   20.5150 O.3   101  DCP101     -0.2258
     25  PG        -2.3900  -29.0670   20.8270 P.3   101  DCP101      0.5373
     26  O1G       -2.7410  -27.6500   21.2630 O.3   101  DCP101     -0.1143
     27  O2G       -2.3520  -30.0960   21.9390 O.3   101  DCP101     -0.1143
     28  O3G       -3.1740  -29.4960   19.6170 O.2   101  DCP101     -0.2221
@<TRIPOS>BOND
     1     7     2    2
     2     2     1   am
     3     2     3    2
     4     1     9    1
     5     1     6    1
     6     3     4    2
     7    13     9    1
     8    13    12    1
     9     9    10    1
    10     6     5    2
    11     4     5    1
    12     4     8    1
    13    12    15    1
    14    12    11    1
    15    15    16    1
    16    10    11    1
    17    16    17    1
    18    19    17    2
    19    11    14    1
    20    17    18    1
    21    17    20    1
    22    20    21    1
    23    23    21    2
    24    21    22    1
    25    21    24    1
    26    28    25    2
    27    24    25    1
    28    25    26    1
    29    25    27    1
