@<TRIPOS>MOLECULE
3gqg_HEM_A_1.pdb
 43 50 0 0 0
SMALL
GASTEIGER

@<TRIPOS>ATOM
      1  CHA        6.5280  -19.7080   11.6240 C.2   200  HEM200      0.0000
      2  CHB        8.8230  -15.4900   11.1050 C.2   200  HEM200      0.0000
      3  CHC        4.8190  -13.1220   12.3530 C.2   200  HEM200      0.0000
      4  CHD        2.5850  -17.3310   13.0660 C.2   200  HEM200      0.0000
      5  C1A        7.5150  -18.7590   11.4420 C.ar  200  HEM200      0.0000
      6  C2A        8.9300  -19.0460   11.2960 C.ar  200  HEM200      0.0000
      7  C3A        9.5720  -17.8840   11.2210 C.ar  200  HEM200      0.0000
      8  C4A        8.5720  -16.8300   11.2460 C.ar  200  HEM200      0.0000
      9  CMA       11.0730  -17.5900   11.0170 C.3   200  HEM200      0.0000
     10  CAA        9.4810  -20.4920   11.2400 C.3   200  HEM200      0.0000
     11  CBA        9.8800  -21.0250    9.8640 C.3   200  HEM200      0.0000
     12  CGA        9.9100  -22.5210    9.7110 C.2   200  HEM200      0.0000
     13  O1A        9.8710  -22.9740    8.5340 O.co2 200  HEM200      0.0000
     14  O2A        9.9730  -23.2080   10.7610 O.co2 200  HEM200      0.0000
     15  C1B        7.9520  -14.4620   11.3890 C.2   200  HEM200      0.0000
     16  C2B        8.2770  -13.0630   11.4420 C.2   200  HEM200      0.0000
     17  C3B        7.1560  -12.3950   11.7600 C.2   200  HEM200      0.0000
     18  C4B        6.1170  -13.3910   11.9640 C.2   200  HEM200      0.0000
     19  CMB        9.6850  -12.4860   11.1830 C.3   200  HEM200      0.0000
     20  CAB        6.9510  -10.8860   11.9190 C.2   200  HEM200      0.0000
     21  CBB        7.7980  -10.1460   12.6470 C.2   200  HEM200      0.0000
     22  C1C        3.8670  -14.0810   12.6570 C.ar  200  HEM200      0.0000
     23  C2C        2.5580  -13.7780   13.2290 C.ar  200  HEM200      0.0000
     24  C3C        1.9380  -14.9340   13.4390 C.ar  200  HEM200      0.0000
     25  C4C        2.8240  -15.9900   12.9800 C.ar  200  HEM200      0.0000
     26  CMC        2.1050  -12.3330   13.5010 C.3   200  HEM200      0.0000
     27  CAC        0.5120  -15.2320   13.9480 C.2   200  HEM200      0.0000
     28  CBC       -0.0930  -14.4620   14.8400 C.2   200  HEM200      0.0000
     29  C1D        3.4520  -18.3480   12.7520 C.2   200  HEM200      0.0000
     30  C2D        3.1870  -19.7580   12.9240 C.2   200  HEM200      0.0000
     31  C3D        4.2580  -20.4190   12.4660 C.2   200  HEM200      0.0000
     32  C4D        5.2590  -19.4400   12.1130 C.2   200  HEM200      0.0000
     33  CMD        1.8370  -20.3310   13.4080 C.3   200  HEM200      0.0000
     34  CAD        4.5590  -21.9310   12.6420 C.3   200  HEM200      0.0000
     35  CBD        5.1560  -22.3040   14.0200 C.3   200  HEM200      0.0000
     36  CGD        5.0720  -23.7650   14.3690 C.2   200  HEM200      0.0000
     37  O1D        5.8530  -24.1720   15.2600 O.co2 200  HEM200      0.0000
     38  O2D        4.2250  -24.4480   13.7450 O.co2 200  HEM200      0.0000
     39  NA         7.3220  -17.3950   11.4060 N.ar  200  HEM200      0.0000
     40  NB         6.6130  -14.6470   11.6980 N.2   200  HEM200      0.0000
     41  NC         4.0070  -15.4330   12.5110 N.ar  200  HEM200      0.0000
     42  ND         4.7380  -18.1710   12.2600 N.2   200  HEM200      0.0000
     43 FE          5.6560  -16.4050   11.8060 Fe    200  HEM200      0.0000
@<TRIPOS>BOND
     1    13    12   ar
     2    12    11    1
     3    12    14   ar
     4    11    10    1
     5     9     7    1
     6     2     8    2
     7     2    15    1
     8    19    16    1
     9     7     8   ar
    10     7     6   ar
    11    10     6    1
    12     8    39   ar
    13     6     5   ar
    14    15    16    1
    15    15    40    2
    16    39     5   ar
    17    39    43    1
    18     5     1    2
    19    16    17    2
    20     1    32    1
    21    40    43    1
    22    40    18    1
    23    17    20    1
    24    17    18    1
    25    43    42    1
    26    43    41    1
    27    20    21    2
    28    18     3    2
    29    32    42    2
    30    32    31    1
    31    42    29    1
    32     3    22    1
    33    31    34    1
    34    31    30    2
    35    41    22   ar
    36    41    25   ar
    37    34    35    1
    38    22    23   ar
    39    29    30    1
    40    29     4    2
    41    30    33    1
    42    25     4    1
    43    25    24   ar
    44    23    24   ar
    45    23    26    1
    46    24    27    1
    47    38    36   ar
    48    27    28    2
    49    35    36    1
    50    36    37   ar
