@<TRIPOS>MOLECULE
3gqi_ACP_A_1.pdb
 31 33 0 0 0
SMALL
GASTEIGER

@<TRIPOS>ATOM
      1  PG       -35.5250   33.8650   43.5420 P.3   775  ACP775      0.1295
      2  O1G      -35.2090   32.7950   44.7070 O.3   775  ACP775     -0.3567
      3  O2G      -34.2950   34.9060   43.5360 O.2   775  ACP775     -0.4595
      4  O3G      -36.8260   34.5390   43.7550 O.3   775  ACP775     -0.3567
      5  PB       -33.8360   32.1790   41.7370 P.3   775  ACP775      0.3815
      6  O1B      -32.8260   33.1360   42.2010 O.2   775  ACP775     -0.2547
      7  O2B      -33.8790   30.8300   42.3600 O.3   775  ACP775     -0.1391
      8  C3B      -35.4630   32.9450   41.9850 C.3   775  ACP775      0.1768
      9  PA       -32.8850   30.8890   39.4150 P.3   775  ACP775      0.2209
     10  O1A      -32.2520   30.0470   40.4790 O.3   775  ACP775     -0.4371
     11  O2A      -32.0080   31.5380   38.4380 O.2   775  ACP775     -0.5170
     12  O3A      -33.7510   32.0420   40.1290 O.3   775  ACP775     -0.2483
     13  O5'      -33.9790   30.0010   38.6380 O.3   775  ACP775     -0.3111
     14  C5'      -34.9700   29.2430   39.3400 C.3   775  ACP775      0.1813
     15  C4'      -35.4530   28.0610   38.4950 C.3   775  ACP775      0.1821
     16  O4'      -35.9460   28.4590   37.1990 O.3   775  ACP775     -0.3135
     17  C3'      -34.3550   27.0470   38.2030 C.3   775  ACP775      0.2184
     18  O3'      -34.1930   26.1930   39.3470 O.3   775  ACP775     -0.2174
     19  C2'      -35.0650   26.2620   37.1000 C.3   775  ACP775      0.2570
     20  O2'      -36.1500   25.5210   37.6490 O.3   775  ACP775     -0.2130
     21  C1'      -35.5960   27.4280   36.2570 C.3   775  ACP775      0.3186
     22  N9       -34.5490   27.9480   35.3540 N.pl3 775  ACP775     -0.1439
     23  C8       -33.7470   28.9940   35.6100 C.3   775  ACP775      0.3377
     24  N7       -32.9640   29.2070   34.5580 N.2   775  ACP775     -0.2095
     25  C5       -33.2400   28.2900   33.6200 C.2   775  ACP775      0.2526
     26  C6       -32.7700   28.0030   32.3770 C.2   775  ACP775      0.4393
     27  N6       -31.7900   28.7420   31.8320 N.pl3 775  ACP775      0.2180
     28  N1       -33.2830   26.9680   31.6690 N.2   775  ACP775      0.0021
     29  C2       -34.2530   26.2420   32.1990 C.3   775  ACP775      0.5254
     30  N3       -34.7390   26.4840   33.3850 N.2   775  ACP775     -0.0055
     31  C4       -34.2580   27.5020   34.1480 C.2   775  ACP775      0.3518
@<TRIPOS>BOND
     1    28    29    1
     2    28    26    2
     3    27    26    1
     4    29    30    1
     5    26    25    1
     6    30    31    2
     7    25    31    1
     8    25    24    2
     9    31    22    1
    10    24    23    1
    11    22    23    1
    12    22    21    1
    13    21    19    1
    14    21    16    1
    15    19    20    1
    16    19    17    1
    17    16    15    1
    18    17    15    1
    19    17    18    1
    20    11     9    2
    21    15    14    1
    22    13    14    1
    23    13     9    1
    24     9    12    1
    25     9    10    1
    26    12     5    1
    27     5     8    1
    28     5     6    2
    29     5     7    1
    30     8     1    1
    31     3     1    2
    32     1     4    1
    33     1     2    1
