@<TRIPOS>MOLECULE
3gql_GQL_A_1.pdb
 27 30 0 0 0
SMALL
GASTEIGER

@<TRIPOS>ATOM
      1  C1        49.4450   -6.0890   -0.3860 C.2     1  GQL1        0.0671
      2  C2        49.8820   -7.1260    0.4330 C.2     1  GQL1        0.0112
      3  C3        49.0650   -8.1840    0.8270 C.ar    1  GQL1        0.0052
      4  C4        51.2220   -7.1540    0.8110 C.2     1  GQL1        0.0221
      5  C5        52.0870   -6.1630    0.3560 C.2     1  GQL1        0.1096
      6  C7        50.3600   -5.1300   -0.8130 C.1     1  GQL1        0.0354
      7  C9        48.4330   -4.5910   -1.6730 C.2     1  GQL1        0.1134
      8  C10       48.2380   -5.6910   -0.9550 C.2     1  GQL1        0.0682
      9  C11       46.8600   -6.3240   -0.7450 C.2     1  GQL1        0.1978
     10  C13       45.6920   -5.8700   -1.6240 C.ar    1  GQL1        0.0420
     11  C14       45.5120   -6.4240   -2.8900 C.ar    1  GQL1        0.0034
     12  C15       44.4720   -5.9820   -3.7020 C.ar    1  GQL1        0.0032
     13  C19       43.3270   -2.1570   -1.8680 C.3     1  GQL1        0.2525
     14  O18       42.9260   -3.4850   -1.5180 O.3     1  GQL1       -0.4714
     15  C17       43.7880   -4.4300   -1.9840 C.ar    1  GQL1        0.1388
     16  C20       44.8300   -4.8750   -1.1720 C.ar    1  GQL1        0.0401
     17  C16       43.6110   -4.9840   -3.2490 C.ar    1  GQL1        0.0369
     18  O12       46.6730   -7.1450    0.1520 O.2     1  GQL1       -0.2865
     19  N8        49.7170   -4.2540   -1.5830 N.2     1  GQL1       -0.1921
     20  N6        51.6440   -5.1980   -0.4310 N.2     1  GQL1       -0.1922
     21  C27       48.7020   -8.3190    2.1640 C.ar    1  GQL1        0.0298
     22  C25       47.9150   -9.3940    2.5710 C.ar    1  GQL1        0.1424
     23  F26       47.5700   -9.5460    3.8640 F       1  GQL1       -0.2041
     24  C24       47.4790  -10.3360    1.6490 C.ar    1  GQL1        0.0592
     25  C22       47.8400  -10.2030    0.3130 C.ar    1  GQL1        0.1424
     26  F23       47.4220  -11.1410   -0.5580 F       1  GQL1       -0.2041
     27  C21       48.6290   -9.1320   -0.0970 C.ar    1  GQL1        0.0298
@<TRIPOS>BOND
     1    12    17   ar
     2    12    11   ar
     3    17    15   ar
     4    11    10   ar
     5    15    14    1
     6    15    16   ar
     7    13    14    1
     8     7    19    1
     9     7     8    2
    10    10    16   ar
    11    10     9    1
    12    19     6    2
    13     8     9    1
    14     8     1    1
    15     6    20    2
    16     6     1    1
    17     9    18    2
    18    26    25    1
    19    20     5    1
    20     1     2    2
    21    27    25   ar
    22    27     3   ar
    23    25    24   ar
    24     5     4    2
    25     2     4    1
    26     2     3    1
    27     3    21   ar
    28    24    22   ar
    29    21    22   ar
    30    22    23    1
