@<TRIPOS>MOLECULE
3gqo_APR_A_1.pdb
 36 39 0 0 0
SMALL
GASTEIGER

@<TRIPOS>ATOM
      1  N1        -9.3740  -14.7070   32.9450 N.2   167  APR167      0.0021
      2  C2        -9.7340  -14.0650   31.8130 C.3   167  APR167      0.5254
      3  N3        -9.1850  -14.3150   30.6090 N.2   167  APR167     -0.0055
      4  C4        -8.2280  -15.2530   30.4950 C.2   167  APR167      0.3518
      5  C5        -7.7830  -15.9970   31.6780 C.2   167  APR167      0.2526
      6  C6        -8.4310  -15.6660   32.9530 C.2   167  APR167      0.4393
      7  N6        -8.0660  -16.2970   34.0860 N.pl3 167  APR167      0.2180
      8  N7        -6.8280  -16.8490   31.2720 N.2   167  APR167     -0.2095
      9  C8        -6.6770  -16.6750   29.9310 C.3   167  APR167      0.3377
     10  N9        -7.5130  -15.7210   29.4840 N.pl3 167  APR167     -0.1439
     11  C1'       -7.6940  -15.2290   28.1140 C.3   167  APR167      0.3186
     12  C2'       -6.5920  -15.6650   27.1810 C.3   167  APR167      0.2570
     13  O2'       -5.5540  -14.6880   27.1300 O.3   167  APR167     -0.2130
     14  C3'       -7.3620  -15.7890   25.8780 C.3   167  APR167      0.2184
     15  O3'       -7.5130  -14.5200   25.2580 O.3   167  APR167     -0.2174
     16  O4'       -8.8820  -15.8680   27.6510 O.3   167  APR167     -0.3135
     17  C4'       -8.7640  -16.2050   26.2780 C.3   167  APR167      0.1821
     18  C5'       -9.0710  -17.6800   26.0640 C.3   167  APR167      0.1813
     19  O5'       -7.8750  -18.4410   26.1390 O.3   167  APR167     -0.3112
     20  PA        -7.8690  -19.9370   26.7000 P.3   167  APR167      0.2189
     21  O1A       -8.2190  -19.8740   28.1640 O.3   167  APR167     -0.4371
     22  O2A       -6.5640  -20.5450   26.2650 O.2   167  APR167     -0.5170
     23  O3A       -9.0540  -20.6900   25.9210 O.3   167  APR167     -0.2703
     24  PB        -8.9240  -21.2490   24.4230 P.3   167  APR167      0.2189
     25  O1B      -10.3210  -21.4490   23.9020 O.3   167  APR167     -0.4371
     26  O2B       -7.9520  -20.4140   23.6550 O.2   167  APR167     -0.5170
     27  O5D       -8.2940  -22.7050   24.6360 O.3   167  APR167     -0.3112
     28  C5D       -9.0320  -23.6790   25.3680 C.3   167  APR167      0.1813
     29  O4D       -7.2210  -24.2710   26.8600 O.3   167  APR167     -0.3237
     30  O1D       -7.0620  -24.5850   29.1860 O.3   167  APR167     -0.1869
     31  C1D       -7.2850  -25.2030   27.9400 C.3   167  APR167      0.3023
     32  O2D       -8.8930  -26.8270   28.7290 O.3   167  APR167     -0.2148
     33  C2D       -8.7020  -25.7010   27.8850 C.3   167  APR167      0.2433
     34  O3D       -7.9800  -27.1590   26.1200 O.3   167  APR167     -0.2175
     35  C3D       -8.7670  -25.9980   26.4090 C.3   167  APR167      0.2168
     36  C4D       -8.0730  -24.7670   25.8210 C.3   167  APR167      0.1807
@<TRIPOS>BOND
     1    26    24    2
     2    25    24    1
     3    24    27    1
     4    24    23    1
     5    27    28    1
     6    15    14    1
     7    28    36    1
     8    36    35    1
     9    36    29    1
    10    14    17    1
    11    14    12    1
    12    23    20    1
    13    18    19    1
    14    18    17    1
    15    34    35    1
    16    19    20    1
    17    22    20    2
    18    17    16    1
    19    35    33    1
    20    20    21    1
    21    29    31    1
    22    13    12    1
    23    12    11    1
    24    16    11    1
    25    33    31    1
    26    33    32    1
    27    31    30    1
    28    11    10    1
    29    10     9    1
    30    10     4    1
    31     9     8    1
    32     4     3    2
    33     4     5    1
    34     3     2    1
    35     8     5    2
    36     5     6    1
    37     2     1    1
    38     1     6    2
    39     6     7    1
