@<TRIPOS>MOLECULE
3gqp_HEM_A_1.pdb
 43 50 0 0 0
SMALL
GASTEIGER

@<TRIPOS>ATOM
      1  CHA       -4.1420    1.0290    0.6190 C.2   143  HEM143      0.0000
      2  CHB        0.2500    1.6560   -1.3940 C.2   143  HEM143      0.0000
      3  CHC        2.3400   -0.1840    2.5960 C.2   143  HEM143      0.0000
      4  CHD       -2.0260   -0.9750    4.6140 C.2   143  HEM143      0.0000
      5  C1A       -3.1530    1.2800   -0.3100 C.ar  143  HEM143      0.0000
      6  C2A       -3.3420    1.6020   -1.7070 C.ar  143  HEM143      0.0000
      7  C3A       -2.1270    1.7770   -2.2620 C.ar  143  HEM143      0.0000
      8  C4A       -1.1240    1.5750   -1.2310 C.ar  143  HEM143      0.0000
      9  CMA       -1.8020    2.1260   -3.7350 C.3   143  HEM143      0.0000
     10  CAA       -4.7180    1.7000   -2.4110 C.3   143  HEM143      0.0000
     11  CBA       -5.4450    3.0130   -2.1510 C.3   143  HEM143      0.0000
     12  CGA       -6.3340    3.3330   -3.3350 C.2   143  HEM143      0.0000
     13  O1A       -7.5810    3.3990   -3.1570 O.co2 143  HEM143      0.0000
     14  O2A       -5.7970    3.5360   -4.4570 O.co2 143  HEM143      0.0000
     15  C1B        1.2200    1.2150   -0.5100 C.2   143  HEM143      0.0000
     16  C2B        2.6630    1.2420   -0.7050 C.2   143  HEM143      0.0000
     17  C3B        3.2410    0.7320    0.3980 C.2   143  HEM143      0.0000
     18  C4B        2.1820    0.3740    1.3350 C.2   143  HEM143      0.0000
     19  CMB        3.3680    1.7870   -1.9730 C.3   143  HEM143      0.0000
     20  CAB        4.7600    0.5530    0.6900 C.2   143  HEM143      0.0000
     21  CBB        5.7030    0.6630   -0.2580 C.2   143  HEM143      0.0000
     22  C1C        1.3530   -0.5860    3.4800 C.ar  143  HEM143      0.0000
     23  C2C        1.5480   -1.2600    4.7580 C.ar  143  HEM143      0.0000
     24  C3C        0.3430   -1.4900    5.3030 C.ar  143  HEM143      0.0000
     25  C4C       -0.6560   -0.9580    4.4110 C.ar  143  HEM143      0.0000
     26  CMC        2.9310   -1.6550    5.3300 C.3   143  HEM143      0.0000
     27  CAC        0.0280   -2.1830    6.6510 C.2   143  HEM143      0.0000
     28  CBC        0.2260   -3.5040    6.7940 C.2   143  HEM143      0.0000
     29  C1D       -3.0100   -0.5460    3.7260 C.2   143  HEM143      0.0000
     30  C2D       -4.4410   -0.6950    3.9240 C.2   143  HEM143      0.0000
     31  C3D       -5.0940   -0.0760    2.6760 C.2   143  HEM143      0.0000
     32  C4D       -4.0040    0.3950    1.8480 C.2   143  HEM143      0.0000
     33  CMD       -5.1460   -1.3490    5.1250 C.3   143  HEM143      0.0000
     34  CAD       -6.6000    0.0210    2.3690 C.3   143  HEM143      0.0000
     35  CBD       -6.8750   -0.6190    1.0070 C.3   143  HEM143      0.0000
     36  CGD       -8.1980   -1.3300    1.0310 C.2   143  HEM143      0.0000
     37  O1D       -8.6330   -1.8510   -0.0240 O.co2 143  HEM143      0.0000
     38  O2D       -8.8250   -1.3640    2.1090 O.co2 143  HEM143      0.0000
     39  NA        -1.7910    1.2660   -0.0550 N.ar  143  HEM143      0.0000
     40  NB         0.9710    0.6790    0.7410 N.2   143  HEM143      0.0000
     41  NC        -0.0060   -0.4180    3.3160 N.ar  143  HEM143      0.0000
     42  ND        -2.8030    0.0930    2.4970 N.2   143  HEM143      0.0000
     43 FE         -0.8890    0.3970    1.6320 Fe    143  HEM143      0.0000
@<TRIPOS>BOND
     1    14    12   ar
     2     9     7    1
     3    12    13   ar
     4    12    11    1
     5    10    11    1
     6    10     6    1
     7     7     6   ar
     8     7     8   ar
     9    19    16    1
    10     6     5   ar
    11     2     8    2
    12     2    15    1
    13     8    39   ar
    14    16    15    1
    15    16    17    2
    16    15    40    2
    17     5    39   ar
    18     5     1    2
    19    21    20    2
    20    39    43    1
    21    37    36   ar
    22    17    20    1
    23    17    18    1
    24     1    32    1
    25    40    18    1
    26    40    43    1
    27    35    36    1
    28    35    34    1
    29    36    38   ar
    30    18     3    2
    31    43    42    1
    32    43    41    1
    33    32    42    2
    34    32    31    1
    35    34    31    1
    36    42    29    1
    37     3    22    1
    38    31    30    2
    39    41    22   ar
    40    41    25   ar
    41    22    23   ar
    42    29    30    1
    43    29     4    2
    44    30    33    1
    45    25     4    1
    46    25    24   ar
    47    23    24   ar
    48    23    26    1
    49    24    27    1
    50    27    28    2
