@<TRIPOS>MOLECULE
3gqr_HEM_A_1.pdb
 43 50 0 0 0
SMALL
GASTEIGER

@<TRIPOS>ATOM
      1  CHA      -23.4860  -31.4910   23.7850 C.2   143  HEM143      0.0000
      2  CHB      -20.6260  -35.3570   23.3270 C.2   143  HEM143      0.0000
      3  CHC      -16.7140  -32.4630   22.6960 C.2   143  HEM143      0.0000
      4  CHD      -19.4290  -28.5770   23.8300 C.2   143  HEM143      0.0000
      5  C1A      -23.1350  -32.8280   23.7720 C.ar  143  HEM143      0.0000
      6  C2A      -23.9270  -34.0430   24.0340 C.ar  143  HEM143      0.0000
      7  C3A      -23.0920  -35.0830   23.8990 C.ar  143  HEM143      0.0000
      8  C4A      -21.7640  -34.6040   23.5560 C.ar  143  HEM143      0.0000
      9  CMA      -23.4970  -36.5630   24.0750 C.3   143  HEM143      0.0000
     10  CAA      -25.4230  -34.2630   24.4270 C.3   143  HEM143      0.0000
     11  CBA      -26.4570  -33.3640   23.7630 C.3   143  HEM143      0.0000
     12  CGA      -27.4470  -34.1170   22.9040 C.2   143  HEM143      0.0000
     13  O1A      -28.0020  -33.4990   21.9480 O.co2 143  HEM143      0.0000
     14  O2A      -27.7100  -35.3220   23.1520 O.co2 143  HEM143      0.0000
     15  C1B      -19.3470  -34.9140   23.0120 C.2   143  HEM143      0.0000
     16  C2B      -18.2740  -35.7380   22.5010 C.2   143  HEM143      0.0000
     17  C3B      -17.1870  -34.9550   22.3180 C.2   143  HEM143      0.0000
     18  C4B      -17.5330  -33.5960   22.7160 C.2   143  HEM143      0.0000
     19  CMB      -18.4310  -37.2590   22.2250 C.3   143  HEM143      0.0000
     20  CAB      -15.8010  -35.3950   21.7770 C.2   143  HEM143      0.0000
     21  CBB      -15.0220  -36.2780   22.4150 C.2   143  HEM143      0.0000
     22  C1C      -17.0660  -31.1640   23.0410 C.ar  143  HEM143      0.0000
     23  C2C      -16.1820  -30.0390   23.2690 C.ar  143  HEM143      0.0000
     24  C3C      -16.9210  -28.9520   23.5880 C.ar  143  HEM143      0.0000
     25  C4C      -18.3220  -29.3590   23.5690 C.ar  143  HEM143      0.0000
     26  CMC      -14.6470  -30.1210   23.1510 C.3   143  HEM143      0.0000
     27  CAC      -16.4130  -27.5160   23.9240 C.2   143  HEM143      0.0000
     28  CBC      -15.4800  -27.2750   24.8580 C.2   143  HEM143      0.0000
     29  C1D      -20.7490  -28.9970   23.9450 C.2   143  HEM143      0.0000
     30  C2D      -21.8590  -28.1400   24.3170 C.2   143  HEM143      0.0000
     31  C3D      -23.0960  -29.0460   24.2800 C.2   143  HEM143      0.0000
     32  C4D      -22.6520  -30.3720   23.9070 C.2   143  HEM143      0.0000
     33  CMD      -21.8270  -26.6360   24.6570 C.3   143  HEM143      0.0000
     34  CAD      -24.5330  -28.6150   24.6180 C.3   143  HEM143      0.0000
     35  CBD      -24.5800  -28.4220   26.1280 C.3   143  HEM143      0.0000
     36  CGD      -25.7850  -27.5960   26.4780 C.2   143  HEM143      0.0000
     37  O1D      -26.5480  -28.0780   27.3520 O.co2 143  HEM143      0.0000
     38  O2D      -25.9760  -26.4830   25.8950 O.co2 143  HEM143      0.0000
     39  NA       -21.8360  -33.2330   23.4970 N.ar  143  HEM143      0.0000
     40  NB       -18.8540  -33.6220   23.1370 N.2   143  HEM143      0.0000
     41  NC       -18.3610  -30.7030   23.2360 N.ar  143  HEM143      0.0000
     42  ND       -21.2680  -30.2870   23.7110 N.2   143  HEM143      0.0000
     43 FE        -20.0730  -31.9260   23.3570 Fe    143  HEM143      0.0000
@<TRIPOS>BOND
     1    20    17    1
     2    20    21    2
     3    13    12   ar
     4    19    16    1
     5    17    16    2
     6    17    18    1
     7    16    15    1
     8     3    18    2
     9     3    22    1
    10    18    40    1
    11    12    14   ar
    12    12    11    1
    13    15    40    2
    14    15     2    1
    15    22    41   ar
    16    22    23   ar
    17    40    43    1
    18    26    23    1
    19    41    43    1
    20    41    25   ar
    21    23    24   ar
    22     2     8    2
    23    43    39    1
    24    43    42    1
    25    39     8   ar
    26    39     5   ar
    27     8     7   ar
    28    25    24   ar
    29    25     4    1
    30    24    27    1
    31    42    32    2
    32    42    29    1
    33    11    10    1
    34     5     1    2
    35     5     6   ar
    36     1    32    1
    37     4    29    2
    38     7     6   ar
    39     7     9    1
    40    32    31    1
    41    27    28    2
    42    29    30    1
    43     6    10    1
    44    31    30    2
    45    31    34    1
    46    30    33    1
    47    34    35    1
    48    38    36   ar
    49    35    36    1
    50    36    37   ar
