@<TRIPOS>MOLECULE
3gqt_UFO_A_1.pdb
 14 15 0 0 0
SMALL
GASTEIGER

@<TRIPOS>ATOM
      1  C2       -10.7780  -16.4260    1.3750 C.ar  1000  UFO1000    -0.0019
      2  C1        -9.6210  -16.1580    0.6330 C.ar  1000  UFO1000     0.0133
      3  C5       -10.2610  -17.8800   -0.9620 C.ar  1000  UFO1000     0.0655
      4  C4       -11.4070  -18.1400   -0.2010 C.ar  1000  UFO1000     0.0158
      5  C3       -11.6740  -17.4130    0.9530 C.ar  1000  UFO1000    -0.0015
      6  N14       -9.9820  -14.8820    3.0600 N.3   1000  UFO1000    -0.1262
      7  C13      -11.1180  -15.6900    2.6540 C.3   1000  UFO1000     0.1357
      8  N7       -10.0310  -18.6470   -2.1270 N.pl3 1000  UFO1000    -0.2821
      9  C12      -11.0220  -19.6530   -2.5350 C.3   1000  UFO1000     0.1174
     10  C8        -8.8080  -18.5120   -2.9330 C.2   1000  UFO1000     0.0818
     11  C9        -7.7320  -17.5840   -2.3340 C.2   1000  UFO1000     0.0818
     12  N10       -8.1980  -16.6350   -1.3080 N.pl3 1000  UFO1000    -0.2821
     13  C11       -7.3990  -15.4370   -1.0610 C.3   1000  UFO1000     0.1174
     14  C6        -9.3570  -16.8900   -0.5380 C.ar  1000  UFO1000     0.0652
@<TRIPOS>BOND
     1    10    11    2
     2    10     8    1
     3     9     8    1
     4    11    12    1
     5     8     3    1
     6    12    13    1
     7    12    14    1
     8     3    14   ar
     9     3     4   ar
    10    14     2   ar
    11     4     5   ar
    12     2     1   ar
    13     5     1   ar
    14     1     7    1
    15     7     6    1
