@<TRIPOS>MOLECULE
3gqv_NAP_A_1.pdb
 48 52 0 0 0
SMALL
GASTEIGER

@<TRIPOS>ATOM
      1  PA        40.0330  -14.7780   73.2490 P.3   372  NAP372      0.2189
      2  O1A       38.7420  -14.9130   72.5290 O.3   372  NAP372     -0.4371
      3  O2A       41.1330  -14.1560   72.5030 O.2   372  NAP372     -0.5170
      4  O5B       39.8060  -13.8870   74.5830 O.3   372  NAP372     -0.3112
      5  C5B       39.6220  -12.5000   74.5280 C.3   372  NAP372      0.1813
      6  C4B       39.0160  -12.0320   75.8550 C.3   372  NAP372      0.1820
      7  O4B       39.8610  -12.1410   76.9740 O.3   372  NAP372     -0.3136
      8  C3B       38.7190  -10.5500   75.7880 C.3   372  NAP372      0.2157
      9  O3B       37.5570  -10.3990   75.0320 O.3   372  NAP372     -0.2175
     10  C2B       38.5040  -10.1970   77.2490 C.3   372  NAP372      0.2314
     11  O2B       37.1850  -10.5000   77.7120 O.3   372  NAP372     -0.2630
     12  C1B       39.4440  -11.1590   77.9440 C.3   372  NAP372      0.3158
     13  N9A       40.6380  -10.5380   78.5160 N.pl3 372  NAP372     -0.1439
     14  C8A       41.7630  -10.0550   77.8550 C.3   372  NAP372      0.3377
     15  N7A       42.6660   -9.6160   78.7620 N.2   372  NAP372     -0.2095
     16  C5A       42.1210   -9.8130   80.0030 C.2   372  NAP372      0.2526
     17  C6A       42.5980   -9.5390   81.2850 C.2   372  NAP372      0.4393
     18  N6A       43.7990   -8.9890   81.4950 N.pl3 372  NAP372      0.2180
     19  N1A       41.7950   -9.8530   82.3590 N.2   372  NAP372      0.0021
     20  C2A       40.5330  -10.4210   82.1920 C.3   372  NAP372      0.5254
     21  N3A       40.0620  -10.6960   80.9280 N.2   372  NAP372     -0.0055
     22  C4A       40.8630  -10.3920   79.8600 C.2   372  NAP372      0.3518
     23  O3        40.3570  -16.1590   73.9740 O.3   372  NAP372     -0.2703
     24  PN        41.0520  -17.5230   73.5450 P.3   372  NAP372      0.2189
     25  O1N       40.2970  -18.5810   74.2780 O.3   372  NAP372     -0.4371
     26  O2N       41.2280  -17.6180   72.0810 O.2   372  NAP372     -0.5170
     27  O5D       42.4900  -17.4170   74.2200 O.3   372  NAP372     -0.3112
     28  C5D       42.6270  -17.0060   75.5940 C.3   372  NAP372      0.1813
     29  C4D       44.0510  -17.2700   76.0910 C.3   372  NAP372      0.1799
     30  O4D       44.1870  -18.6600   76.1320 O.3   372  NAP372     -0.3327
     31  C3D       45.1760  -16.7450   75.1890 C.3   372  NAP372      0.2158
     32  O3D       46.2860  -16.3400   75.9670 O.3   372  NAP372     -0.2175
     33  C2D       45.6320  -17.9750   74.4280 C.3   372  NAP372      0.2309
     34  O2D       47.0170  -17.9050   74.1350 O.3   372  NAP372     -0.2158
     35  C1D       45.3280  -19.0860   75.4290 C.3   372  NAP372      0.2263
     36  N1N       45.0500  -20.3470   74.7360 N.pl3 372  NAP372     -0.2787
     37  C2N       46.0750  -21.2500   74.6810 C.3   372  NAP372      0.1244
     38  C3N       45.8900  -22.4470   74.0200 C.2   372  NAP372      0.0544
     39  C7N       46.9550  -23.5090   74.0910 C.2   372  NAP372      0.2818
     40  O7N       46.8820  -24.5310   73.1430 O.2   372  NAP372     -0.2670
     41  N7N       47.9270  -23.4520   75.0300 N.am  372  NAP372     -0.0839
     42  C4N       44.6680  -22.7120   73.3920 C.2   372  NAP372      0.0033
     43  C5N       43.6270  -21.7780   73.4450 C.2   372  NAP372      0.0157
     44  C6N       43.8320  -20.5890   74.1340 C.2   372  NAP372      0.0633
     45  P2B       36.1880   -9.3210   78.2640 P.3   372  NAP372      0.5328
     46  O1X       36.7930   -8.7810   79.5670 O.3   372  NAP372     -0.1145
     47  O2X       34.8180   -9.9060   78.4870 O.3   372  NAP372     -0.1145
     48  O3X       36.1590   -8.2510   77.1930 O.2   372  NAP372     -0.2224
@<TRIPOS>BOND
     1    26    24    2
     2     3     1    2
     3     2     1    1
     4    40    39    2
     5     1    23    1
     6     1     4    1
     7    42    43    1
     8    42    38    2
     9    43    44    2
    10    24    23    1
    11    24    27    1
    12    24    25    1
    13    38    39    1
    14    38    37    1
    15    39    41   am
    16    44    36    1
    17    34    33    1
    18    27    28    1
    19    33    31    1
    20    33    35    1
    21     5     4    1
    22     5     6    1
    23    37    36    1
    24    36    35    1
    25     9     8    1
    26    31    32    1
    27    31    29    1
    28    35    30    1
    29    28    29    1
    30     8     6    1
    31     8    10    1
    32     6     7    1
    33    29    30    1
    34     7    12    1
    35    48    45    2
    36    10    11    1
    37    10    12    1
    38    11    45    1
    39    14    13    1
    40    14    15    1
    41    12    13    1
    42    45    47    1
    43    45    46    1
    44    13    22    1
    45    15    16    2
    46    22    16    1
    47    22    21    2
    48    16    17    1
    49    21    20    1
    50    17    18    1
    51    17    19    2
    52    20    19    1
