@<TRIPOS>MOLECULE
3gqy_FBP_A_1.pdb
 20 20 0 0 0
SMALL
GASTEIGER

@<TRIPOS>ATOM
      1  P1       -23.3690  -18.2790   11.9540 P.3   541  FBP541      0.5328
      2  O1P      -23.5380  -19.7060   11.4580 O.3   541  FBP541     -0.1145
      3  O2P      -23.0490  -17.3590   10.7910 O.2   541  FBP541     -0.2224
      4  O3P      -24.5940  -17.7900   12.6890 O.3   541  FBP541     -0.1145
      5  O1       -22.1080  -18.2630   12.9490 O.3   541  FBP541     -0.2648
      6  C1       -20.8730  -18.7700   12.4930 C.3   541  FBP541      0.2152
      7  C2       -19.7600  -18.1350   13.3110 C.3   541  FBP541      0.2780
      8  O2       -18.4550  -18.6340   12.8810 O.3   541  FBP541     -0.1897
      9  C3       -19.9700  -18.4060   14.7970 C.3   541  FBP541      0.2408
     10  O3       -19.4630  -19.6670   15.1760 O.3   541  FBP541     -0.2149
     11  C4       -19.2740  -17.2190   15.4140 C.3   541  FBP541      0.2167
     12  O4       -19.6430  -16.9330   16.7380 O.3   541  FBP541     -0.2175
     13  C5       -19.6950  -16.1210   14.4450 C.3   541  FBP541      0.1808
     14  O5       -19.7570  -16.7110   13.1580 O.3   541  FBP541     -0.3255
     15  C6       -18.7520  -14.9400   14.4640 C.3   541  FBP541      0.1859
     16  O6       -19.5140  -13.7810   14.2430 O.3   541  FBP541     -0.2675
     17  P2       -19.0900  -12.4100   14.9340 P.3   541  FBP541      0.5327
     18  O4P      -18.9900  -12.6290   16.4200 O.3   541  FBP541     -0.1145
     19  O5P      -20.1610  -11.3780   14.6340 O.3   541  FBP541     -0.1145
     20  O6P      -17.7470  -11.9850   14.3690 O.2   541  FBP541     -0.2224
@<TRIPOS>BOND
     1     3     1    2
     2     2     1    1
     3     1     4    1
     4     1     5    1
     5     6     5    1
     6     6     7    1
     7     8     7    1
     8    14     7    1
     9    14    13    1
    10     7     9    1
    11    16    15    1
    12    16    17    1
    13    20    17    2
    14    13    15    1
    15    13    11    1
    16    19    17    1
    17     9    10    1
    18     9    11    1
    19    17    18    1
    20    11    12    1
