@<TRIPOS>MOLECULE
3gqy_DZG_B_1.pdb
 30 33 0 0 0
SMALL
GASTEIGER

@<TRIPOS>ATOM
      1  CAA        1.6410    2.3770   14.8640 C.3   540  DZG540      0.2525
      2  OAS        2.5460    1.5210   15.6240 O.3   540  DZG540     -0.4714
      3  CAV        3.7580    1.3310   15.0270 C.ar  540  DZG540      0.1388
      4  CAG        4.7850    0.6860   15.7320 C.ar  540  DZG540      0.0383
      5  CAI        6.0300    0.4830   15.1350 C.ar  540  DZG540      0.0230
      6  CAF        3.9860    1.7680   13.7240 C.ar  540  DZG540      0.0383
      7  CAH        5.2320    1.5650   13.1250 C.ar  540  DZG540      0.0230
      8  CAW        6.2640    0.9340   13.8320 C.ar  540  DZG540      0.1224
      9  SBC        7.8300    0.6860   13.0530 S.O2  540  DZG540      0.0634
     10  OAB        8.3180   -0.6800   13.4340 O.2   540  DZG540     -0.1528
     11  OAC        7.6310    0.7380   11.5690 O.2   540  DZG540     -0.1528
     12  NBA        9.0540    1.8450   13.4640 N.3   540  DZG540     -0.1526
     13  CAP        8.8960    3.2420   12.9880 C.3   540  DZG540      0.1150
     14  CAR       10.2160    4.0730   13.1580 C.3   540  DZG540      0.1150
     15  CAO        9.5830    1.7540   14.8260 C.3   540  DZG540      0.1150
     16  CAQ       10.9590    2.4470   14.8660 C.3   540  DZG540      0.1150
     17  NBB       10.7980    3.8750   14.5110 N.3   540  DZG540     -0.1526
     18  SBD       12.0880    4.8790   15.0220 S.O2  540  DZG540      0.0635
     19  OAD       11.6340    6.3010   15.0740 O.2   540  DZG540     -0.1528
     20  OAE       12.5220    4.4530   16.3970 O.2   540  DZG540     -0.1528
     21  CAX       13.5260    4.7930   14.0430 C.ar  540  DZG540      0.1254
     22  CAL       13.7480    5.7280   13.0340 C.ar  540  DZG540      0.0599
     23  CAZ       14.9090    5.6560   12.2730 C.ar  540  DZG540      0.1737
     24  OAU       15.1050    6.5720   11.2890 O.3   540  DZG540     -0.4683
     25  CAN       16.5020    6.7040   10.9310 C.3   540  DZG540      0.2526
     26  CAM       16.9990    5.3380   10.5820 C.3   540  DZG540      0.2526
     27  OAT       17.0010    4.5650   11.7920 O.3   540  DZG540     -0.4684
     28  CAY       15.8520    4.6560   12.5210 C.ar  540  DZG540      0.1725
     29  CAK       15.6340    3.7390   13.5500 C.ar  540  DZG540      0.0414
     30  CAJ       14.4760    3.8100   14.3110 C.ar  540  DZG540      0.0232
@<TRIPOS>BOND
     1    26    25    1
     2    26    27    1
     3    25    24    1
     4    24    23    1
     5    11     9    2
     6    27    28    1
     7    23    28   ar
     8    23    22   ar
     9    28    29   ar
    10    13    14    1
    11    13    12    1
    12    22    21   ar
    13     9    10    2
    14     9    12    1
    15     9     8    1
    16     7     6   ar
    17     7     8   ar
    18    14    17    1
    19    12    15    1
    20    29    30   ar
    21     6     3   ar
    22     8     5   ar
    23    21    30   ar
    24    21    18    1
    25    17    16    1
    26    17    18    1
    27    15    16    1
    28     1     2    1
    29    18    19    2
    30    18    20    2
    31     3     2    1
    32     3     4   ar
    33     5     4   ar
