@<TRIPOS>MOLECULE
3gqz_GF7_A_1.pdb
 18 19 0 0 0
SMALL
GASTEIGER

@<TRIPOS>ATOM
      1  O18      -37.1580   13.5970   16.4040 O.2   362  GF7362     -0.2913
      2  C16      -36.9260   13.6420   17.6020 C.2   362  GF7362      0.1735
      3  C17      -37.7020   14.5660   18.4960 C.3   362  GF7362      0.0773
      4  C9       -35.8430   12.7700   18.1740 C.ar  362  GF7362      0.0348
      5  C8       -35.5760   12.7760   19.5440 C.ar  362  GF7362      0.0041
      6  C7       -34.5690   11.9670   20.0620 C.ar  362  GF7362      0.0150
      7  C10      -35.0950   11.9500   17.3260 C.ar  362  GF7362      0.0041
      8  C11      -34.0860   11.1390   17.8410 C.ar  362  GF7362      0.0150
      9  C6       -33.8260   11.1500   19.2110 C.ar  362  GF7362      0.0538
     10  N1       -32.8160   10.3450   19.7500 N.am  362  GF7362     -0.2580
     11  C2       -32.9860    9.0460   19.9330 C.2   362  GF7362      0.2300
     12  O12      -33.9690    8.3770   19.6320 O.2   362  GF7362     -0.2745
     13  C5       -31.5480   10.9320   20.1440 C.3   362  GF7362      0.1099
     14  C4       -30.7960    9.6770   20.6010 C.3   362  GF7362      0.1325
     15  C3       -31.7540    8.4810   20.5950 C.3   362  GF7362      0.0986
     16  C13      -30.1750    9.8910   21.9570 C.2   362  GF7362      0.3665
     17  O14      -30.0970   11.0500   22.4210 O.co2 362  GF7362     -0.2456
     18  O15      -29.7250    8.8930   22.5690 O.co2 362  GF7362     -0.2456
@<TRIPOS>BOND
     1     1     2    2
     2     7     8   ar
     3     7     4   ar
     4     2     4    1
     5     2     3    1
     6     8     9   ar
     7     4     5   ar
     8     9    10    1
     9     9     6   ar
    10     5     6   ar
    11    12    11    2
    12    10    11   am
    13    10    13    1
    14    11    15    1
    15    13    14    1
    16    15    14    1
    17    14    16    1
    18    16    17   ar
    19    16    18   ar
