@<TRIPOS>MOLECULE
3gr2_GF4_A_1.pdb
 14 15 0 0 0
SMALL
GASTEIGER

@<TRIPOS>ATOM
      1  O11      -36.5460    5.7220    9.5850 O.2     1  GF41       -0.2717
      2  C3       -37.1100    5.7140   10.7430 C.2     1  GF41        0.2617
      3  C4       -36.5610    6.3630   11.9450 C.3     1  GF41        0.1168
      4  C12      -35.2720    7.1290   12.0900 C.3     1  GF41        0.0149
      5  C13      -34.2690    6.1600   12.6930 C.3     1  GF41        0.0009
      6  C5       -37.5930    6.0490   12.9870 C.2     1  GF41        0.0641
      7  C14      -37.5570    6.4660   14.4360 C.3     1  GF41        0.0494
      8  N1       -38.5860    5.3240   12.4110 N.2     1  GF41       -0.1706
      9  N2       -38.2610    5.1410   11.0580 N.am    1  GF41       -0.0950
     10  C6       -39.0380    4.4600   10.2030 C.1     1  GF41        0.1622
     11  N10      -40.0810    3.7240   10.6250 N.2     1  GF41       -0.0547
     12  N9       -40.6200    3.1840    9.4440 N.2     1  GF41       -0.0117
     13  N8       -39.8430    3.6390    8.3590 N.2     1  GF41       -0.0117
     14  N7       -38.8280    4.4610    8.8740 N.2     1  GF41       -0.0547
@<TRIPOS>BOND
     1    13    14    1
     2    13    12    2
     3    14    10    2
     4    12    11    1
     5     1     2    2
     6    10    11    2
     7    10     9    1
     8     2     9   am
     9     2     3    1
    10     9     8    1
    11     3     4    1
    12     3     6    1
    13     4     5    1
    14     8     6    2
    15     6     7    1
