@<TRIPOS>MOLECULE
3gr3_FMN_A_1.pdb
 31 33 0 0 0
SMALL
GASTEIGER

@<TRIPOS>ATOM
      1  N1        10.8460   66.5380   23.9660 N.2   230  FMN230     -0.2890
      2  C2        10.3010   67.5770   23.2330 C.1   230  FMN230      0.3669
      3  O2        10.6280   67.7380   22.0480 O.2   230  FMN230     -0.1744
      4  N3         9.3880   68.3880   23.8540 N.2   230  FMN230     -0.2300
      5  C4         9.0040   68.2750   25.1400 C.1   230  FMN230      0.2513
      6  O4         8.1760   69.0600   25.6240 O.2   230  FMN230     -0.2057
      7  C4A        9.5810   67.2090   25.9000 C.2   230  FMN230      0.2700
      8  N5         9.2570   67.0320   27.2270 N.2   230  FMN230     -0.3878
      9  C5A        9.6150   65.8450   27.8310 C.2   230  FMN230      0.1320
     10  C6         9.0110   65.5820   29.0640 C.2   230  FMN230      0.0250
     11  C7         9.3110   64.3740   29.6930 C.2   230  FMN230     -0.0238
     12  C7M        8.6930   64.0570   31.0520 C.3   230  FMN230      0.0308
     13  C8        10.1760   63.4820   29.0480 C.2   230  FMN230     -0.0280
     14  C8M       10.4840   62.1400   29.7330 C.3   230  FMN230      0.0304
     15  C9        10.7540   63.7380   27.8220 C.2   230  FMN230     -0.0041
     16  C9A       10.4630   64.9600   27.1770 C.3   230  FMN230      0.1497
     17  N10       11.0390   65.2880   25.9290 N.pl3 230  FMN230     -0.2691
     18  C10       10.4940   66.3750   25.2640 C.2   230  FMN230      0.2416
     19  C1'       11.8820   64.2380   25.2480 C.3   230  FMN230      0.1294
     20  C2'       13.2620   64.2620   25.8330 C.3   230  FMN230      0.2044
     21  O2'       13.9390   65.4260   25.3070 O.3   230  FMN230     -0.2185
     22  C3'       14.0200   63.0040   25.4340 C.3   230  FMN230      0.2164
     23  O3'       13.3310   61.9000   26.1020 O.3   230  FMN230     -0.2175
     24  C4'       15.4760   62.9340   25.8880 C.3   230  FMN230      0.2147
     25  O4'       16.1960   63.9850   25.2220 O.3   230  FMN230     -0.2176
     26  C5'       16.1450   61.6250   25.5210 C.3   230  FMN230      0.1892
     27  O5'       15.9950   61.3000   24.1230 O.3   230  FMN230     -0.2674
     28  P         15.2240   59.9570   23.6610 P.3   230  FMN230      0.5327
     29  O1P       16.0690   58.7530   24.2090 O.3   230  FMN230     -0.1145
     30  O2P       15.2880   60.0660   22.1630 O.2   230  FMN230     -0.2224
     31  O3P       13.8330   59.9750   24.2260 O.3   230  FMN230     -0.1145
@<TRIPOS>BOND
     1     3     2    2
     2    30    28    2
     3     2     4    2
     4     2     1    2
     5    28    27    1
     6    28    29    1
     7    28    31    1
     8     4     5    2
     9     1    18    2
    10    27    26    1
    11     5     6    2
    12     5     7    1
    13    25    24    1
    14    19    20    1
    15    19    17    1
    16    18     7    1
    17    18    17    1
    18    21    20    1
    19    22    20    1
    20    22    24    1
    21    22    23    1
    22    26    24    1
    23     7     8    2
    24    17    16    1
    25    16    15    1
    26    16     9    1
    27     8     9    2
    28    15    13    2
    29     9    10    1
    30    13    11    1
    31    13    14    1
    32    10    11    2
    33    11    12    1
