@<TRIPOS>MOLECULE
3gr4_ADP_A_1.pdb
 18 18 0 0 0
SMALL
GASTEIGER

@<TRIPOS>ATOM
      1  PB       -14.5520   20.4270   -0.3110 P.3   538  ADP538      0.5373
      2  O1B      -13.9600   21.2790   -1.4080 O.2   538  ADP538     -0.2221
      3  O2B      -13.5310   19.9960    0.7190 O.3   538  ADP538     -0.1143
      4  O3B      -15.8230   20.9450    0.3360 O.3   538  ADP538     -0.1143
      5  PA       -14.3660   17.6620   -1.2960 P.3   538  ADP538      0.2231
      6  O1A      -15.2000   16.5340   -0.8130 O.2   538  ADP538     -0.5169
      7  O2A      -12.9780   17.8250   -0.7290 O.3   538  ADP538     -0.4370
      8  O3A      -15.1130   19.0990   -1.0830 O.3   538  ADP538     -0.2261
      9  O5'      -14.6450   17.3720   -2.8550 O.3   538  ADP538     -0.3111
     10  C5'      -16.0970   17.5290   -3.0150 C.3   538  ADP538      0.1813
     11  C4'      -16.7980   17.0370   -4.2820 C.3   538  ADP538      0.1797
     12  O4'      -17.9900   16.3060   -3.9260 O.3   538  ADP538     -0.3336
     13  C3'      -17.3280   18.1570   -5.1670 C.3   538  ADP538      0.2156
     14  O3'      -16.3940   18.6370   -6.1370 O.3   538  ADP538     -0.2176
     15  C2'      -18.5520   17.5540   -5.8200 C.3   538  ADP538      0.2298
     16  O2'      -18.1970   16.8360   -6.9770 O.3   538  ADP538     -0.2160
     17  C1'      -19.0630   16.5130   -4.8580 C.3   538  ADP538      0.2397
     18  N9       -20.3330   16.9540   -4.2000 N.3   538  ADP538     -0.0972
@<TRIPOS>BOND
     1    16    15    1
     2    14    13    1
     3    15    13    1
     4    15    17    1
     5    13    11    1
     6    17    18    1
     7    17    12    1
     8    11    12    1
     9    11    10    1
    10    10     9    1
    11     9     5    1
    12     2     1    2
    13     5     8    1
    14     5     6    2
    15     5     7    1
    16     8     1    1
    17     1     4    1
    18     1     3    1
