@<TRIPOS>MOLECULE
3gr4_FBP_A_1.pdb
 20 20 0 0 0
SMALL
GASTEIGER

@<TRIPOS>ATOM
      1  P1       -23.3860  -18.3640   12.0070 P.3   541  FBP541      0.5328
      2  O1P      -23.5520  -19.7990   11.5100 O.3   541  FBP541     -0.1145
      3  O2P      -23.1350  -17.3980   10.8360 O.2   541  FBP541     -0.2224
      4  O3P      -24.5610  -17.8840   12.8400 O.3   541  FBP541     -0.1145
      5  O1       -22.0780  -18.3340   12.9650 O.3   541  FBP541     -0.2648
      6  C1       -20.8480  -18.8230   12.4690 C.3   541  FBP541      0.2152
      7  C2       -19.7350  -18.1920   13.2960 C.3   541  FBP541      0.2780
      8  O2       -18.4340  -18.6830   12.8550 O.3   541  FBP541     -0.1897
      9  C3       -19.9580  -18.4530   14.7940 C.3   541  FBP541      0.2408
     10  O3       -19.4900  -19.7120   15.2290 O.3   541  FBP541     -0.2149
     11  C4       -19.2480  -17.2560   15.4010 C.3   541  FBP541      0.2167
     12  O4       -19.5810  -16.9740   16.7410 O.3   541  FBP541     -0.2175
     13  C5       -19.6910  -16.1650   14.4310 C.3   541  FBP541      0.1808
     14  O5       -19.7360  -16.7610   13.1460 O.3   541  FBP541     -0.3255
     15  C6       -18.7540  -14.9710   14.4450 C.3   541  FBP541      0.1859
     16  O6       -19.4870  -13.7960   14.1860 O.3   541  FBP541     -0.2675
     17  P2       -18.9880  -12.4590   14.8710 P.3   541  FBP541      0.5327
     18  O4P      -18.8600  -12.7350   16.3420 O.3   541  FBP541     -0.1145
     19  O5P      -20.1120  -11.4610   14.5950 O.3   541  FBP541     -0.1145
     20  O6P      -17.6350  -12.1290   14.2090 O.2   541  FBP541     -0.2224
@<TRIPOS>BOND
     1     3     1    2
     2     2     1    1
     3     1     4    1
     4     1     5    1
     5     6     5    1
     6     6     7    1
     7     8     7    1
     8    14     7    1
     9    14    13    1
    10     7     9    1
    11    16    15    1
    12    16    17    1
    13    20    17    2
    14    13    15    1
    15    13    11    1
    16    19    17    1
    17     9    10    1
    18     9    11    1
    19    17    18    1
    20    11    12    1
