@<TRIPOS>MOLECULE
3gr4_DYY_A_1.pdb
 30 33 0 0 0
SMALL
GASTEIGER

@<TRIPOS>ATOM
      1  CAY       14.0650    5.6540   12.9670 C.ar  550  DYY550      0.0599
      2  CAZ       15.2220    5.5450   12.1980 C.ar  550  DYY550      0.1737
      3  OBA       15.4140    6.4340   11.1780 O.3   550  DYY550     -0.4683
      4  CBB       16.8010    6.7510   10.9700 C.3   550  DYY550      0.2526
      5  CAO       17.6070    5.4640   10.8160 C.3   550  DYY550      0.2526
      6  OAN       17.3000    4.3860   11.7590 O.3   550  DYY550     -0.4684
      7  CAM       16.1460    4.5420   12.4790 C.ar  550  DYY550      0.1725
      8  CAL       15.8980    3.6650   13.5370 C.ar  550  DYY550      0.0414
      9  CAK       14.7450    3.7760   14.2950 C.ar  550  DYY550      0.0232
     10  CAX       13.8170    4.7630   14.0080 C.ar  550  DYY550      0.1254
     11  SAW       12.3620    4.9190   14.9800 S.O2  550  DYY550      0.0635
     12  OBD       11.9410    6.3550   14.9780 O.2   550  DYY550     -0.1528
     13  OAJ       12.6970    4.5390   16.3800 O.2   550  DYY550     -0.1528
     14  NAV       11.0170    4.0090   14.4520 N.3   550  DYY550     -0.1526
     15  CAU       11.1180    2.5730   14.8180 C.3   550  DYY550      0.1150
     16  CAT        9.7720    1.8630   14.5470 C.3   550  DYY550      0.1150
     17  CAI       10.6770    4.1410   13.0130 C.3   550  DYY550      0.1150
     18  CAH        9.3420    3.4130   12.7510 C.3   550  DYY550      0.1150
     19  NAG        9.4910    1.9810   13.1010 N.3   550  DYY550     -0.1524
     20  SAF        8.2290    1.0110   12.5350 S.O2  550  DYY550      0.0677
     21  OAS        8.6690   -0.4090   12.6430 O.2   550  DYY550     -0.1526
     22  OAB        7.9560    1.3580   11.1040 O.2   550  DYY550     -0.1526
     23  CAE        6.6950    1.1590   13.4030 C.ar  550  DYY550      0.1767
     24  CAD        5.7260    2.0530   12.9430 C.ar  550  DYY550      0.1609
     25  FAA        5.9760    2.8280   11.8590 F     550  DYY550     -0.2027
     26  CAC        4.5100    2.1570   13.6220 C.ar  550  DYY550      0.0312
     27  CAP        4.2500    1.3660   14.7400 C.ar  550  DYY550      0.0047
     28  CAQ        5.2160    0.4670   15.1910 C.ar  550  DYY550      0.0312
     29  CAR        6.4270    0.3610   14.5120 C.ar  550  DYY550      0.1609
     30  FBC        7.3600   -0.5060   14.9430 F     550  DYY550     -0.2027
@<TRIPOS>BOND
     1     5     4    1
     2     5     6    1
     3     4     3    1
     4    22    20    2
     5     3     2    1
     6     6     7    1
     7    25    24    1
     8     2     7   ar
     9     2     1   ar
    10     7     8   ar
    11    20    21    2
    12    20    19    1
    13    20    23    1
    14    18    17    1
    15    18    19    1
    16    24    23   ar
    17    24    26   ar
    18     1    10   ar
    19    17    14    1
    20    19    16    1
    21    23    29   ar
    22     8     9   ar
    23    26    27   ar
    24    10     9   ar
    25    10    11    1
    26    14    15    1
    27    14    11    1
    28    29    30    1
    29    29    28   ar
    30    16    15    1
    31    27    28   ar
    32    12    11    2
    33    11    13    2
