@<TRIPOS>MOLECULE
3gr6_NAP_A_1.pdb
 48 52 0 0 0
SMALL
GASTEIGER

@<TRIPOS>ATOM
      1  PA         8.6290   28.0150  -21.3320 P.3   361  NAP361      0.2189
      2  O1A        9.5570   27.1770  -20.5160 O.3   361  NAP361     -0.4371
      3  O2A        9.3390   28.8250  -22.3660 O.2   361  NAP361     -0.5170
      4  O5B        7.8100   28.9770  -20.3610 O.3   361  NAP361     -0.3112
      5  C5B        7.2530   28.4310  -19.1860 C.3   361  NAP361      0.1813
      6  C4B        7.0550   29.6530  -18.3420 C.3   361  NAP361      0.1820
      7  O4B        6.3750   29.3650  -17.1660 O.3   361  NAP361     -0.3136
      8  C3B        8.3950   30.2310  -17.9340 C.3   361  NAP361      0.2157
      9  O3B        8.5190   31.5550  -18.4190 O.3   361  NAP361     -0.2175
     10  C2B        8.3260   30.2460  -16.4210 C.3   361  NAP361      0.2314
     11  O2B        8.9200   31.3620  -15.7890 O.3   361  NAP361     -0.2630
     12  C1B        6.8340   30.2280  -16.1590 C.3   361  NAP361      0.3158
     13  N9A        6.6100   29.7570  -14.7800 N.pl3 361  NAP361     -0.1439
     14  C8A        6.7380   28.5150  -14.2440 C.3   361  NAP361      0.3377
     15  N7A        6.4290   28.6340  -12.9450 N.2   361  NAP361     -0.2095
     16  C5A        6.0510   29.8860  -12.6490 C.2   361  NAP361      0.2526
     17  C6A        5.6800   30.5290  -11.4770 C.2   361  NAP361      0.4393
     18  N6A        5.5240   29.9450  -10.2890 N.pl3 361  NAP361      0.2180
     19  N1A        5.4130   31.8540  -11.5460 N.2   361  NAP361      0.0021
     20  C2A        5.5610   32.5820  -12.7220 C.3   361  NAP361      0.5254
     21  N3A        5.9560   31.9450  -13.8790 N.2   361  NAP361     -0.0055
     22  C4A        6.1920   30.6100  -13.8070 C.2   361  NAP361      0.3518
     23  O3         7.4680   27.0750  -21.8500 O.3   361  NAP361     -0.2703
     24  PN         6.3240   27.0800  -22.9830 P.3   361  NAP361      0.2189
     25  O1N        6.4220   25.7300  -23.5680 O.3   361  NAP361     -0.4371
     26  O2N        6.4990   28.3300  -23.7230 O.2   361  NAP361     -0.5170
     27  O5D        5.0640   27.1990  -21.9570 O.3   361  NAP361     -0.3112
     28  C5D        3.9130   28.0560  -22.0800 C.3   361  NAP361      0.1813
     29  C4D        2.6120   27.2080  -22.1310 C.3   361  NAP361      0.1796
     30  O4D        2.5320   26.2890  -23.2090 O.3   361  NAP361     -0.3354
     31  C3D        2.5150   26.2770  -20.9840 C.3   361  NAP361      0.2155
     32  O3D        1.3850   26.6270  -20.2440 O.3   361  NAP361     -0.2176
     33  C2D        2.3020   24.9190  -21.6260 C.3   361  NAP361      0.2271
     34  O2D        1.6650   24.1500  -20.6410 O.3   361  NAP361     -0.2161
     35  C1D        1.6630   25.1350  -23.0380 C.3   361  NAP361      0.2096
     36  N1N        1.8750   24.3260  -24.0660 N.3   361  NAP361     -0.2482
     37  C2N        3.4320   24.2860  -24.4330 C.3   361  NAP361      0.0834
     38  C3N        4.0990   23.0140  -25.1450 C.3   361  NAP361      0.0959
     39  C7N        5.2640   23.0340  -26.1240 C.2   361  NAP361      0.2616
     40  O7N        5.2060   22.4360  -27.1370 O.2   361  NAP361     -0.2716
     41  N7N        6.1060   23.7640  -25.8990 N.am  361  NAP361     -0.0878
     42  C4N        3.1000   22.6560  -26.0420 C.3   361  NAP361      0.0120
     43  C5N        1.6530   22.2410  -25.5960 C.3   361  NAP361      0.0179
     44  C6N        0.8710   23.3360  -24.8070 C.3   361  NAP361      0.0743
     45  P2B       10.4620   31.3180  -15.2470 P.3   361  NAP361      0.5328
     46  O1X       10.6950   32.7590  -14.8030 O.3   361  NAP361     -0.1145
     47  O2X       11.3770   30.7540  -16.3470 O.2   361  NAP361     -0.2224
     48  O3X       10.6470   30.3500  -14.1460 O.3   361  NAP361     -0.1145
@<TRIPOS>BOND
     1    40    39    2
     2    39    41   am
     3    39    38    1
     4    42    43    1
     5    42    38    1
     6    43    44    1
     7    38    37    1
     8    44    36    1
     9    37    36    1
    10    36    35    1
    11    26    24    2
    12    25    24    1
    13    30    35    1
    14    30    29    1
    15    35    33    1
    16    24    27    1
    17    24    23    1
    18     3     1    2
    19    29    28    1
    20    29    31    1
    21    28    27    1
    22    23     1    1
    23    33    31    1
    24    33    34    1
    25     1     2    1
    26     1     4    1
    27    31    32    1
    28     4     5    1
    29     5     6    1
    30     9     8    1
    31     6     8    1
    32     6     7    1
    33     8    10    1
    34     7    12    1
    35    10    12    1
    36    10    11    1
    37    47    45    2
    38    12    13    1
    39    11    45    1
    40    45    46    1
    41    45    48    1
    42    13    14    1
    43    13    22    1
    44    14    15    1
    45    21    22    2
    46    21    20    1
    47    22    16    1
    48    15    16    2
    49    20    19    1
    50    16    17    1
    51    19    17    2
    52    17    18    1
