@<TRIPOS>MOLECULE
3gr6_TCL_A_1.pdb
 17 18 0 0 0
SMALL
GASTEIGER

@<TRIPOS>ATOM
      1  C1         6.0830   20.4870  -18.6910 C.ar  371  TCL371      0.0566
      2  C2         6.1730   21.4340  -17.6760 C.ar  371  TCL371      0.0611
      3  C6         5.7160   20.8750  -19.9720 C.ar  371  TCL371      0.2307
      4  C5         5.4260   22.3060  -20.2350 C.ar  371  TCL371      0.1840
      5  C4         5.5290   23.2160  -19.1920 C.ar  371  TCL371      0.0417
      6  C3         5.9000   22.7770  -17.9240 C.ar  371  TCL371      0.0147
      7  C11        4.1400   19.9130  -24.4360 C.ar  371  TCL371      0.0587
      8  C10        3.1640   20.2230  -23.4930 C.ar  371  TCL371      0.0259
      9  C9         3.4310   21.1520  -22.4970 C.ar  371  TCL371      0.0929
     10  C8         4.7650   21.8020  -22.4580 C.ar  371  TCL371      0.1559
     11  C12        5.3910   20.5240  -24.3970 C.ar  371  TCL371      0.0146
     12  C13        5.7070   21.4620  -23.4190 C.ar  371  TCL371      0.0392
     13  O7         5.0610   22.7240  -21.4880 O.3   371  TCL371     -0.4494
     14 CL14        6.6490   20.9190  -16.0230 Cl    371  TCL371     -0.0821
     15 CL15        3.7820   18.7100  -25.7190 Cl    371  TCL371     -0.0822
     16 CL16        2.1820   21.5620  -21.2740 Cl    371  TCL371     -0.0790
     17  O17        5.6250   19.9560  -20.9730 O.3   371  TCL371     -0.2833
@<TRIPOS>BOND
     1    15     7    1
     2     7    11   ar
     3     7     8   ar
     4    11    12   ar
     5     8     9   ar
     6    12    10   ar
     7     9    10   ar
     8     9    16    1
     9    10    13    1
    10    13     4    1
    11    17     3    1
    12     4     3   ar
    13     4     5   ar
    14     3     1   ar
    15     5     6   ar
    16     1     2   ar
    17     6     2   ar
    18     2    14    1
