@<TRIPOS>MOLECULE
3gr7_FMN_A_1.pdb
 31 33 0 0 0
SMALL
GASTEIGER

@<TRIPOS>ATOM
      1  N1         9.7090  -17.7430   -9.8490 N.2   341  FMN341     -0.2887
      2  C2         8.5830  -17.7680  -10.6470 C.1   341  FMN341      0.3669
      3  O2         8.7000  -17.8530  -11.8690 O.2   341  FMN341     -0.1744
      4  N3         7.3270  -17.7050  -10.0750 N.2   341  FMN341     -0.2300
      5  C4         7.1930  -17.6090   -8.7040 C.1   341  FMN341      0.2513
      6  O4         6.0710  -17.5360   -8.2040 O.2   341  FMN341     -0.2057
      7  C4A        8.3270  -17.5940   -7.8940 C.2   341  FMN341      0.2706
      8  N5         8.2120  -17.5390   -6.5190 N.2   341  FMN341     -0.3841
      9  C5A        9.3250  -17.2050   -5.7740 C.2   341  FMN341      0.1452
     10  C6         9.1850  -16.8430   -4.4370 C.2   341  FMN341      0.0252
     11  C7        10.2990  -16.4730   -3.6920 C.2   341  FMN341     -0.0375
     12  C7M       10.1430  -16.0870   -2.2500 C.3   341  FMN341      0.0268
     13  C8        11.5540  -16.4490   -4.2900 C.3   341  FMN341      0.0417
     14  C8M       12.7580  -16.0640   -3.4810 C.3   341  FMN341      0.0091
     15  C9        11.6990  -16.8360   -5.6180 C.2   341  FMN341     -0.0049
     16  C9A       10.5830  -17.1960   -6.3700 C.2   341  FMN341      0.0795
     17  N10       10.7230  -17.5670   -7.6970 N.pl3 341  FMN341     -0.2545
     18  C10        9.5880  -17.6560   -8.4760 C.2   341  FMN341      0.2449
     19  C1'       12.0320  -17.3290   -8.3910 C.3   341  FMN341      0.1336
     20  C2'       12.2370  -15.8310   -8.6030 C.3   341  FMN341      0.2048
     21  O2'       11.2700  -15.3370   -9.5020 O.3   341  FMN341     -0.2185
     22  C3'       13.6240  -15.5620   -9.1630 C.3   341  FMN341      0.2165
     23  O3'       13.6750  -16.0020  -10.5000 O.3   341  FMN341     -0.2175
     24  C4'       14.6770  -16.3010   -8.3500 C.3   341  FMN341      0.2147
     25  O4'       14.4880  -16.0360   -6.9770 O.3   341  FMN341     -0.2176
     26  C5'       16.0880  -15.8950   -8.7680 C.3   341  FMN341      0.1892
     27  O5'       16.1770  -14.4890   -8.8480 O.3   341  FMN341     -0.2674
     28  P         17.1060  -13.7020   -7.7980 P.3   341  FMN341      0.5327
     29  O1P       18.4070  -14.4510   -7.6510 O.3   341  FMN341     -0.1145
     30  O2P       17.3800  -12.3050   -8.2940 O.2   341  FMN341     -0.2224
     31  O3P       16.3960  -13.6440   -6.4700 O.3   341  FMN341     -0.1145
@<TRIPOS>BOND
     1     3     2    2
     2     2     4    2
     3     2     1    2
     4    23    22    1
     5     4     5    2
     6     1    18    2
     7    21    20    1
     8    22    20    1
     9    22    24    1
    10    27    26    1
    11    27    28    1
    12    26    24    1
    13     5     6    2
    14     5     7    1
    15    20    19    1
    16    18     7    1
    17    18    17    1
    18    19    17    1
    19    24    25    1
    20    30    28    2
    21     7     8    2
    22    28    29    1
    23    28    31    1
    24    17    16    1
    25     8     9    2
    26    16     9    1
    27    16    15    2
    28     9    10    1
    29    15    13    1
    30    10    11    2
    31    13    11    1
    32    13    14    1
    33    11    12    1
