@<TRIPOS>MOLECULE
3gr8_FMN_A_1.pdb
 31 33 0 0 0
SMALL
GASTEIGER

@<TRIPOS>ATOM
      1  N1         2.5120   17.9390   -7.4860 N.2   341  FMN341     -0.2887
      2  C2         1.8970   17.4100   -6.3700 C.1   341  FMN341      0.3669
      3  O2         0.9630   16.6240   -6.5020 O.2   341  FMN341     -0.1744
      4  N3         2.3320   17.7490   -5.1050 N.2   341  FMN341     -0.2300
      5  C4         3.3840   18.6280   -4.9490 C.1   341  FMN341      0.2513
      6  O4         3.7540   18.9440   -3.8210 O.2   341  FMN341     -0.2057
      7  C4A        4.0090   19.1640   -6.0700 C.2   341  FMN341      0.2706
      8  N5         5.0590   20.0450   -5.9240 N.2   341  FMN341     -0.3841
      9  C5A        5.4630   20.7760   -7.0220 C.2   341  FMN341      0.1452
     10  C6         6.3190   21.8570   -6.8530 C.2   341  FMN341      0.0252
     11  C7         6.7410   22.5960   -7.9520 C.2   341  FMN341     -0.0375
     12  C7M        7.6700   23.7600   -7.7660 C.3   341  FMN341      0.0268
     13  C8         6.3040   22.2520   -9.2260 C.3   341  FMN341      0.0417
     14  C8M        6.7450   23.0450  -10.4210 C.3   341  FMN341      0.0091
     15  C9         5.4510   21.1670   -9.3920 C.2   341  FMN341     -0.0049
     16  C9A        5.0210   20.4300   -8.2920 C.2   341  FMN341      0.0795
     17  N10        4.1650   19.3570   -8.4630 N.pl3 341  FMN341     -0.2545
     18  C10        3.5690   18.8140   -7.3430 C.2   341  FMN341      0.2449
     19  C1'        3.5360   19.1150   -9.8030 C.3   341  FMN341      0.1336
     20  C2'        2.4630   20.1680  -10.0690 C.3   341  FMN341      0.2048
     21  O2'        1.3570   19.9330   -9.2290 O.3   341  FMN341     -0.2185
     22  C3'        2.0050   20.1240  -11.5210 C.3   341  FMN341      0.2165
     23  O3'        1.1360   19.0310  -11.7020 O.3   341  FMN341     -0.2175
     24  C4'        3.1930   19.9940  -12.4660 C.3   341  FMN341      0.2147
     25  O4'        4.1190   21.0290  -12.2070 O.3   341  FMN341     -0.2176
     26  C5'        2.7370   20.0770  -13.9160 C.3   341  FMN341      0.1892
     27  O5'        1.7010   21.0270  -14.0160 O.3   341  FMN341     -0.2674
     28  P          1.9420   22.4030  -14.8140 P.3   341  FMN341      0.5327
     29  O1P        2.4140   22.1030  -16.2120 O.2   341  FMN341     -0.2224
     30  O2P        3.0100   23.1980  -14.1190 O.3   341  FMN341     -0.1145
     31  O3P        0.6550   23.1950  -14.8570 O.3   341  FMN341     -0.1145
@<TRIPOS>BOND
     1    29    28    2
     2    31    28    1
     3    28    30    1
     4    28    27    1
     5    27    26    1
     6    26    24    1
     7    24    25    1
     8    24    22    1
     9    23    22    1
    10    22    20    1
    11    14    13    1
    12    20    19    1
    13    20    21    1
    14    19    17    1
    15    15    13    1
    16    15    16    2
    17    13    11    1
    18    17    16    1
    19    17    18    1
    20    16     9    1
    21    11    12    1
    22    11    10    2
    23     1    18    2
    24     1     2    2
    25    18     7    1
    26     9    10    1
    27     9     8    2
    28     3     2    2
    29     2     4    2
    30     7     8    2
    31     7     5    1
    32     4     5    2
    33     5     6    2
