@<TRIPOS>MOLECULE
3gr9_AKG_A_1.pdb
 10 9 0 0 0
SMALL
GASTEIGER

@<TRIPOS>ATOM
      1  C1       -19.4170   10.5220    2.6330 C.2   401  AKG401      0.4219
      2  O1       -19.1990    9.4500    2.0150 O.co2 401  AKG401     -0.2373
      3  O2       -20.4940   11.1490    2.4610 O.co2 401  AKG401     -0.2373
      4  C2       -18.4360   11.0170    3.6290 C.2   401  AKG401      0.2526
      5  O5       -18.7610   11.9290    4.3580 O.2   401  AKG401     -0.2843
      6  C3       -17.0810   10.3570    3.7530 C.3   401  AKG401      0.0881
      7  C4       -16.9080    9.6980    5.1270 C.3   401  AKG401      0.1224
      8  C5       -15.4750    9.3170    5.3150 C.2   401  AKG401      0.3653
      9  O3       -14.7000   10.0450    6.0090 O.co2 401  AKG401     -0.2456
     10  O4       -15.0060    8.2070    4.6930 O.co2 401  AKG401     -0.2456
@<TRIPOS>BOND
     1     2     1   ar
     2     3     1   ar
     3     1     4    1
     4     4     6    1
     5     4     5    2
     6     6     7    1
     7    10     8   ar
     8     7     8    1
     9     8     9   ar
