@<TRIPOS>MOLECULE
3grj_G14_A_1.pdb
 14 15 0 0 0
SMALL
GASTEIGER

@<TRIPOS>ATOM
      1  O14      -16.0790  -14.3040   -1.9020 O.co2 365  G14365     -0.2379
      2  C12      -16.9740  -13.5050   -2.3070 C.2   365  G14365      0.4156
      3  O13      -18.0470  -13.8590   -2.8740 O.co2 365  G14365     -0.2379
      4  C10      -16.7090  -12.0730   -2.1370 C.2   365  G14365      0.2247
      5  C9       -17.6450  -11.0230   -1.9480 C.3   365  G14365      0.2036
      6  N8       -16.9140   -9.8350   -1.8600 N.2   365  G14365     -0.2022
      7  C7       -15.6120  -10.2260   -1.9870 C.1   365  G14365      0.0832
      8  N11      -15.4460  -11.5660   -2.1510 N.2   365  G14365     -0.3463
      9  C6       -14.5960   -9.1720   -1.9280 C.ar  365  G14365      0.0737
     10  C1       -13.2940   -9.5560   -1.5730 C.ar  365  G14365      0.0110
     11  C2       -12.2850   -8.5950   -1.4860 C.ar  365  G14365      0.0007
     12  C3       -12.6110   -7.2670   -1.7950 C.ar  365  G14365      0.0000
     13  C4       -13.9250   -6.8860   -2.1610 C.ar  365  G14365      0.0007
     14  C5       -14.9330   -7.8470   -2.2270 C.ar  365  G14365      0.0110
@<TRIPOS>BOND
     1     3     2   ar
     2     2     4    1
     3     2     1   ar
     4    14    13   ar
     5    14     9   ar
     6    13    12   ar
     7     8     4    2
     8     8     7    2
     9     4     5    1
    10     7     9    1
    11     7     6    2
    12     5     6    1
    13     9    10   ar
    14    12    11   ar
    15    10    11   ar
