@<TRIPOS>MOLECULE
3grr_SAH_A_1.pdb
 26 28 0 0 0
SMALL
GASTEIGER

@<TRIPOS>ATOM
      1  N         17.7090   19.5270   14.8100 N.3   300  SAH300     -0.1208
      2  CA        17.9340   19.3710   13.3410 C.3   300  SAH300      0.1952
      3  CB        19.1260   20.1960   12.8490 C.3   300  SAH300      0.0422
      4  CG        20.4530   20.0550   13.5870 C.3   300  SAH300      0.0597
      5  SD        21.8240   20.7150   12.6090 S.3   300  SAH300     -0.1375
      6  C         18.0980   17.9120   12.9470 C.2   300  SAH300      0.3819
      7  O         18.1560   17.5730   11.7640 O.co2 300  SAH300     -0.2441
      8  OXT       18.1710   17.0360   13.8070 O.co2 300  SAH300     -0.2441
      9  C5'       21.9420   22.1920   13.6700 C.3   300  SAH300      0.0899
     10  C4'       20.8590   23.2690   13.4810 C.3   300  SAH300      0.1630
     11  O4'       21.0740   24.3080   14.4180 O.3   300  SAH300     -0.3153
     12  C3'       20.8430   23.9510   12.1150 C.3   300  SAH300      0.2168
     13  O3'       19.4910   24.1910   11.7880 O.3   300  SAH300     -0.2175
     14  C2'       21.5740   25.2680   12.3370 C.3   300  SAH300      0.2569
     15  O2'       21.1510   26.3110   11.4880 O.3   300  SAH300     -0.2130
     16  C1'       21.2060   25.5650   13.7770 C.3   300  SAH300      0.3185
     17  N9        22.1960   26.3210   14.5480 N.pl3 300  SAH300     -0.1439
     18  C8        23.5620   26.3290   14.4160 C.3   300  SAH300      0.3377
     19  N7        24.0730   27.1440   15.3660 N.2   300  SAH300     -0.2095
     20  C5        23.0500   27.6420   16.1140 C.2   300  SAH300      0.2526
     21  C6        22.9970   28.5120   17.2000 C.2   300  SAH300      0.4393
     22  N6        24.1130   29.0300   17.7200 N.pl3 300  SAH300      0.2180
     23  N1        21.7710   28.8410   17.7420 N.2   300  SAH300      0.0021
     24  C2        20.5980   28.3140   17.2280 C.3   300  SAH300      0.5254
     25  N3        20.6610   27.4620   16.1480 N.2   300  SAH300     -0.0055
     26  C4        21.8620   27.1270   15.6060 C.2   300  SAH300      0.3518
@<TRIPOS>BOND
     1    15    14    1
     2     7     6   ar
     3    13    12    1
     4    12    14    1
     5    12    10    1
     6    14    16    1
     7     5     4    1
     8     5     9    1
     9     3     2    1
    10     3     4    1
    11     6     2    1
    12     6     8   ar
    13     2     1    1
    14    10     9    1
    15    10    11    1
    16    16    11    1
    17    16    17    1
    18    18    17    1
    19    18    19    1
    20    17    26    1
    21    19    20    2
    22    26    20    1
    23    26    25    2
    24    20    21    1
    25    25    24    1
    26    21    22    1
    27    21    23    2
    28    24    23    1
