@<TRIPOS>MOLECULE
3grt_TS2_A_1.pdb
 48 48 0 0 0
SMALL
GASTEIGER

@<TRIPOS>ATOM
      1  N1        69.1630   36.1420   18.7530 N.3    17  TS217      -0.1208
      2  CA1       69.3960   35.4260   17.4710 C.3    17  TS217       0.1948
      3  C1        69.7440   36.3900   16.3150 C.2    17  TS217       0.3819
      4  OE1       69.8860   37.6040   16.5930 O.co2  17  TS217      -0.2441
      5  OE2       69.9130   35.9320   15.1540 O.co2  17  TS217      -0.2441
      6  CB1       68.1810   34.5780   17.1380 C.3    17  TS217       0.0402
      7  CG1       67.0960   35.2850   16.3490 C.3    17  TS217       0.0889
      8  CD1       66.4280   36.4580   17.0730 C.2    17  TS217       0.2424
      9  O1        67.0530   37.2840   17.7540 O.2    17  TS217      -0.2733
     10  N2        65.1160   36.5160   16.9100 N.am   17  TS217      -0.1892
     11  CA2       64.3090   37.5750   17.4800 C.3    17  TS217       0.2116
     12  C2        62.9000   37.0060   17.6580 C.1    17  TS217       0.1477
     13  O2        62.2700   37.1650   18.7290 O.2    17  TS217      -0.2253
     14  CB2       64.2830   38.7170   16.4730 C.3    17  TS217       0.1073
     15  SG2       62.6870   39.5760   16.3750 S.3    17  TS217      -0.0790
     16  N3        62.4450   36.3400   16.5840 N.2    17  TS217      -0.1865
     17  CA3       61.1410   35.6920   16.4480 C.3    17  TS217       0.2577
     18  C3        60.2810   35.5440   17.6730 C.1    17  TS217       0.1524
     19  O3        59.3080   36.2880   17.8670 O.2    17  TS217      -0.2250
     20  N4        61.5740   41.4760   21.7640 N.2    17  TS217      -0.1865
     21  CA4       60.7060   41.8870   22.8640 C.3    17  TS217       0.2577
     22  C4        59.5930   40.9810   23.4060 C.1    17  TS217       0.1524
     23  O4        58.4460   41.4210   23.4050 O.2    17  TS217      -0.2250
     24  C5        62.0190   42.2940   20.8060 C.1    17  TS217       0.1477
     25  O5        61.7250   43.4970   20.7280 O.2    17  TS217      -0.2253
     26  CA5       62.9170   41.6660   19.7340 C.3    17  TS217       0.2116
     27  N5        63.2800   40.2370   19.9150 N.am   17  TS217      -0.1892
     28  CB5       62.2130   41.8820   18.3920 C.3    17  TS217       0.1073
     29  SG5       63.1820   41.4910   16.9010 S.3    17  TS217      -0.0790
     30  CA6       64.5720   37.0280   23.0970 C.3    17  TS217       0.1948
     31  C6        63.3670   37.7390   23.7790 C.2    17  TS217       0.3819
     32  OE6       62.8520   37.1190   24.7460 O.co2  17  TS217      -0.2441
     33  OE7       62.9220   38.8530   23.3730 O.co2  17  TS217      -0.2441
     34  N6        64.1950   35.6840   22.5340 N.3    17  TS217      -0.1208
     35  CB6       65.2890   37.9050   22.0520 C.3    17  TS217       0.0402
     36  CG6       64.4420   38.3150   20.8430 C.3    17  TS217       0.0889
     37  CD6       64.1690   39.8190   20.8190 C.2    17  TS217       0.2424
     38  O6        64.7440   40.5810   21.6080 O.2    17  TS217      -0.2733
     39  N1'       59.9580   39.7500   23.8210 N.2    17  TS217      -0.2046
     40  C1'       59.1250   38.6800   24.3870 C.3    17  TS217       0.1391
     41  C2'       59.8670   37.3170   24.7280 C.3    17  TS217       0.0460
     42  N2'       59.6340   35.9230   22.4270 N.3    17  TS217      -0.2180
     43  C3'       60.4310   36.5630   23.4860 C.3    17  TS217       0.0908
     44  C4'       59.7400   34.4800   22.7370 C.3    17  TS217       0.0888
     45  C5'       60.8570   33.6670   22.0090 C.3    17  TS217       0.0209
     46  C6'       60.4560   33.1790   20.5870 C.3    17  TS217       0.0287
     47  C7'       59.8880   34.3190   19.7580 C.3    17  TS217       0.1376
     48  N3'       60.6300   34.5860   18.5250 N.2    17  TS217      -0.2046
@<TRIPOS>BOND
     1     5     3   ar
     2     3     4   ar
     3     3     2    1
     4     7     8    1
     5     7     6    1
     6    15    14    1
     7    15    29    1
     8    17    16    1
     9    17    18    1
    10    14    11    1
    11    16    12    2
    12    29    28    1
    13    10     8   am
    14    10    11    1
    15     8     9    2
    16     6     2    1
    17     2     1    1
    18    11    12    1
    19    12    13    2
    20    18    19    2
    21    18    48    2
    22    28    26    1
    23    48    47    1
    24    26    27    1
    25    26    24    1
    26    47    46    1
    27    27    37   am
    28    46    45    1
    29    25    24    2
    30    24    20    2
    31    37    36    1
    32    37    38    2
    33    36    35    1
    34    20    21    1
    35    45    44    1
    36    35    30    1
    37    42    44    1
    38    42    43    1
    39    34    30    1
    40    21    22    1
    41    30    31    1
    42    33    31   ar
    43    23    22    2
    44    22    39    2
    45    43    41    1
    46    31    32   ar
    47    39    40    1
    48    40    41    1
