@<TRIPOS>MOLECULE
3gru_AMP_A_1.pdb
 23 25 0 0 0
SMALL
GASTEIGER

@<TRIPOS>ATOM
      1  P         25.9740   22.9320   13.0790 P.3   300  AMP300      0.5327
      2  O1P       26.2970   23.7410   11.8750 O.2   300  AMP300     -0.2224
      3  O2P       27.1570   22.9610   14.1850 O.3   300  AMP300     -0.1145
      4  O3P       25.7510   21.3730   12.7090 O.3   300  AMP300     -0.1145
      5  O5'       24.6470   23.3760   13.8490 O.3   300  AMP300     -0.2675
      6  C5'       23.4020   22.7690   13.5320 C.3   300  AMP300      0.1860
      7  C4'       22.4000   23.8420   13.1550 C.3   300  AMP300      0.1823
      8  O4'       22.0930   24.5860   14.3520 O.3   300  AMP300     -0.3135
      9  C3'       23.1320   24.7980   12.2160 C.3   300  AMP300      0.2184
     10  O3'       22.7840   24.4940   10.8610 O.3   300  AMP300     -0.2174
     11  C2'       22.5990   26.1670   12.5890 C.3   300  AMP300      0.2570
     12  O2'       21.5500   26.4890   11.6920 O.3   300  AMP300     -0.2130
     13  C1'       22.0290   25.9930   14.0040 C.3   300  AMP300      0.3186
     14  N9        22.8510   26.7170   15.0060 N.pl3 300  AMP300     -0.1439
     15  C8        24.1870   26.7590   15.0520 C.3   300  AMP300      0.3377
     16  N7        24.5650   27.4970   16.0950 N.2   300  AMP300     -0.2095
     17  C5        23.4640   27.9290   16.7110 C.2   300  AMP300      0.2526
     18  C6        23.2330   28.7300   17.8280 C.2   300  AMP300      0.4393
     19  N6        24.2660   29.2310   18.5140 N.pl3 300  AMP300      0.2180
     20  N1        21.9610   28.9790   18.2030 N.2   300  AMP300      0.0021
     21  C2        20.9310   28.4890   17.5170 C.3   300  AMP300      0.5254
     22  N3        21.1240   27.7240   16.4470 N.2   300  AMP300     -0.0055
     23  C4        22.3720   27.4300   16.0230 C.2   300  AMP300      0.3518
@<TRIPOS>BOND
     1    10     9    1
     2    12    11    1
     3     2     1    2
     4     9    11    1
     5     9     7    1
     6    11    13    1
     7     4     1    1
     8     1     5    1
     9     1     3    1
    10     7     6    1
    11     7     8    1
    12     6     5    1
    13    13     8    1
    14    13    14    1
    15    14    15    1
    16    14    23    1
    17    15    16    1
    18    23    22    2
    19    23    17    1
    20    16    17    2
    21    22    21    1
    22    17    18    1
    23    21    20    1
    24    18    20    2
    25    18    19    1
