@<TRIPOS>MOLECULE
3grv_ADN_A_1.pdb
 19 21 0 0 0
SMALL
GASTEIGER

@<TRIPOS>ATOM
      1  O5'       21.1290   22.8550   13.1540 O.3   300  ADN300     -0.2176
      2  C5'       21.7120   24.1450   13.3130 C.3   300  ADN300      0.2143
      3  C4'       20.5920   25.1720   13.2030 C.3   300  ADN300      0.1851
      4  O4'       20.8060   26.2230   14.1490 O.3   300  ADN300     -0.3134
      5  C3'       20.5760   25.8280   11.8330 C.3   300  ADN300      0.2186
      6  O3'       19.2000   26.0340   11.4740 O.3   300  ADN300     -0.2174
      7  C2'       21.3310   27.1420   12.0390 C.3   300  ADN300      0.2570
      8  O2'       20.8890   28.1760   11.1670 O.3   300  ADN300     -0.2130
      9  C1'       20.9640   27.4780   13.4810 C.3   300  ADN300      0.3186
     10  N9        21.9750   28.2450   14.2410 N.pl3 300  ADN300     -0.1439
     11  C8        23.3080   28.2190   14.0780 C.3   300  ADN300      0.3377
     12  N7        23.9240   29.0310   14.9650 N.2   300  ADN300     -0.2095
     13  C5        22.9660   29.5940   15.7220 C.2   300  ADN300      0.2526
     14  C6        22.9320   30.5600   16.8370 C.2   300  ADN300      0.4393
     15  N6        24.0910   31.0710   17.3410 N.pl3 300  ADN300      0.2180
     16  N1        21.7160   30.8890   17.3390 N.2   300  ADN300      0.0021
     17  C2        20.5630   30.3700   16.8600 C.3   300  ADN300      0.5254
     18  N3        20.5280   29.4890   15.8390 N.2   300  ADN300     -0.0055
     19  C4        21.6770   29.0760   15.2400 C.2   300  ADN300      0.3518
@<TRIPOS>BOND
     1     8     7    1
     2     6     5    1
     3     5     7    1
     4     5     3    1
     5     7     9    1
     6     1     2    1
     7     3     2    1
     8     3     4    1
     9     9     4    1
    10     9    10    1
    11    11    10    1
    12    11    12    1
    13    10    19    1
    14    12    13    2
    15    19    13    1
    16    19    18    2
    17    13    14    1
    18    18    17    1
    19    14    16    2
    20    14    15    1
    21    17    16    1
