@<TRIPOS>MOLECULE
3grx_GSH_A_1.pdb
 35 34 0 0 0
SMALL
GASTEIGER

@<TRIPOS>ATOM
      1  N1         5.3490    3.7850   -9.5390 N.4    83  GSH83       0.3871
      2  CA1        5.2580    5.2110   -9.8590 C.3    83  GSH83       0.0209
      3  C1         5.1360    5.2790  -11.3680 C.2    83  GSH83       0.3420
      4  O11        6.0890    4.8540  -12.0510 O.co2  83  GSH83      -0.2483
      5  O12        4.0500    5.6490  -11.8420 O.co2  83  GSH83      -0.2483
      6  CB1        6.4740    6.0150   -9.3860 C.3    83  GSH83      -0.0477
      7  CG1        6.4740    6.2960   -7.8750 C.3    83  GSH83       0.0230
      8  CD1        7.8230    6.8280   -7.3860 C.2    83  GSH83       0.2136
      9  OE1        8.7200    7.0990   -8.1850 O.2    83  GSH83      -0.2758
     10  N2         8.0080    6.8970   -6.0690 N.am   83  GSH83      -0.3032
     11  CA2        9.3240    7.1390   -5.4860 C.3    83  GSH83       0.1091
     12  C2        10.0030    5.7750   -5.4320 C.2    83  GSH83       0.2346
     13  O2         9.3770    4.8290   -4.9530 O.2    83  GSH83      -0.2737
     14  CB2        9.1840    7.7040   -4.0650 C.3    83  GSH83       0.0309
     15  SG2        7.8170    8.8690   -3.7970 S.3    83  GSH83      -0.0907
     16  N3        11.2280    5.6100   -5.9170 N.am   83  GSH83      -0.3031
     17  CA3       11.9020    4.3230   -5.8150 C.3    83  GSH83       0.1133
     18  C3        13.3290    4.4730   -6.2370 C.2    83  GSH83       0.3727
     19  O31       13.6980    3.8700   -7.2630 O.co2  83  GSH83      -0.2446
     20  O32       14.0540    5.2310   -5.5650 O.co2  83  GSH83      -0.2446
     21 HN11        4.5260    3.3290   -9.9220 H      83  GSH83      -0.0889
     22 HN12        6.1570    3.3930  -10.0080 H      83  GSH83      -0.0889
     23  HA1        4.3540    5.6310   -9.4160 H      83  GSH83       0.0198
     24 HB12        6.4840    6.9750   -9.9050 H      83  GSH83       0.0259
     25 HB13        7.3790    5.4790   -9.6700 H      83  GSH83       0.0259
     26 HG12        6.2520    5.3770   -7.3370 H      83  GSH83       0.0358
     27 HG13        5.6980    7.0280   -7.6510 H      83  GSH83       0.0358
     28  HN2        7.2740    6.5930   -5.4440 H      83  GSH83       0.1495
     29  HA2        9.8970    7.8350   -6.1010 H      83  GSH83       0.0603
     30 HB22       10.1210    8.1920   -3.7930 H      83  GSH83       0.0407
     31 HB23        9.0480    6.8680   -3.3770 H      83  GSH83       0.0407
     32  HN3       11.7520    6.3830   -6.3100 H      83  GSH83       0.1493
     33 HA31       11.8700    3.9730   -4.7830 H      83  GSH83       0.0579
     34 HA32       11.4200    3.5880   -6.4520 H      83  GSH83       0.0579
     35 HN13        5.3810    3.6120   -8.5460 H      83  GSH83      -0.0889
@<TRIPOS>BOND
     1     4     3   ar
     2     5     3   ar
     3     3     2    1
     4    22     1    1
     5    21     1    1
     6    24     6    1
     7     2     1    1
     8     2    23    1
     9     2     6    1
    10    25     6    1
    11     1    35    1
    12     6     7    1
    13     9     8    2
    14     7    27    1
    15     7     8    1
    16     7    26    1
    17     8    10   am
    18    19    18   ar
    19    34    17    1
    20    32    16    1
    21    18    17    1
    22    18    20   ar
    23    29    11    1
    24    10    11    1
    25    10    28    1
    26    16    17    1
    27    16    12   am
    28    17    33    1
    29    11    12    1
    30    11    14    1
    31    12    13    2
    32    14    15    1
    33    14    30    1
    34    14    31    1
