@<TRIPOS>MOLECULE
3gry_SAM_A_1.pdb
 27 29 0 0 0
SMALL
GASTEIGER

@<TRIPOS>ATOM
      1  N         16.4880   19.1070   15.3280 N.3   300  SAM300     -0.1208
      2  CA        16.9330   19.3890   13.9300 C.3   300  SAM300      0.1952
      3  C         17.2410   18.0660   13.2090 C.2   300  SAM300      0.3819
      4  O         16.6090   17.7060   12.2110 O.co2 300  SAM300     -0.2441
      5  OXT       18.1060   17.3090   13.6300 O.co2 300  SAM300     -0.2441
      6  CB        18.1180   20.4080   13.9010 C.3   300  SAM300      0.0414
      7  CG        19.4770   19.8960   14.4060 C.3   300  SAM300      0.0503
      8  SD        20.9660   20.5820   13.5650 S.3   300  SAM300     -0.1761
      9  CE        22.2310   19.6580   14.4170 C.3   300  SAM300      0.0590
     10  C5'       21.3430   22.2710   14.1840 C.3   300  SAM300      0.0806
     11  C4'       20.1930   23.3030   13.9920 C.3   300  SAM300      0.1622
     12  O4'       20.2490   24.3700   15.0020 O.3   300  SAM300     -0.3153
     13  C3'       20.2230   24.0020   12.6280 C.3   300  SAM300      0.2168
     14  O3'       18.8750   24.2040   12.1980 O.3   300  SAM300     -0.2175
     15  C2'       20.8780   25.3530   12.9040 C.3   300  SAM300      0.2569
     16  O2'       20.3110   26.3540   12.0490 O.3   300  SAM300     -0.2130
     17  C1'       20.4680   25.6520   14.3470 C.3   300  SAM300      0.3185
     18  N9        21.5050   26.3580   15.1300 N.pl3 300  SAM300     -0.1439
     19  C8        22.8340   26.2680   14.9910 C.3   300  SAM300      0.3377
     20  N7        23.4210   27.0520   15.8940 N.2   300  SAM300     -0.2095
     21  C5        22.4670   27.6420   16.6130 C.2   300  SAM300      0.2526
     22  C6        22.4650   28.5450   17.6730 C.2   300  SAM300      0.4393
     23  N6        23.6000   29.0130   18.1890 N.pl3 300  SAM300      0.2180
     24  N1        21.2870   28.9470   18.1780 N.2   300  SAM300      0.0021
     25  C2        20.1350   28.4990   17.6880 C.3   300  SAM300      0.5254
     26  N3        20.1050   27.6390   16.6800 N.2   300  SAM300     -0.0055
     27  C4        21.2490   27.1960   16.1270 C.2   300  SAM300      0.3518
@<TRIPOS>BOND
     1    16    15    1
     2    14    13    1
     3     4     3   ar
     4    13    15    1
     5    13    11    1
     6    15    17    1
     7     3     5   ar
     8     3     2    1
     9     8    10    1
    10     8     7    1
    11     8     9    1
    12     6     2    1
    13     6     7    1
    14     2     1    1
    15    11    10    1
    16    11    12    1
    17    17    12    1
    18    17    18    1
    19    19    18    1
    20    19    20    1
    21    18    27    1
    22    20    21    2
    23    27    21    1
    24    27    26    2
    25    21    22    1
    26    26    25    1
    27    22    24    2
    28    22    23    1
    29    25    24    1
