@<TRIPOS>MOLECULE
3gs0_6BD_A_1.pdb
 21 23 0 0 0
SMALL
GASTEIGER

@<TRIPOS>ATOM
      1  CAQ       20.8160   42.3030    4.6940 C.ar  128  6BD128      0.0208
      2  CAH       19.6950   41.4720    5.0050 C.ar  128  6BD128      0.0016
      3  CAD       18.9990   40.9710    3.9230 C.ar  128  6BD128      0.0000
      4  CAF       19.4150   41.2890    2.5560 C.ar  128  6BD128      0.0000
      5  CAJ       20.5360   42.1200    2.2450 C.ar  128  6BD128      0.0000
      6  CAS       21.2320   42.6210    3.3260 C.ar  128  6BD128      0.0016
      7  CAT       22.3440   43.4450    3.3250 C.ar  128  6BD128      0.0016
      8  CAK       23.1420   44.0550    2.2310 C.ar  128  6BD128      0.0000
      9  CAG       24.2250   44.8640    2.5360 C.ar  128  6BD128      0.0000
     10  CAE       24.5110   45.0670    3.9030 C.ar  128  6BD128      0.0000
     11  CAI       23.7190   44.4630    4.9860 C.ar  128  6BD128      0.0016
     12  CAR       22.6300   43.6490    4.6930 C.ar  128  6BD128      0.0208
     13  CAP       21.6820   42.9260    5.5190 C.2   128  6BD128      0.1193
     14  NAM       21.5800   42.8300    6.8810 N.2   128  6BD128     -0.0831
     15  OAN       22.3340   43.5600    7.6780 O.2   128  6BD128     -0.3767
     16  CAL       22.5080   42.8990    8.9930 C.3   128  6BD128      0.2496
     17  CAU       22.4430   43.5410   10.3350 C.3   128  6BD128      0.1498
     18  CAA       21.6670   42.6550   11.3920 C.3   128  6BD128      0.0159
     19  CAO       21.8340   44.9170   10.1010 C.2   128  6BD128      0.3681
     20  OAC       22.1670   45.7710   10.9600 O.co2 128  6BD128     -0.2455
     21  OAB       21.0690   45.1080    9.0990 O.co2 128  6BD128     -0.2455
@<TRIPOS>BOND
     1     8     9   ar
     2     8     7   ar
     3     5     4   ar
     4     5     6   ar
     5     9    10   ar
     6     4     3   ar
     7     7     6    1
     8     7    12   ar
     9     6     1   ar
    10    10    11   ar
    11     3     2   ar
    12    12    11   ar
    13    12    13    1
    14     1     2   ar
    15     1    13    1
    16    13    14    2
    17    14    15    1
    18    15    16    1
    19    16    17    1
    20    21    19   ar
    21    19    17    1
    22    19    20   ar
    23    17    18    1
