@<TRIPOS>MOLECULE
3gs4_7BD_A_1.pdb
 20 22 0 0 0
SMALL
GASTEIGER

@<TRIPOS>ATOM
      1  C1        22.7730   43.7020    4.6330 C.ar  501  7BD501      0.0195
      2  C2        21.7180   42.9560    5.6450 C.2   501  7BD501      0.1073
      3  C3        20.8710   42.2590    4.7620 C.2   501  7BD501      0.0162
      4  C4        21.1780   42.4630    3.3930 C.2   501  7BD501     -0.0162
      5  C5        22.3020   43.3180    3.3160 C.ar  501  7BD501     -0.0021
      6  C6        20.3350   41.8510    2.3760 C.3   501  7BD501      0.0524
      7  C10       22.9690   43.8470    2.1970 C.ar  501  7BD501     -0.0003
      8  C11       23.8920   44.6290    4.8000 C.ar  501  7BD501      0.0016
      9  C12       24.5300   45.1260    3.6820 C.ar  501  7BD501      0.0000
     10  C13       24.0770   44.7410    2.4020 C.ar  501  7BD501     -0.0000
     11  C16       21.9140   43.6020    9.1390 C.3   501  7BD501      0.1880
     12  C17       22.8960   44.6940    9.4050 C.3   501  7BD501      0.1489
     13  C18       22.7230   45.2600   10.7460 C.2   501  7BD501      0.3675
     14  C7        19.6670   41.4360    5.0370 C.2   501  7BD501      0.0009
     15  C8        18.9060   40.8750    4.0630 C.2   501  7BD501     -0.0042
     16  C9        19.2140   41.0630    2.7320 C.2   501  7BD501     -0.0214
     17  N14       21.5700   42.7510    7.1020 N.4   501  7BD501     -0.1313
     18  O15       21.5200   43.7320    7.8040 O.3   501  7BD501     -0.2358
     19  O19       22.4190   46.4470   10.9390 O.co2 501  7BD501     -0.2456
     20  O20       22.9490   44.2960   11.6950 O.co2 501  7BD501     -0.2456
@<TRIPOS>BOND
     1     7    10   ar
     2     7     5   ar
     3     6    16    1
     4     6     4    1
     5    10     9   ar
     6    16    15    2
     7     5     4    2
     8     5     1   ar
     9     4     3    1
    10     9     8   ar
    11    15    14    1
    12     1     8   ar
    13     1     2    2
    14     3    14    2
    15     3     2    1
    16     2    17    1
    17    17    18    1
    18    18    11    1
    19    11    12    1
    20    12    13    1
    21    13    19   ar
    22    13    20   ar
