@<TRIPOS>MOLECULE
3gs6_NP6_A_1.pdb
 27 28 0 0 0
SMALL
GASTEIGER

@<TRIPOS>ATOM
      1  C2       -19.5010   -7.6780    3.4400 C.3   341  NP6341      0.0005
      2  C1       -19.4260   -6.7590    4.6550 C.3   341  NP6341      0.0096
      3  C3       -17.9790   -6.6000    5.1100 C.3   341  NP6341      0.0868
      4  C4       -17.5060   -7.9370    5.6470 C.2   341  NP6341      0.2418
      5  O1       -18.2410   -8.6120    6.3500 O.2   341  NP6341     -0.2733
      6  N1       -16.2770   -8.3270    5.3100 N.am  341  NP6341     -0.1948
      7  C5       -15.7340   -9.5900    5.7870 C.3   341  NP6341      0.2066
      8  C6       -14.5870   -9.2670    6.7610 C.3   341  NP6341      0.2150
      9  O2       -15.1110   -8.5930    7.9270 O.3   341  NP6341     -0.2179
     10  C7       -13.8670  -10.5790    7.1200 C.3   341  NP6341      0.2317
     11  O3       -12.9260  -10.4240    8.1970 O.3   341  NP6341     -0.2159
     12  C8       -13.1640  -11.1530    5.8830 C.3   341  NP6341      0.2637
     13  C9       -12.5230  -12.5040    6.1410 C.2   341  NP6341      0.2534
     14  O4       -13.2260  -13.5000    6.3110 O.2   341  NP6341     -0.2842
     15  O5       -14.0550  -11.3110    4.7740 O.2   341  NP6341     -0.4529
     16  C10      -15.2550  -10.4880    4.6720 C.2   341  NP6341      0.2602
     17  N2       -16.0060  -10.6100    3.6510 N.2   341  NP6341     -0.0369
     18  O6       -15.6880  -11.3950    2.7110 O.3   341  NP6341     -0.2944
     19  C11      -16.4370  -11.5020    1.4510 C.2   341  NP6341      0.4504
     20  O7       -17.4930  -10.8880    1.3230 O.2   341  NP6341     -0.2218
     21  N3       -15.9130  -12.2910    0.4990 N.am  341  NP6341     -0.1406
     22  C12      -16.4570  -12.5110   -0.7840 C.ar  341  NP6341      0.0768
     23  C13      -15.8770  -13.4880   -1.6080 C.ar  341  NP6341      0.0167
     24  C14      -16.3760  -13.7280   -2.8900 C.ar  341  NP6341      0.0013
     25  C15      -17.4540  -12.9780   -3.3610 C.ar  341  NP6341      0.0001
     26  C16      -18.0280  -11.9940   -2.5440 C.ar  341  NP6341      0.0013
     27  C17      -17.5330  -11.7540   -1.2600 C.ar  341  NP6341      0.0167
@<TRIPOS>BOND
     1    25    24   ar
     2    25    26   ar
     3    24    23   ar
     4    26    27   ar
     5    23    22   ar
     6    27    22   ar
     7    22    21    1
     8    21    19   am
     9    20    19    2
    10    19    18    1
    11    18    17    1
    12     1     2    1
    13    17    16    2
    14     2     3    1
    15    16    15    1
    16    16     7    1
    17    15    12    1
    18     3     4    1
    19     6     4   am
    20     6     7    1
    21     4     5    2
    22     7     8    1
    23    12    13    1
    24    12    10    1
    25    13    14    2
    26     8    10    1
    27     8     9    1
    28    10    11    1
