@<TRIPOS>MOLECULE
3gs7_8BD_A_1.pdb
 16 16 0 0 0
SMALL
GASTEIGER

@<TRIPOS>ATOM
      1  CAA       20.9850   39.4800    8.3190 C.3   128  8BD128      0.2525
      2  OAL       21.0750   40.3020    9.4670 O.3   128  8BD128     -0.4714
      3  CAP       21.0760   41.6800    9.3190 C.ar  128  8BD128      0.1402
      4  CAH       21.0320   42.5780   10.4310 C.ar  128  8BD128      0.0370
      5  CAF       21.0770   43.9650   10.2400 C.ar  128  8BD128      0.0031
      6  CAE       21.1680   44.4690    8.9520 C.ar  128  8BD128      0.0003
      7  CAG       21.2160   43.5900    7.8480 C.ar  128  8BD128      0.0047
      8  CAO       21.1680   42.1890    8.0230 C.ar  128  8BD128      0.0564
      9  CAD       21.2180   41.2780    6.9380 C.2   128  8BD128      0.1430
     10  NAK       21.3850   41.4700    5.6500 N.2   128  8BD128     -0.0813
     11  OAM       21.5630   42.6700    5.0660 O.2   128  8BD128     -0.3767
     12  CAI       21.7630   42.4320    3.6810 C.3   128  8BD128      0.2503
     13  CAJ       20.4060   42.3800    3.0190 C.3   128  8BD128      0.1642
     14  CAN       20.5630   42.1010    1.5480 C.2   128  8BD128      0.3688
     15  OAC       19.7260   41.3490    0.9690 O.co2 128  8BD128     -0.2455
     16  OAB       21.5180   42.6550    1.0070 O.co2 128  8BD128     -0.2455
@<TRIPOS>BOND
     1    15    14   ar
     2    16    14   ar
     3    14    13    1
     4    13    12    1
     5    12    11    1
     6    11    10    1
     7    10     9    2
     8     9     8    1
     9     7     8   ar
    10     7     6   ar
    11     8     3   ar
    12     1     2    1
    13     6     5   ar
    14     3     2    1
    15     3     4   ar
    16     5     4   ar
