@<TRIPOS>MOLECULE
3gsb_GAB_A_1.pdb
 10 10 0 0 0
SMALL
GASTEIGER

@<TRIPOS>ATOM
      1  C1'        9.9800   26.0350  -31.2640 C.2   500  GAB500      0.3878
      2  O1'        9.5490   27.2060  -31.3040 O.co2 500  GAB500     -0.2406
      3  O2'       10.7910   25.9800  -30.2110 O.co2 500  GAB500     -0.2406
      4  C1         9.6730   24.8850  -32.1070 C.ar  500  GAB500      0.0811
      5  C2         8.6490   25.0210  -33.2260 C.ar  500  GAB500      0.0246
      6  C3         8.6050   23.8830  -34.1700 C.ar  500  GAB500      0.0893
      7  C4         9.3300   22.6770  -33.9140 C.ar  500  GAB500      0.0181
      8  C5        10.0810   22.5640  -32.7770 C.ar  500  GAB500      0.0016
      9  C6        10.2710   23.6860  -31.8670 C.ar  500  GAB500      0.0067
     10  N3         7.8110   23.9800  -35.2310 N.pl3 500  GAB500     -0.1281
@<TRIPOS>BOND
     1    10     6    1
     2     6     7   ar
     3     6     5   ar
     4     7     8   ar
     5     5     4   ar
     6     8     9   ar
     7     4     9   ar
     8     4     1    1
     9     2     1   ar
    10     1     3   ar
