@<TRIPOS>MOLECULE
3gsb_PMP_A_1.pdb
 16 16 0 0 0
SMALL
GASTEIGER

@<TRIPOS>ATOM
      1  N1         4.4540   16.6200  -34.4420 N.ar  600  PMP600     -0.2452
      2  C2         4.4760   17.5980  -35.4470 C.ar  600  PMP600      0.0978
      3  C2A        3.8160   17.3110  -36.8340 C.3   600  PMP600      0.0555
      4  C3         5.1250   18.8150  -35.2220 C.ar  600  PMP600      0.2063
      5  O3         4.8960   19.8210  -36.0680 O.3   600  PMP600     -0.2856
      6  C4         5.8570   19.0100  -34.0470 C.ar  600  PMP600      0.0369
      7  C4A        6.5690   20.3270  -33.8290 C.3   600  PMP600      0.1386
      8  N4A        6.4700   21.4870  -34.6960 N.3   600  PMP600     -0.1261
      9  C5         5.8870   17.9560  -33.1050 C.ar  600  PMP600      0.0275
     10  C6         5.1630   16.8090  -33.2860 C.ar  600  PMP600      0.0965
     11  C5A        6.7730   18.0440  -31.9050 C.3   600  PMP600      0.1816
     12  O4P        5.9620   18.0960  -30.7160 O.3   600  PMP600     -0.2653
     13  P          6.2880   19.1360  -29.5530 P.3   600  PMP600      0.5329
     14  O1P        4.9670   19.5220  -29.0110 O.3   600  PMP600     -0.1145
     15  O2P        7.0900   18.2980  -28.4410 O.3   600  PMP600     -0.1145
     16  O3P        7.2930   20.0890  -30.0840 O.2   600  PMP600     -0.2224
@<TRIPOS>BOND
     1     3     2    1
     2     5     4    1
     3     2     4   ar
     4     2     1   ar
     5     4     6   ar
     6     8     7    1
     7     1    10   ar
     8     6     7    1
     9     6     9   ar
    10    10     9   ar
    11     9    11    1
    12    11    12    1
    13    12    13    1
    14    16    13    2
    15    13    14    1
    16    13    15    1
