@<TRIPOS>MOLECULE
3gsg_GF1_A_1.pdb
 17 19 0 0 0
SMALL
GASTEIGER

@<TRIPOS>ATOM
      1  O10      -37.2770    6.1430   15.9900 O.2   366  GF1366     -0.2745
      2  C7       -36.3210    5.8560   15.2920 C.2   366  GF1366      0.2317
      3  N8       -35.0090    5.8450   15.6430 N.am  366  GF1366     -0.2207
      4  C12      -34.2350    5.2290   16.7580 C.3   366  GF1366      0.1852
      5  C14      -34.4000    5.4670   18.2430 C.2   366  GF1366      0.3829
      6  O16      -33.3780    5.5760   18.9750 O.co2 366  GF1366     -0.2438
      7  O15      -35.5320    5.4500   18.7300 O.co2 366  GF1366     -0.2438
      8  C13      -34.3730    3.7320   16.6000 C.3   366  GF1366      0.0342
      9  C2       -36.4310    5.4170   13.8310 C.3   366  GF1366      0.0857
     10  C3       -35.0410    5.7500   13.4180 C.3   366  GF1366      0.0857
     11  C9       -34.3160    6.2860   14.6160 C.2   366  GF1366      0.2317
     12  O11      -33.2810    6.9480   14.6100 O.2   366  GF1366     -0.2745
     13  C1       -37.1510    6.0870   12.6390 C.3   366  GF1366      0.0091
     14  C6       -36.7240    5.2720   11.3820 C.3   366  GF1366      0.0005
     15  C5       -35.1820    5.5380   11.1370 C.3   366  GF1366      0.0005
     16  C17      -36.3300    7.3240   12.2990 C.3   366  GF1366      0.0010
     17  C4       -34.9810    6.6250   12.1960 C.3   366  GF1366      0.0091
@<TRIPOS>BOND
     1    15    14    1
     2    15    17    1
     3    14    13    1
     4    17    16    1
     5    17    10    1
     6    16    13    1
     7    13     9    1
     8    10     9    1
     9    10    11    1
    10     9     2    1
    11    12    11    2
    12    11     3   am
    13     2     3   am
    14     2     1    2
    15     3     4    1
    16     8     4    1
    17     4     5    1
    18     5     7   ar
    19     5     6   ar
