@<TRIPOS>MOLECULE
3gsh_ASY_A_1.pdb
 21 20 0 0 0
SMALL
GASTEIGER

@<TRIPOS>ATOM
      1  C9         9.5690    2.2370   25.4710 C.3   302  ASY302      0.0691
      2  C8        11.0590    2.2380   25.0400 C.3   302  ASY302      0.0081
      3  C7        12.0750    3.1460   25.7680 C.3   302  ASY302      0.0005
      4  C6        13.4340    3.2880   25.0220 C.3   302  ASY302      0.0000
      5  C5        14.4410    4.2960   25.6040 C.3   302  ASY302      0.0000
      6  C4        14.0850    5.7320   25.2470 C.3   302  ASY302      0.0006
      7  C3        15.0700    6.8060   25.7490 C.3   302  ASY302      0.0118
      8  C2        14.8410    8.0910   24.9450 C.3   302  ASY302      0.1141
      9  C1        15.9520    9.1380   24.9760 C.2   302  ASY302      0.3649
     10  O2        15.8280   10.1730   24.3310 O.co2 302  ASY302     -0.2457
     11  O1        17.0200    9.0280   25.5680 O.co2 302  ASY302     -0.2457
     12  C10        8.7020    1.3510   24.5410 C.2   302  ASY302      0.1728
     13  O10        8.6880    0.1440   24.7640 O.2   302  ASY302     -0.2913
     14  C11        7.8680    1.8920   23.3580 C.2   302  ASY302      0.0329
     15  C12        7.7020    0.9200   22.1560 C.2   302  ASY302     -0.0232
     16  C13        7.3010    1.2960   20.8510 C.3   302  ASY302      0.0261
     17  C14        7.8810    2.4800   20.0660 C.3   302  ASY302      0.0047
     18  C15        7.5670    2.4260   18.5810 C.3   302  ASY302      0.0003
     19  C16        7.7020    3.7800   17.8910 C.3   302  ASY302      0.0000
     20  C17        9.1470    4.2250   17.6760 C.3   302  ASY302      0.0000
     21  C18        9.8630    3.2860   16.7400 C.3   302  ASY302      0.0000
@<TRIPOS>BOND
     1    21    20    1
     2    20    19    1
     3    19    18    1
     4    18    17    1
     5    17    16    1
     6    16    15    1
     7    15    14    2
     8    14    12    1
     9    10     9   ar
    10    12    13    2
    11    12     1    1
    12     8     9    1
    13     8     7    1
    14     9    11   ar
    15     4     5    1
    16     4     3    1
    17     2     1    1
    18     2     3    1
    19     6     5    1
    20     6     7    1
