@<TRIPOS>MOLECULE
3gsi_THG_A_1.pdb
 32 34 0 0 0
SMALL
GASTEIGER

@<TRIPOS>ATOM
      1  N3        48.2030   87.6860   46.0080 N.2   2887  THG2887    -0.2474
      2  C2        47.7820   86.2920   46.6100 C.1   2887  THG2887     0.2608
      3  N1        46.9810   85.4030   45.8260 N.2   2887  THG2887    -0.2683
      4  C8A       46.5520   85.7580   44.5900 C.1   2887  THG2887     0.1270
      5  C4A       47.0040   87.1980   43.9430 C.2   2887  THG2887     0.2463
      6  C4        47.7970   88.0470   44.7310 C.1   2887  THG2887     0.2441
      7  N8        45.6910   84.8680   43.6680 N.2   2887  THG2887    -0.2054
      8  C7        44.9250   85.5970   42.6540 C.3   2887  THG2887     0.1634
      9  C6        45.9070   86.3850   41.8780 C.3   2887  THG2887     0.1514
     10  N5        46.5100   87.4720   42.6150 N.2   2887  THG2887    -0.2469
     11  C9        46.8280   85.4110   41.0980 C.3   2887  THG2887     0.1385
     12  N10       48.1320   85.9120   40.6970 N.pl3 2887  THG2887    -0.2355
     13  C4'       49.5730   86.0160   40.7850 C.ar  2887  THG2887     0.0654
     14  C3'       50.3770   86.0580   39.5760 C.ar  2887  THG2887     0.0162
     15  C2'       51.8260   86.0880   39.7500 C.ar  2887  THG2887     0.0059
     16  C1'       52.3900   86.0550   41.1180 C.ar  2887  THG2887     0.0551
     17  C6'       51.5530   85.9840   42.3390 C.ar  2887  THG2887     0.0059
     18  C5'       50.1490   85.9590   42.1750 C.ar  2887  THG2887     0.0162
     19  C11       53.9210   86.0410   41.2620 C.2   2887  THG2887     0.2650
     20  N         54.6680   85.4260   40.1570 N.am  2887  THG2887    -0.1953
     21  CA        56.1660   85.4460   40.1760 C.3   2887  THG2887     0.1875
     22  C         56.7060   85.0950   38.7780 C.3   2887  THG2887     0.4452
     23  OX2       55.6890   84.9370   37.8090 O.2   2887  THG2887    -0.2650
     24  OX1       57.8100   85.8770   38.4190 O.2   2887  THG2887    -0.2650
     25  CB        56.6410   84.3490   41.1640 C.3   2887  THG2887     0.0379
     26  CG        56.0100   82.9720   40.8080 C.3   2887  THG2887     0.1019
     27  CD        56.5630   81.7380   41.5840 C.3   2887  THG2887     0.4260
     28  OE1       57.9640   81.6330   41.5480 O.2   2887  THG2887    -0.2671
     29  OE2       55.8450   80.5650   41.2730 O.2   2887  THG2887    -0.2671
     30  O11       54.4540   86.4520   42.2450 O.2   2887  THG2887    -0.2684
     31  O4        48.2570   89.2760   44.2230 O.2   2887  THG2887    -0.2063
     32  N2        48.1930   85.9150   47.9610 N.pl3 2887  THG2887    -0.0220
@<TRIPOS>BOND
     1    23    22    1
     2    24    22    1
     3    22    21    1
     4    14    15   ar
     5    14    13   ar
     6    15    16   ar
     7    20    21    1
     8    20    19   am
     9    21    25    1
    10    12    13    1
    11    12    11    1
    12    13    18   ar
    13    26    25    1
    14    26    27    1
    15    11     9    1
    16    16    19    1
    17    16    17   ar
    18    19    30    2
    19    29    27    1
    20    28    27    1
    21     9    10    1
    22     9     8    1
    23    18    17   ar
    24    10     5    2
    25     8     7    1
    26     7     4    2
    27     5     4    1
    28     5     6    1
    29    31     6    2
    30     4     3    2
    31     6     1    2
    32     3     2    2
    33     1     2    2
    34     2    32    1
