@<TRIPOS>MOLECULE
3gsm_VPU_A_1.pdb
 18 18 0 0 0
SMALL
GASTEIGER

@<TRIPOS>ATOM
      1  C3        -8.5710   18.5930   12.4530 C.3   341  VPU341      0.0000
      2  C2        -7.6540   18.6200   13.6880 C.3   341  VPU341      0.0005
      3  C1        -7.5180   17.2550   14.3460 C.3   341  VPU341      0.0096
      4  CAH       -6.0530   16.8850   14.6050 C.3   341  VPU341      0.0868
      5  CAG       -5.4560   16.2260   13.3740 C.2   341  VPU341      0.2418
      6  OAN       -6.1130   15.3870   12.7680 O.2   341  VPU341     -0.2733
      7  NAI       -4.2150   16.6040   13.0080 N.am  341  VPU341     -0.1949
      8  CAB       -3.5330   16.0500   11.8250 C.3   341  VPU341      0.2050
      9  CAC       -2.5770   14.9180   12.2400 C.3   341  VPU341      0.2150
     10  OAJ       -3.2280   13.8420   12.9460 O.3   341  VPU341     -0.2179
     11  CAD       -1.9310   14.3950   10.9520 C.3   341  VPU341      0.2317
     12  OAK       -1.2360   13.1580   11.1950 O.3   341  VPU341     -0.2159
     13  CAE       -0.9710   15.4280   10.3410 C.3   341  VPU341      0.2637
     14  CAF       -0.5890   15.0110    8.9300 C.2   341  VPU341      0.2534
     15  OAM       -1.2620   15.3700    7.9730 O.2   341  VPU341     -0.2842
     16  OAL       -1.5070   16.7660   10.3000 O.2   341  VPU341     -0.4539
     17  CAA       -2.7410   17.0770   11.0320 C.2   341  VPU341      0.2427
     18  NAY       -3.1920   18.2580   10.9740 N.2   341  VPU341     -0.1102
@<TRIPOS>BOND
     1    15    14    2
     2    14    13    1
     3    16    13    1
     4    16    17    1
     5    13    11    1
     6    11    12    1
     7    11     9    1
     8    18    17    2
     9    17     8    1
    10     8     9    1
    11     8     7    1
    12     9    10    1
    13     1     2    1
    14     6     5    2
    15     7     5   am
    16     5     4    1
    17     2     3    1
    18     3     4    1
