@<TRIPOS>MOLECULE
3gsp_SGP_A_1.pdb
 23 26 0 0 0
SMALL
GASTEIGER

@<TRIPOS>ATOM
      1  P         20.8150   37.5660   19.4370 P.3   105  SGP105      0.4036
      2  S1P       21.2320   39.3130   19.9390 S.3   105  SGP105      0.0393
      3  O1P       21.0020   37.5570   17.9760 O.2   105  SGP105     -0.2449
      4  O5'       19.5030   36.2570   23.7010 O.3   105  SGP105     -0.2176
      5  C5'       20.8090   35.6400   23.6460 C.3   105  SGP105      0.2141
      6  C4'       21.1900   35.0790   22.2530 C.3   105  SGP105      0.1800
      7  O4'       20.4140   33.9240   21.8280 O.3   105  SGP105     -0.3327
      8  C3'       20.9090   36.1970   21.2800 C.3   105  SGP105      0.1860
      9  O3'       21.6330   36.3250   20.0280 O.3   105  SGP105     -0.2835
     10  C2'       19.5320   35.8500   20.7800 C.3   105  SGP105      0.2011
     11  O2'       19.4330   36.6870   19.5770 O.3   105  SGP105     -0.2818
     12  C1'       19.6100   34.2770   20.6820 C.3   105  SGP105      0.2264
     13  N9        18.2690   33.5830   20.8040 N.pl3 105  SGP105     -0.2354
     14  C8        17.8350   32.4020   20.2220 C.3   105  SGP105      0.2246
     15  N7        16.5600   32.1450   20.4060 N.2   105  SGP105     -0.2322
     16  C5        16.1110   33.2210   21.1650 C.2   105  SGP105      0.2182
     17  C6        14.8190   33.5270   21.6690 C.1   105  SGP105      0.2372
     18  O6        13.8040   32.8790   21.4680 O.2   105  SGP105     -0.2069
     19  N1        14.7800   34.7080   22.3990 N.2   105  SGP105     -0.2485
     20  C2        15.8700   35.5170   22.6200 C.1   105  SGP105      0.2531
     21  N2        15.7160   36.6130   23.3580 N.pl3 105  SGP105     -0.0226
     22  N3        17.0740   35.2390   22.1400 N.2   105  SGP105     -0.3074
     23  C4        17.1370   34.0890   21.4230 C.2   105  SGP105      0.2300
@<TRIPOS>BOND
     1     3     1    2
     2     1    11    1
     3     1     2    1
     4     1     9    1
     5    11    10    1
     6     9     8    1
     7    14    15    1
     8    14    13    1
     9    15    16    2
    10    12    10    1
    11    12    13    1
    12    12     7    1
    13    10     8    1
    14    13    23    1
    15    16    23    1
    16    16    17    1
    17     8     6    1
    18    23    22    2
    19    18    17    2
    20    17    19    2
    21     7     6    1
    22    22    20    2
    23     6     5    1
    24    19    20    2
    25    20    21    1
    26     5     4    1
