@<TRIPOS>MOLECULE
3gsp_3GP_A_1.pdb
 24 26 0 0 0
SMALL
GASTEIGER

@<TRIPOS>ATOM
      1  P         23.6700   35.3510   19.9620 P.3   106  3GP106      0.5327
      2  O1P       24.5370   34.1630   19.7480 O.3   106  3GP106     -0.1145
      3  O2P       24.1160   36.2720   21.0400 O.3   106  3GP106     -0.1145
      4  O3P       23.2490   36.0260   18.7160 O.2   106  3GP106     -0.2224
      5  O5'       20.2690   37.8380   22.5540 O.3   106  3GP106     -0.2176
      6  C5'       19.8150   36.5170   22.8620 C.3   106  3GP106      0.2141
      7  C4'       20.7700   35.3780   22.4050 C.3   106  3GP106      0.1802
      8  O4'       20.0680   34.1090   22.4950 O.3   106  3GP106     -0.3326
      9  C3'       21.1640   35.5240   20.9240 C.3   106  3GP106      0.1903
     10  O3'       22.3140   34.6990   20.5670 O.3   106  3GP106     -0.2674
     11  C2'       19.9190   34.9450   20.3160 C.3   106  3GP106      0.2283
     12  O2'       20.1850   34.6060   18.9730 O.3   106  3GP106     -0.2159
     13  C1'       19.6880   33.7100   21.1640 C.3   106  3GP106      0.2292
     14  N9        18.2570   33.2760   21.0550 N.pl3 106  3GP106     -0.2354
     15  C8        17.7560   32.1600   20.4190 C.3   106  3GP106      0.2246
     16  N7        16.4530   32.0520   20.4660 N.2   106  3GP106     -0.2322
     17  C5        16.0560   33.1740   21.1810 C.2   106  3GP106      0.2182
     18  C6        14.7630   33.6150   21.5620 C.1   106  3GP106      0.2372
     19  O6        13.7100   33.0740   21.2720 O.2   106  3GP106     -0.2069
     20  N1        14.7760   34.7910   22.2920 N.2   106  3GP106     -0.2485
     21  C2        15.9170   35.4840   22.6220 C.1   106  3GP106      0.2531
     22  N2        15.7760   36.5870   23.3570 N.pl3 106  3GP106     -0.0226
     23  N3        17.1400   35.0780   22.2600 N.2   106  3GP106     -0.3074
     24  C4        17.1410   33.9250   21.5490 C.2   106  3GP106      0.2300
@<TRIPOS>BOND
     1     4     1    2
     2    12    11    1
     3     2     1    1
     4     1    10    1
     5     1     3    1
     6    11     9    1
     7    11    13    1
     8    15    16    1
     9    15    14    1
    10    16    17    2
    11    10     9    1
    12     9     7    1
    13    14    13    1
    14    14    24    1
    15    13     8    1
    16    17    24    1
    17    17    18    1
    18    19    18    2
    19    24    23    2
    20    18    20    2
    21    23    21    2
    22    20    21    2
    23     7     8    1
    24     7     6    1
    25     5     6    1
    26    21    22    1
