@<TRIPOS>MOLECULE
3gss_EAA_A_1.pdb
 19 19 0 0 0
SMALL
GASTEIGER

@<TRIPOS>ATOM
      1  C1         3.8860    5.0690   25.4440 C.ar  212  EAA212      0.1506
      2  O2         2.6310    5.5870   25.1570 O.3   212  EAA212     -0.4628
      3  C2         4.9500    5.4220   24.5780 C.ar  212  EAA212      0.1021
      4 CL1         4.6470    6.5010   23.2010 Cl    212  EAA212     -0.0782
      5  C3         6.2520    4.9130   24.8010 C.ar  212  EAA212      0.0739
      6 CL2         7.5490    5.4180   23.6940 Cl    212  EAA212     -0.0812
      7  C4         6.4940    4.0200   25.8960 C.ar  212  EAA212      0.0463
      8  C5         5.4100    3.6880   26.7440 C.ar  212  EAA212      0.0069
      9  C6         4.1360    4.1990   26.5170 C.ar  212  EAA212      0.0379
     10  C7         7.8590    3.3760   26.1530 C.2   212  EAA212      0.1735
     11  O1         8.6650    3.1560   25.2470 O.2   212  EAA212     -0.2913
     12  C8         8.3570    2.9460   27.5890 C.3   212  EAA212      0.0620
     13  C9         7.8640    1.5480   28.0140 C.3   212  EAA212      0.0077
     14  C10        8.3880    0.9600   29.3190 C.3   212  EAA212      0.0005
     15  C11        9.8630    3.1710   27.8400 C.3   212  EAA212      0.0081
     16  C12        1.5370    4.8070   24.5820 C.3   212  EAA212      0.3186
     17  C13        0.7460    5.5470   23.5080 C.2   212  EAA212      0.4084
     18  O         -0.4730    5.2960   23.3800 O.co2 212  EAA212     -0.2415
     19  OXT        1.3270    6.4210   22.8180 O.co2 212  EAA212     -0.2415
@<TRIPOS>BOND
     1    19    17   ar
     2     4     3    1
     3    18    17   ar
     4    17    16    1
     5     6     5    1
     6     3     5   ar
     7     3     1   ar
     8    16     2    1
     9     5     7   ar
    10     2     1    1
    11    11    10    2
    12     1     9   ar
    13     7    10    1
    14     7     8   ar
    15    10    12    1
    16     9     8   ar
    17    12    15    1
    18    12    13    1
    19    13    14    1
