@<TRIPOS>MOLECULE
3gss_GSH_A_1.pdb
 20 19 0 0 0
SMALL
GASTEIGER

@<TRIPOS>ATOM
      1  N1        14.7060   10.8820   23.3290 N.3   211  GSH211     -0.1208
      2  CA1       14.5890   10.0180   24.5180 C.3   211  GSH211      0.1948
      3  C1        15.6900    8.9740   24.4280 C.2   211  GSH211      0.3819
      4  O11       16.1050    8.4440   25.4750 O.co2 211  GSH211     -0.2441
      5  O12       16.1610    8.7210   23.2970 O.co2 211  GSH211     -0.2441
      6  CB1       13.2180    9.3520   24.5340 C.3   211  GSH211      0.0402
      7  CG1       12.9620    8.5240   25.7690 C.3   211  GSH211      0.0889
      8  CD1       11.5130    8.1270   25.9040 C.2   211  GSH211      0.2418
      9  OE1       10.7590    8.1250   24.9380 O.2   211  GSH211     -0.2733
     10  N2        11.1200    7.7560   27.1100 N.am  211  GSH211     -0.1968
     11  CA2        9.7400    7.3830   27.3600 C.3   211  GSH211      0.1843
     12  C2         9.3730    7.7640   28.7820 C.2   211  GSH211      0.2627
     13  O2        10.2510    7.9770   29.6200 O.2   211  GSH211     -0.2714
     14  CB2        9.5250    5.8930   27.1140 C.3   211  GSH211      0.0997
     15  SG2       10.2670    4.8490   28.3470 S.3   211  GSH211     -0.0797
     16  N3         8.0740    7.8490   29.0420 N.am  211  GSH211     -0.1917
     17  CA3        7.6000    8.2300   30.3560 C.3   211  GSH211      0.2285
     18  C3         6.9270    9.5890   30.2680 C.2   211  GSH211      0.3865
     19  O31        6.1760    9.9410   31.1900 O.co2 211  GSH211     -0.2437
     20  O32        7.1240   10.3010   29.2620 O.co2 211  GSH211     -0.2437
@<TRIPOS>BOND
     1     5     3   ar
     2     1     2    1
     3     3     2    1
     4     3     4   ar
     5     2     6    1
     6     6     7    1
     7     9     8    2
     8     7     8    1
     9     8    10   am
    10    10    11    1
    11    14    11    1
    12    14    15    1
    13    11    12    1
    14    12    16   am
    15    12    13    2
    16    16    17    1
    17    20    18   ar
    18    18    17    1
    19    18    19   ar
