@<TRIPOS>MOLECULE
3gst_GPR_A_1.pdb
 35 37 0 0 0
SMALL
GASTEIGER

@<TRIPOS>ATOM
      1  N1        14.5620   14.7450   25.0920 N.3   223  GPR223     -0.1208
      2  CA1       14.1510   15.3770   26.3990 C.3   223  GPR223      0.1948
      3  C1        13.1440   16.5080   26.1890 C.2   223  GPR223      0.3819
      4  O11       13.1400   17.0330   24.9680 O.co2 223  GPR223     -0.2441
      5  O12       12.4380   16.8980   27.1110 O.co2 223  GPR223     -0.2441
      6  CB1       15.3740   16.0750   27.1080 C.3   223  GPR223      0.0402
      7  CG1       15.7930   15.1850   28.2290 C.3   223  GPR223      0.0889
      8  CD1       16.7670   15.6900   29.2190 C.2   223  GPR223      0.2418
      9  OE1       17.9750   15.5180   28.9210 O.2   223  GPR223     -0.2733
     10  N2        16.2950   16.2790   30.3300 N.am  223  GPR223     -0.1969
     11  CA2       17.2090   16.9690   31.2690 C.3   223  GPR223      0.1834
     12  C2        16.9640   16.3990   32.6940 C.2   223  GPR223      0.2626
     13  O2        17.5550   16.9260   33.6090 O.2   223  GPR223     -0.2714
     14  CB2       17.0910   18.5080   31.2710 C.3   223  GPR223      0.0890
     15  SG2       17.3250   19.1560   29.6490 S.3   223  GPR223     -0.1314
     16  N3        16.2670   15.3090   32.7800 N.am  223  GPR223     -0.1917
     17  CA3       15.8910   14.8170   34.1340 C.3   223  GPR223      0.2285
     18  C3        16.6510   13.5810   34.4670 C.2   223  GPR223      0.3865
     19  O31       17.5230   13.0370   33.7730 O.co2 223  GPR223     -0.2437
     20  O32       16.4220   12.9510   35.6130 O.co2 223  GPR223     -0.2437
     21  CA4       19.0120   19.0640   29.8780 C.3   223  GPR223      0.1044
     22  CB4       19.4670   20.4270   30.3270 C.ar  223  GPR223     -0.0097
     23  CG4       19.6360   20.6660   31.7170 C.ar  223  GPR223     -0.0034
     24  CD4       20.0880   21.8980   32.1800 C.ar  223  GPR223     -0.0003
     25  CE4       20.3590   22.9100   31.2340 C.ar  223  GPR223     -0.0000
     26  CZ4       20.2180   22.6990   29.8620 C.ar  223  GPR223     -0.0003
     27  CH4       19.7920   21.4440   29.3930 C.ar  223  GPR223     -0.0033
     28  CH5       19.5880   21.1600   27.9290 C.ar  223  GPR223     -0.0018
     29  CZ5       19.5340   22.2300   26.9870 C.ar  223  GPR223     -0.0002
     30  CE5       19.3350   21.9120   25.6510 C.ar  223  GPR223     -0.0000
     31  CD5       19.1970   20.5950   25.2170 C.ar  223  GPR223     -0.0002
     32  CG5       19.3050   19.5510   26.1400 C.ar  223  GPR223     -0.0018
     33  CB5       19.5000   19.8500   27.4870 C.ar  223  GPR223      0.0089
     34  CA5       19.5280   18.6830   28.4710 C.3   223  GPR223      0.1881
     35  O5        20.9200   18.3460   28.6100 O.3   223  GPR223     -0.2170
@<TRIPOS>BOND
     1     4     3   ar
     2     1     2    1
     3    31    30   ar
     4    31    32   ar
     5    30    29   ar
     6    32    33   ar
     7     3     2    1
     8     3     5   ar
     9     2     6    1
    10    29    28   ar
    11     6     7    1
    12    33    28   ar
    13    33    34    1
    14    28    27    1
    15     7     8    1
    16    34    35    1
    17    34    21    1
    18     9     8    2
    19     8    10   am
    20    27    26   ar
    21    27    22   ar
    22    15    21    1
    23    15    14    1
    24    26    25   ar
    25    21    22    1
    26    22    23   ar
    27    10    11    1
    28    25    24   ar
    29    11    14    1
    30    11    12    1
    31    23    24   ar
    32    12    16   am
    33    12    13    2
    34    16    17    1
    35    19    18   ar
    36    17    18    1
    37    18    20   ar
