@<TRIPOS>MOLECULE
3gsy_DEH_A_1.pdb
 24 27 0 0 0
SMALL
GASTEIGER

@<TRIPOS>ATOM
      1  C2       -28.6790   -8.9820  -10.4420 C.ar    2  DEH2        0.0426
      2  C3       -28.5170   -9.9940  -11.3790 C.ar    2  DEH2        0.2290
      3  C5       -28.9630   -9.8130  -12.6480 C.ar    2  DEH2        0.1770
      4  C8       -29.5960   -8.5710  -13.0160 C.ar    2  DEH2        0.0358
      5  C9       -29.7460   -7.5670  -12.0580 C.ar    2  DEH2       -0.0193
      6  C10      -30.4090   -6.2490  -12.4050 C.3     2  DEH2        0.0476
      7  C11      -29.7580   -5.0130  -11.6250 C.3     2  DEH2        0.0960
      8  N12      -29.5500   -5.3770  -10.1900 N.pl3   2  DEH2       -0.3004
      9  C14      -29.4570   -6.7440   -9.8070 C.3     2  DEH2        0.1177
     10  C16      -29.2660   -7.0860   -8.4630 C.2     2  DEH2       -0.0021
     11  C17      -29.1550   -6.1170   -7.5300 C.ar    2  DEH2        0.0022
     12  C25      -28.9520   -6.4700   -6.1820 C.ar    2  DEH2        0.0031
     13  C24      -28.8380   -5.4830   -5.2500 C.ar    2  DEH2        0.0402
     14  C21      -28.9200   -4.1400   -5.6350 C.ar    2  DEH2        0.1774
     15  O22      -28.8080   -3.1650   -4.7160 O.3     2  DEH2       -0.4682
     16  C23      -28.5620   -3.5150   -3.3470 C.3     2  DEH2        0.2526
     17  C19      -29.1190   -3.8030   -6.9800 C.ar    2  DEH2        0.2304
     18  O20      -29.1940   -2.4760   -7.3560 O.3     2  DEH2       -0.2833
     19  C18      -29.2340   -4.7760   -7.9020 C.ar    2  DEH2        0.0563
     20  C1       -29.2920   -7.7670  -10.7950 C.ar    2  DEH2       -0.0007
     21  C13      -29.4350   -4.4170   -9.2840 C.2     2  DEH2        0.0650
     22  O6       -28.8020  -10.7940  -13.5430 O.3     2  DEH2       -0.4682
     23  C7       -29.6440  -10.8580  -14.6960 C.3     2  DEH2        0.2526
     24  O4       -27.9110  -11.1910  -11.0310 O.3     2  DEH2       -0.2833
@<TRIPOS>BOND
     1    23    22    1
     2    22     3    1
     3     4     3   ar
     4     4     5   ar
     5     3     2   ar
     6     6     5    1
     7     6     7    1
     8     5    20   ar
     9     7     8    1
    10     2    24    1
    11     2     1   ar
    12    20     1   ar
    13    20     9    1
    14     8     9    1
    15     8    21    1
    16     9    10    1
    17    21    19    2
    18    10    11    2
    19    19    11   ar
    20    19    17   ar
    21    11    12   ar
    22    18    17    1
    23    17    14   ar
    24    12    13   ar
    25    14    13   ar
    26    14    15    1
    27    15    16    1
