@<TRIPOS>MOLECULE
3gt3_BRV_A_1.pdb
 16 16 0 0 0
SMALL
GASTEIGER

@<TRIPOS>ATOM
      1  C10       21.7650   35.9170   10.2730 C.2   301  BRV301      0.3888
      2  C7        18.6250   38.6470   13.0780 C.2   301  BRV301      0.3888
      3  C5        21.6830   39.6590   11.0260 C.ar  301  BRV301      0.1018
      4  C4        22.0620   38.3950   10.5590 C.ar  301  BRV301      0.0586
      5  C3        21.3490   37.2500   10.8250 C.ar  301  BRV301      0.0937
      6  C2        20.2020   37.3130   11.6200 C.ar  301  BRV301      0.0483
      7  N13       22.3970   40.7790   10.7780 N.pl3 301  BRV301     -0.1270
      8 BR1        19.2360   35.7160   11.9660 Br    301  BRV301     -0.0485
      9 BR2        23.6550   38.2990    9.5220 Br    301  BRV301     -0.0474
     10 BR3        19.9120   41.4030   12.3330 Br    301  BRV301     -0.0474
     11  C1        19.7940   38.5450   12.1270 C.ar  301  BRV301      0.0937
     12  C6        20.5090   39.6840   11.7980 C.ar  301  BRV301      0.0586
     13  O8        18.7620   37.9160   14.0870 O.co2 301  BRV301     -0.2405
     14  O9        17.6390   39.3770   12.8800 O.co2 301  BRV301     -0.2405
     15  O11       22.6080   35.2270   10.8860 O.co2 301  BRV301     -0.2405
     16  O12       21.2030   35.6030    9.2010 O.co2 301  BRV301     -0.2405
@<TRIPOS>BOND
     1    16     1   ar
     2     9     4    1
     3     1     5    1
     4     1    15   ar
     5     4     5   ar
     6     4     3   ar
     7     7     3    1
     8     5     6   ar
     9     3    12   ar
    10     6     8    1
    11     6    11   ar
    12    12    11   ar
    13    12    10    1
    14    11     2    1
    15    14     2   ar
    16     2    13   ar
