@<TRIPOS>MOLECULE
3gt4_I3C_A_1.pdb
 16 16 0 0 0
SMALL
GASTEIGER

@<TRIPOS>ATOM
      1  I3        -1.9790   30.7300   20.9850 I     301  I3C301     -0.0409
      2  I2        -5.3670   35.4650   19.1750 I     301  I3C301     -0.0409
      3  I1        -6.8840   32.4740   24.1280 I     301  I3C301     -0.0421
      4  O8        -4.6240   29.7590   23.0710 O.co2 301  I3C301     -0.2405
      5  O9        -3.2890   31.0450   24.2880 O.co2 301  I3C301     -0.2405
      6  C10       -6.9730   34.7240   21.8260 C.2   301  I3C301      0.3886
      7  N13       -2.9860   33.3140   19.2500 N.pl3 301  I3C301     -0.1272
      8  C1        -4.4250   31.9300   22.3760 C.ar  301  I3C301      0.0920
      9  C6        -3.5820   32.0820   21.2710 C.ar  301  I3C301      0.0540
     10  C5        -3.8240   33.1040   20.3490 C.ar  301  I3C301      0.1002
     11  C4        -4.9500   33.9410   20.5700 C.ar  301  I3C301      0.0540
     12  C3        -5.7970   33.7910   21.6580 C.ar  301  I3C301      0.0920
     13  C2        -5.5310   32.7560   22.5590 C.ar  301  I3C301      0.0437
     14  C7        -4.0670   30.8340   23.3420 C.2   301  I3C301      0.3886
     15  O11       -6.9160   35.5750   22.7320 O.co2 301  I3C301     -0.2405
     16  O12       -7.9470   34.5980   21.0400 O.co2 301  I3C301     -0.2405
@<TRIPOS>BOND
     1     2    11    1
     2     7    10    1
     3    10    11   ar
     4    10     9   ar
     5    11    12   ar
     6     1     9    1
     7    16     6   ar
     8     9     8   ar
     9    12     6    1
    10    12    13   ar
    11     6    15   ar
    12     8    13   ar
    13     8    14    1
    14    13     3    1
    15     4    14   ar
    16    14     5   ar
