@<TRIPOS>MOLECULE
3gt8_ANP_A_1.pdb
 31 33 0 0 0
SMALL
GASTEIGER

@<TRIPOS>ATOM
      1  PG        32.6080  -26.1820   25.2140 P.3     2  ANP2        0.4884
      2  O1G       32.8580  -27.3300   26.1220 O.3     2  ANP2       -0.1240
      3  O2G       32.9700  -24.7680   25.9140 O.3     2  ANP2       -0.1240
      4  O3G       31.0460  -26.0630   24.8060 O.2     2  ANP2       -0.2331
      5  PB        33.4080  -27.7650   23.2390 P.3     2  ANP2        0.4669
      6  O1B       34.7610  -28.3730   23.1770 O.2     2  ANP2       -0.2351
      7  O2B       32.4270  -28.5780   24.2390 O.3     2  ANP2       -0.1253
      8  N3B       33.4500  -26.2480   23.8290 N.3     2  ANP2       -0.0163
      9  PA        31.1520  -28.2530   21.6610 P.3     2  ANP2        0.2220
     10  O1A       30.4660  -28.3640   22.9730 O.3     2  ANP2       -0.4370
     11  O2A       30.4090  -27.2020   20.6780 O.2     2  ANP2       -0.5170
     12  O3A       32.6620  -27.6900   21.8150 O.3     2  ANP2       -0.2360
     13  O5'       31.2540  -29.6460   20.8610 O.3     2  ANP2       -0.3111
     14  C5'       32.5030  -30.3380   20.7860 C.3     2  ANP2        0.1813
     15  C4'       32.9190  -30.5640   19.3310 C.3     2  ANP2        0.1821
     16  O4'       32.0440  -29.8280   18.4630 O.3     2  ANP2       -0.3135
     17  C3'       34.2940  -29.9380   19.0890 C.3     2  ANP2        0.2184
     18  O3'       35.2950  -30.9580   19.1260 O.3     2  ANP2       -0.2174
     19  C2'       34.1950  -29.3700   17.6730 C.3     2  ANP2        0.2570
     20  O2'       35.1400  -30.0290   16.8270 O.3     2  ANP2       -0.2130
     21  C1'       32.7750  -29.7310   17.2310 C.3     2  ANP2        0.3186
     22  N9        32.2180  -28.6330   16.4110 N.pl3   2  ANP2       -0.1439
     23  C8        31.5740  -27.5600   16.8710 C.3     2  ANP2        0.3377
     24  N7        31.2170  -26.7860   15.8450 N.2     2  ANP2       -0.2095
     25  C5        31.6360  -27.3700   14.7280 C.2     2  ANP2        0.2526
     26  C6        31.5560  -27.0390   13.3840 C.2     2  ANP2        0.4393
     27  N6        30.9510  -25.9190   13.0000 N.pl3   2  ANP2        0.2180
     28  N1        32.0970  -27.8670   12.4790 N.2     2  ANP2        0.0021
     29  C2        32.6990  -28.9830   12.8570 C.3     2  ANP2        0.5254
     30  N3        32.7930  -29.3270   14.1320 N.2     2  ANP2       -0.0055
     31  C4        32.2730  -28.5430   15.0860 C.2     2  ANP2        0.3518
@<TRIPOS>BOND
     1    28    29    1
     2    28    26    2
     3    29    30    1
     4    27    26    1
     5    26    25    1
     6    30    31    2
     7    25    31    1
     8    25    24    2
     9    31    22    1
    10    24    23    1
    11    22    23    1
    12    22    21    1
    13    20    19    1
    14    21    19    1
    15    21    16    1
    16    19    17    1
    17    16    15    1
    18    17    18    1
    19    17    15    1
    20    15    14    1
    21    11     9    2
    22    14    13    1
    23    13     9    1
    24     9    12    1
    25     9    10    1
    26    12     5    1
    27     6     5    2
    28     5     8    1
    29     5     7    1
    30     8     1    1
    31     4     1    2
    32     1     3    1
    33     1     2    1
