@<TRIPOS>MOLECULE
3gt9_516_A_1.pdb
 36 40 0 0 0
SMALL
GASTEIGER

@<TRIPOS>ATOM
      1  O16       80.5260   62.0630   14.9220 O.2     1  5161       -0.2730
      2  C15       80.8480   62.3490   13.7780 C.2     1  5161        0.2458
      3  C8        82.0200   61.6510   13.1440 C.3     1  5161        0.1712
      4  C9        81.5110   60.5290   12.2340 C.3     1  5161        0.0289
      5  C10       80.8980   59.3690   13.0190 C.3     1  5161        0.0022
      6  C11       80.3590   58.2930   12.0840 C.3     1  5161        0.0001
      7  C12       81.4490   57.7770   11.1490 C.3     1  5161        0.0000
      8  C13       82.1060   58.9230   10.3860 C.3     1  5161        0.0001
      9  C14       82.6270   59.9900   11.3440 C.3     1  5161        0.0022
     10  N7        82.9330   61.1350   14.1560 N.am    1  5161       -0.1967
     11  C5        84.2610   61.1950   14.0560 C.2     1  5161        0.2576
     12  O6        84.8450   61.6540   13.0890 O.2     1  5161       -0.2718
     13  C3        85.0460   60.6330   15.2060 C.3     1  5161        0.1505
     14  C4        85.1240   61.6510   16.3340 C.3     1  5161        0.0287
     15  N2        86.3820   60.2450   14.7900 N.3     1  5161       -0.2087
     16  C1        86.5510   59.0820   13.9390 C.3     1  5161        0.1080
     17  N17       80.1740   63.2600   13.0650 N.am    1  5161       -0.2729
     18  C18       78.9940   63.9020   13.6370 C.3     1  5161        0.1337
     19  C19       78.5650   64.9660   12.6290 C.3     1  5161        0.0294
     20  C20       79.7190   65.1120   11.7070 C.3     1  5161        0.0237
     21  C21       80.4380   63.7690   11.7230 C.3     1  5161        0.0939
     22  C22       77.8710   62.9390   13.9260 C.2     1  5161        0.1523
     23  S23       77.6080   61.5130   13.0980 S.3     1  5161       -0.0775
     24  C24       76.3070   61.2890   14.1180 C.3     1  5161        0.1230
     25  C25       76.1160   62.2510   15.0320 C.2     1  5161        0.1205
     26  N26       77.0230   63.2090   14.9080 N.2     1  5161       -0.4018
     27  C27       74.9950   62.2610   16.0390 C.ar    1  5161        0.0263
     28  C28       73.7400   61.8380   15.5990 C.ar    1  5161        0.0022
     29  C29       72.6510   61.8240   16.4630 C.ar    1  5161        0.0001
     30  C30       72.8130   62.2410   17.7790 C.ar    1  5161        0.0000
     31  C31       74.0600   62.6690   18.2260 C.ar    1  5161        0.0001
     32  C33       74.1880   63.0810   19.5500 C.ar    1  5161        0.0000
     33  C32       75.1600   62.6850   17.3650 C.ar    1  5161        0.0022
     34  C36       76.3940   63.1240   17.8650 C.ar    1  5161        0.0001
     35  C35       76.5200   63.5360   19.1900 C.ar    1  5161        0.0000
     36  C34       75.4150   63.5160   20.0330 C.ar    1  5161        0.0000
@<TRIPOS>BOND
     1     8     7    1
     2     8     9    1
     3     7     6    1
     4     9     4    1
     5    20    21    1
     6    20    19    1
     7    21    17    1
     8     6     5    1
     9     4     5    1
    10     4     3    1
    11    19    18    1
    12    17    18    1
    13    17     2   am
    14    12    11    2
    15    23    22    1
    16    23    24    1
    17     3     2    1
    18     3    10    1
    19    18    22    1
    20     2     1    2
    21    22    26    2
    22    16    15    1
    23    11    10   am
    24    11    13    1
    25    24    25    1
    26    15    13    1
    27    26    25    2
    28    25    27    1
    29    13    14    1
    30    28    27   ar
    31    28    29   ar
    32    27    33   ar
    33    29    30   ar
    34    33    34   ar
    35    33    31   ar
    36    30    31   ar
    37    34    35   ar
    38    31    32   ar
    39    35    36   ar
    40    32    36   ar
