@<TRIPOS>MOLECULE
3gta_851_A_1.pdb
 36 40 0 0 0
SMALL
GASTEIGER

@<TRIPOS>ATOM
      1  O16       80.4330   61.7560   15.4270 O.2     1  8511       -0.2730
      2  C15       80.7700   62.1380   14.2930 C.2     1  8511        0.2458
      3  C8        81.9750   61.3850   13.6660 C.3     1  8511        0.1712
      4  C9        81.5290   60.2760   12.6670 C.3     1  8511        0.0289
      5  C14       82.6820   59.6360   11.8340 C.3     1  8511        0.0022
      6  C13       82.1550   58.5610   10.8560 C.3     1  8511        0.0001
      7  C12       81.3870   57.4570   11.6180 C.3     1  8511        0.0000
      8  C11       80.2200   58.0420   12.4460 C.3     1  8511        0.0001
      9  C10       80.6940   59.1700   13.3930 C.3     1  8511        0.0022
     10  N7        82.9150   60.8590   14.6790 N.am    1  8511       -0.1967
     11  C5        84.2370   61.0410   14.6090 C.2     1  8511        0.2576
     12  O6        84.8010   61.5340   13.6320 O.2     1  8511       -0.2718
     13  C3        85.0630   60.5500   15.8170 C.3     1  8511        0.1505
     14  C4        85.0360   61.5460   16.9970 C.3     1  8511        0.0287
     15  N2        86.4270   60.1840   15.3400 N.3     1  8511       -0.2087
     16  C1        86.5950   58.9970   14.4650 C.3     1  8511        0.1080
     17  N17       80.0850   63.1360   13.6710 N.am    1  8511       -0.2729
     18  C21       80.4050   63.7650   12.3760 C.3     1  8511        0.0939
     19  C20       79.7530   65.1370   12.5130 C.3     1  8511        0.0237
     20  C19       78.4790   64.8370   13.2980 C.3     1  8511        0.0294
     21  C18       78.8720   63.7130   14.2760 C.3     1  8511        0.1337
     22  C22       77.7280   62.7350   14.5760 C.2     1  8511        0.1526
     23  N26       77.0680   62.7600   15.7460 N.2     1  8511       -0.4015
     24  C25       76.1040   61.7730   15.7620 C.2     1  8511        0.1233
     25  C30       75.2040   61.4990   16.8200 C.2     1  8511        0.0266
     26  C29       74.2910   60.4250   16.6210 C.2     1  8511        0.0020
     27  C28       74.2730   59.6760   15.4400 C.2     1  8511       -0.0032
     28  C27       75.1600   59.9520   14.4060 C.2     1  8511       -0.0082
     29  C24       76.0830   61.0190   14.5860 C.3     1  8511        0.1279
     30  S23       77.2660   61.5220   13.4440 S.3     1  8511       -0.0743
     31  C31       75.2100   62.2320   18.0220 C.ar    1  8511        0.0022
     32  C36       76.4280   62.5490   18.6860 C.ar    1  8511        0.0001
     33  C35       76.4440   63.2730   19.8790 C.ar    1  8511        0.0000
     34  C34       75.2470   63.6920   20.4500 C.ar    1  8511        0.0000
     35  C33       74.0380   63.3990   19.8310 C.ar    1  8511        0.0000
     36  C32       74.0100   62.6790   18.6360 C.ar    1  8511        0.0001
@<TRIPOS>BOND
     1     6     7    1
     2     6     5    1
     3     7     8    1
     4     5     4    1
     5    18    19    1
     6    18    17    1
     7     8     9    1
     8    19    20    1
     9     4     9    1
    10     4     3    1
    11    20    21    1
    12    30    22    1
    13    30    29    1
    14    12    11    2
    15     3     2    1
    16     3    10    1
    17    17    21    1
    18    17     2   am
    19    21    22    1
    20     2     1    2
    21    28    29    1
    22    28    27    2
    23    16    15    1
    24    22    23    2
    25    29    24    1
    26    11    10   am
    27    11    13    1
    28    15    13    1
    29    27    26    1
    30    23    24    2
    31    24    25    1
    32    13    14    1
    33    26    25    2
    34    25    31    1
    35    31    36   ar
    36    31    32   ar
    37    36    35   ar
    38    32    33   ar
    39    35    34   ar
    40    33    34   ar
