@<TRIPOS>MOLECULE
3gtc_GTC_A_1.pdb
 15 16 0 0 0
SMALL
GASTEIGER

@<TRIPOS>ATOM
      1  C6        21.2240    4.0880   11.3600 C.3   362  GTC362      0.1105
      2  C2        23.6620    4.6150   11.5230 C.3   362  GTC362      0.0011
      3  C5        21.1460    5.6220   11.2740 C.3   362  GTC362      0.1182
      4  C4        22.1070    6.1300   10.2010 C.3   362  GTC362      0.0123
      5  C10       18.6190    2.1690    9.9100 C.1   362  GTC362      0.1566
      6  O13       19.1490    5.9570    9.9930 O.co2 362  GTC362     -0.2456
      7  C12       19.7450    6.1510   11.0740 C.2   362  GTC362      0.3654
      8  O14       19.2200    6.7880   12.0160 O.co2 362  GTC362     -0.2456
      9  C3        23.5410    5.8760   10.6680 C.3   362  GTC362      0.0006
     10  C1        22.6380    3.5700   11.1020 C.3   362  GTC362      0.0165
     11  C7        20.2660    3.3940   10.4610 C.1   362  GTC362      0.0954
     12  N8        20.1930    3.3820    9.0980 N.2   362  GTC362     -0.0752
     13  N9        19.1030    2.5740    8.7200 N.2   362  GTC362     -0.0645
     14  N11       19.2820    2.6300   10.9610 N.2   362  GTC362     -0.2924
     15  S15       17.2270    1.1000   10.1730 S.2   362  GTC362      0.0465
@<TRIPOS>BOND
     1    13    12    1
     2    13     5    2
     3    12    11    2
     4     5    15    2
     5     5    14    2
     6     6     7   ar
     7     4     9    1
     8     4     3    1
     9    11    14    2
    10    11     1    1
    11     9     2    1
    12     7     3    1
    13     7     8   ar
    14    10     1    1
    15    10     2    1
    16     3     1    1
