@<TRIPOS>MOLECULE
3gts_D3M_A_1.pdb
 13 13 0 0 0
SMALL
GASTEIGER

@<TRIPOS>ATOM
      1 CL1        42.2690  -16.1100   -1.6840 Cl    601  D3M601     -0.0791
      2 CL2        38.1020  -20.5450   -3.4390 Cl    601  D3M601     -0.0819
      3  C1        40.7300  -19.6790   -3.0330 C.ar  601  D3M601      0.1250
      4  O1        41.2580  -21.1900   -4.7360 O.co2 601  D3M601     -0.2404
      5  C2        39.3170  -19.3820   -2.9810 C.ar  601  D3M601      0.0670
      6  O2        41.5800  -21.8270   -2.6040 O.co2 601  D3M601     -0.2404
      7  C3        38.8670  -18.1100   -2.5430 C.ar  601  D3M601      0.0127
      8  O3        43.0570  -18.9130   -2.6550 O.3   601  D3M601     -0.4703
      9  C4        39.7920  -17.1150   -2.1510 C.ar  601  D3M601      0.0153
     10  C5        41.1880  -17.3730   -2.1860 C.ar  601  D3M601      0.0918
     11  C6        41.6670  -18.6550   -2.6260 C.ar  601  D3M601      0.1563
     12  C7        41.2310  -21.0130   -3.4920 C.2   601  D3M601      0.3915
     13  C8        43.6610  -18.5390   -3.9200 C.3   601  D3M601      0.2525
@<TRIPOS>BOND
     1     4    12   ar
     2    13     8    1
     3    12     3    1
     4    12     6   ar
     5     2     5    1
     6     3     5   ar
     7     3    11   ar
     8     5     7   ar
     9     8    11    1
    10    11    10   ar
    11     7     9   ar
    12    10     9   ar
    13    10     1    1
