@<TRIPOS>MOLECULE
3gu3_SAH_A_1.pdb
 26 28 0 0 0
SMALL
GASTEIGER

@<TRIPOS>ATOM
      1  N         47.5460   36.4080   14.8390 N.3   401  SAH401     -0.1159
      2  CA        48.4990   35.4220   15.3510 C.3   401  SAH401      0.2168
      3  CB        49.8690   35.6690   14.6830 C.2   401  SAH401      0.0105
      4  CG        50.9860   34.6970   15.1020 C.2   401  SAH401      0.0284
      5  SD        52.6970   34.9270   14.5460 S.3   401  SAH401     -0.1108
      6  C         48.6090   35.5530   16.9030 C.2   401  SAH401      0.3860
      7  O         48.6500   36.7260   17.3690 O.co2 401  SAH401     -0.2437
      8  OXT       48.6550   34.5140   17.6220 O.co2 401  SAH401     -0.2437
      9  C5'       52.3720   35.3410   12.7700 C.3   401  SAH401      0.0945
     10  C4'       51.9100   34.2290   11.8510 C.3   401  SAH401      0.1634
     11  O4'       52.4020   34.5990   10.5670 O.3   401  SAH401     -0.3152
     12  C3'       52.4200   32.7740   12.2170 C.3   401  SAH401      0.2168
     13  O3'       51.2900   31.9590   12.7150 O.3   401  SAH401     -0.2175
     14  C2'       53.0470   32.2410   10.9210 C.3   401  SAH401      0.2569
     15  O2'       52.4070   31.0750   10.3620 O.3   401  SAH401     -0.2130
     16  C1'       53.0860   33.4570    9.9850 C.3   401  SAH401      0.3185
     17  N9        53.5290   33.8530    8.6510 N.pl3 401  SAH401     -0.1439
     18  C8        54.7940   34.3650    8.2650 C.3   401  SAH401      0.3377
     19  N7        54.8160   34.5980    6.9560 N.2   401  SAH401     -0.2095
     20  C5        53.5560   34.2510    6.4660 C.2   401  SAH401      0.2526
     21  C6        52.9090   34.2310    5.1600 C.2   401  SAH401      0.4393
     22  N6        53.5290   34.6490    4.0470 N.pl3 401  SAH401      0.2180
     23  N1        51.5850   33.7950    5.0380 N.2   401  SAH401      0.0021
     24  C2        50.9490   33.3730    6.1330 C.3   401  SAH401      0.5254
     25  N3        51.4160   33.3280    7.3710 N.2   401  SAH401     -0.0055
     26  C4        52.7450   33.7620    7.4990 C.2   401  SAH401      0.3518
@<TRIPOS>BOND
     1    22    21    1
     2    23    21    2
     3    23    24    1
     4    21    20    1
     5    24    25    1
     6    20    19    2
     7    20    26    1
     8    19    18    1
     9    25    26    2
    10    26    17    1
    11    18    17    1
    12    17    16    1
    13    16    11    1
    14    16    14    1
    15    15    14    1
    16    11    10    1
    17    14    12    1
    18    10    12    1
    19    10     9    1
    20    12    13    1
    21     9     5    1
    22     5     4    1
    23     3     4    2
    24     3     2    1
    25     1     2    1
    26     2     6    1
    27     6     7   ar
    28     6     8   ar
