@<TRIPOS>MOLECULE
3gu4_ANP_A_1.pdb
 31 33 0 0 0
SMALL
GASTEIGER

@<TRIPOS>ATOM
      1  PG        15.7260   -2.0060   12.9970 P.3   296  ANP296      0.4884
      2  O1G       15.1740   -3.1260   12.1470 O.2   296  ANP296     -0.2331
      3  O2G       14.9770   -0.7020   12.8520 O.3   296  ANP296     -0.1240
      4  O3G       15.9850   -2.4070   14.4290 O.3   296  ANP296     -0.1240
      5  PB        17.6010   -1.7160   10.6150 P.3   296  ANP296      0.4669
      6  O1B       16.5040   -0.9490    9.9060 O.2   296  ANP296     -0.2351
      7  O2B       17.8130   -3.1430   10.1900 O.3   296  ANP296     -0.1253
      8  N3B       17.3110   -1.6620   12.3390 N.3   296  ANP296     -0.0163
      9  PA        19.4610    0.5070   10.6980 P.3   296  ANP296      0.2220
     10  O1A       19.5390    1.3500    9.4410 O.2   296  ANP296     -0.5170
     11  O2A       18.6670    0.9920   11.8920 O.3   296  ANP296     -0.4370
     12  O3A       19.0190   -0.9990   10.3110 O.3   296  ANP296     -0.2360
     13  O5'       20.9750    0.2570   11.1760 O.3   296  ANP296     -0.3111
     14  C5'       21.2430   -0.4640   12.3830 C.3   296  ANP296      0.1813
     15  C4'       22.2320    0.2960   13.2580 C.3   296  ANP296      0.1821
     16  O4'       23.4350    0.5610   12.5290 O.3   296  ANP296     -0.3135
     17  C3'       21.7470    1.6550   13.7330 C.3   296  ANP296      0.2184
     18  O3'       20.9660    1.5620   14.9320 O.3   296  ANP296     -0.2174
     19  C2'       23.0450    2.4130   13.9310 C.3   296  ANP296      0.2570
     20  O2'       23.6230    2.1110   15.2090 O.3   296  ANP296     -0.2130
     21  C1'       23.9490    1.8520   12.8500 C.3   296  ANP296      0.3186
     22  N9        23.9000    2.7400   11.6590 N.pl3 296  ANP296     -0.1439
     23  C8        22.9410    2.7530   10.7010 C.3   296  ANP296      0.3377
     24  N7        23.2000    3.6900    9.7630 N.2   296  ANP296     -0.2095
     25  C5        24.3450    4.2910   10.1190 C.2   296  ANP296      0.2526
     26  C6        25.1830    5.3540    9.5490 C.2   296  ANP296      0.4393
     27  N6        24.7980    5.9600    8.4050 N.pl3 296  ANP296      0.2180
     28  N1        26.3140    5.7030   10.2130 N.2   296  ANP296      0.0021
     29  C2        26.6710    5.0840   11.3560 C.3   296  ANP296      0.5254
     30  N3        25.9580    4.0930   11.9190 N.2   296  ANP296     -0.0055
     31  C4        24.8080    3.6630   11.3560 C.2   296  ANP296      0.3518
@<TRIPOS>BOND
     1    27    26    1
     2    10     9    2
     3    26    25    1
     4    26    28    2
     5    24    25    2
     6    24    23    1
     7     6     5    2
     8    25    31    1
     9     7     5    1
    10    28    29    1
    11    12     5    1
    12    12     9    1
    13     5     8    1
    14     9    13    1
    15     9    11    1
    16    23    22    1
    17    13    14    1
    18    31    22    1
    19    31    30    2
    20    29    30    1
    21    22    21    1
    22     2     1    2
    23     8     1    1
    24    14    15    1
    25    16    21    1
    26    16    15    1
    27    21    19    1
    28     3     1    1
    29     1     4    1
    30    15    17    1
    31    17    19    1
    32    17    18    1
    33    19    20    1
