@<TRIPOS>MOLECULE
3gu5_ANP_A_1.pdb
 31 33 0 0 0
SMALL
GASTEIGER

@<TRIPOS>ATOM
      1  PG       -17.1450   -1.3120  -14.1520 P.3   297  ANP297      0.4884
      2  O1G      -18.5860   -1.4040  -14.5370 O.3   297  ANP297     -0.1240
      3  O2G      -16.4570   -2.6390  -13.9310 O.3   297  ANP297     -0.1240
      4  O3G      -16.3140   -0.3570  -14.9660 O.2   297  ANP297     -0.2331
      5  PB       -17.6300   -1.4060  -11.2030 P.3   297  ANP297      0.4669
      6  O1B      -16.5480   -1.2470  -10.1960 O.3   297  ANP297     -0.1253
      7  O2B      -18.0580   -2.8340  -11.5070 O.2   297  ANP297     -0.2351
      8  N3B      -17.2020   -0.4860  -12.6290 N.3   297  ANP297     -0.0163
      9  PA       -19.5230    0.6660  -10.8150 P.3   297  ANP297      0.2220
     10  O1A      -18.9230    1.2820  -12.0680 O.2   297  ANP297     -0.5170
     11  O2A      -19.5700    1.5270   -9.5840 O.3   297  ANP297     -0.4370
     12  O3A      -18.8570   -0.7000  -10.4210 O.3   297  ANP297     -0.2360
     13  O5'      -21.0300    0.2590  -11.2040 O.3   297  ANP297     -0.3111
     14  C5'      -21.2550   -0.3490  -12.4750 C.3   297  ANP297      0.1813
     15  C4'      -22.2570    0.4390  -13.2960 C.3   297  ANP297      0.1821
     16  O4'      -23.4560    0.6570  -12.5390 O.3   297  ANP297     -0.3135
     17  C3'      -21.8050    1.8290  -13.7440 C.3   297  ANP297      0.2184
     18  O3'      -20.9710    1.8010  -14.9230 O.3   297  ANP297     -0.2174
     19  C2'      -23.1280    2.5220  -13.9650 C.3   297  ANP297      0.2570
     20  O2'      -23.6670    2.1660  -15.2590 O.3   297  ANP297     -0.2130
     21  C1'      -23.9930    1.9330  -12.8570 C.3   297  ANP297      0.3186
     22  N9       -23.9170    2.7760  -11.6330 N.pl3 297  ANP297     -0.1439
     23  C8       -22.9730    2.7380  -10.6500 C.3   297  ANP297      0.3377
     24  N7       -23.2530    3.6560   -9.6970 N.2   297  ANP297     -0.2095
     25  C5       -24.3710    4.2900  -10.0610 C.2   297  ANP297      0.2526
     26  C6       -25.2050    5.3510   -9.4860 C.2   297  ANP297      0.4393
     27  N6       -24.8490    5.9570   -8.3100 N.pl3 297  ANP297      0.2180
     28  N1       -26.3260    5.7230  -10.1580 N.2   297  ANP297      0.0021
     29  C2       -26.6580    5.1240  -11.3280 C.3   297  ANP297      0.5254
     30  N3       -25.9430    4.1630  -11.9220 N.2   297  ANP297     -0.0055
     31  C4       -24.8150    3.6860  -11.3320 C.2   297  ANP297      0.3518
@<TRIPOS>BOND
     1    20    19    1
     2     4     1    2
     3    18    17    1
     4     2     1    1
     5     1     3    1
     6     1     8    1
     7    19    17    1
     8    19    21    1
     9    17    15    1
    10    15    16    1
    11    15    14    1
    12    21    16    1
    13    21    22    1
    14     8     5    1
    15    14    13    1
    16    10     9    2
    17    30    31    2
    18    30    29    1
    19    22    31    1
    20    22    23    1
    21     7     5    2
    22    31    25    1
    23    29    28    1
    24    13     9    1
    25     5    12    1
    26     5     6    1
    27     9    12    1
    28     9    11    1
    29    23    24    1
    30    28    26    2
    31    25    24    2
    32    25    26    1
    33    26    27    1
