@<TRIPOS>MOLECULE
3gu6_ADP_A_1.pdb
 27 29 0 0 0
SMALL
GASTEIGER

@<TRIPOS>ATOM
      1  PB        17.4020   -1.3210   10.6390 P.3   296  ADP296      0.5373
      2  O1B       18.2810   -2.5290   10.4330 O.3   296  ADP296     -0.1143
      3  O2B       16.3810   -1.4800   11.7480 O.3   296  ADP296     -0.1143
      4  O3B       16.8230   -0.7920    9.3430 O.2   296  ADP296     -0.2221
      5  PA        19.7890    0.2520   10.5420 P.3   296  ADP296      0.2231
      6  O1A       19.6480    1.4260    9.6060 O.2   296  ADP296     -0.5169
      7  O2A       20.4420   -1.0300   10.0690 O.3   296  ADP296     -0.4370
      8  O3A       18.3710   -0.1440   11.2050 O.3   296  ADP296     -0.2261
      9  O5'       20.6700    0.8050   11.7620 O.3   296  ADP296     -0.3111
     10  C5'       21.0600   -0.0530   12.8280 C.3   296  ADP296      0.1813
     11  C4'       22.1840    0.6350   13.5750 C.3   296  ADP296      0.1821
     12  O4'       23.3340    0.7890   12.7290 O.3   296  ADP296     -0.3135
     13  C3'       21.8220    2.0480   14.0030 C.3   296  ADP296      0.2184
     14  O3'       21.0370    2.0960   15.2020 O.3   296  ADP296     -0.2174
     15  C2'       23.1820    2.7080   14.1140 C.3   296  ADP296      0.2570
     16  O2'       23.7730    2.4040   15.3870 O.3   296  ADP296     -0.2130
     17  C1'       23.9760    2.0390   12.9900 C.3   296  ADP296      0.3186
     18  N9        23.9470    2.8880   11.7640 N.pl3 296  ADP296     -0.1439
     19  C8        22.9990    2.8760   10.8000 C.3   296  ADP296      0.3377
     20  N7        23.2750    3.7880    9.8280 N.2   296  ADP296     -0.2095
     21  C5        24.4130    4.4040   10.1650 C.2   296  ADP296      0.2526
     22  C6        25.2650    5.4520    9.5670 C.2   296  ADP296      0.4393
     23  N6        24.9120    6.0510    8.4040 N.pl3 296  ADP296      0.2180
     24  N1        26.3890    5.8130   10.2170 N.2   296  ADP296      0.0021
     25  C2        26.7430    5.2220   11.3850 C.3   296  ADP296      0.5254
     26  N3        26.0140    4.2510   11.9770 N.2   296  ADP296     -0.0055
     27  C4        24.8620    3.8020   11.4250 C.2   296  ADP296      0.3518
@<TRIPOS>BOND
     1    23    22    1
     2     4     1    2
     3    22    21    1
     4    22    24    2
     5     6     5    2
     6    20    21    2
     7    20    19    1
     8     7     5    1
     9    21    27    1
    10    24    25    1
    11     2     1    1
    12     5     8    1
    13     5     9    1
    14     1     8    1
    15     1     3    1
    16    19    18    1
    17    25    26    1
    18    27    18    1
    19    27    26    2
    20     9    10    1
    21    18    17    1
    22    12    17    1
    23    12    11    1
    24    10    11    1
    25    17    15    1
    26    11    13    1
    27    13    15    1
    28    13    14    1
    29    15    16    1
