@<TRIPOS>MOLECULE
3gu7_ADP_A_1.pdb
 27 29 0 0 0
SMALL
GASTEIGER

@<TRIPOS>ATOM
      1  PB       -17.7340   -1.5220  -11.0750 P.3   296  ADP296      0.5373
      2  O1B      -18.4810   -2.5630  -11.8520 O.3   296  ADP296     -0.1143
      3  O2B      -17.1930   -2.0980   -9.7920 O.3   296  ADP296     -0.1143
      4  O3B      -16.7980   -0.7020  -11.9630 O.2   296  ADP296     -0.2221
      5  PA       -19.7110    0.7200  -11.0010 P.3   296  ADP296      0.2231
      6  O1A      -19.2070    1.4280  -12.2410 O.2   296  ADP296     -0.5169
      7  O2A      -19.7700    1.5820   -9.7550 O.3   296  ADP296     -0.4370
      8  O3A      -19.0640   -0.6810  -10.6130 O.3   296  ADP296     -0.2261
      9  O5'      -21.2440    0.3670  -11.3690 O.3   296  ADP296     -0.3111
     10  C5'      -21.5440   -0.2860  -12.6270 C.3   296  ADP296      0.1813
     11  C4'      -22.4740    0.4980  -13.5440 C.3   296  ADP296      0.1821
     12  O4'      -23.6730    0.7860  -12.8070 O.3   296  ADP296     -0.3135
     13  C3'      -22.0210    1.8910  -14.0080 C.3   296  ADP296      0.2184
     14  O3'      -21.1270    1.9220  -15.1350 O.3   296  ADP296     -0.2174
     15  C2'      -23.3250    2.6210  -14.2420 C.3   296  ADP296      0.2570
     16  O2'      -23.8880    2.2640  -15.5310 O.3   296  ADP296     -0.2130
     17  C1'      -24.2270    2.0590  -13.1430 C.3   296  ADP296      0.3186
     18  N9       -24.2200    2.9070  -11.9080 N.pl3 296  ADP296     -0.1439
     19  C8       -23.3070    2.8690  -10.9100 C.3   296  ADP296      0.3377
     20  N7       -23.5940    3.7500   -9.9120 N.2   296  ADP296     -0.2095
     21  C5       -24.6810    4.3700  -10.2970 C.2   296  ADP296      0.2526
     22  C6       -25.5120    5.4140   -9.7020 C.2   296  ADP296      0.4393
     23  N6       -25.1150    5.9480   -8.5110 N.pl3 296  ADP296      0.2180
     24  N1       -26.5870    5.7980  -10.3930 N.2   296  ADP296      0.0021
     25  C2       -26.9370    5.2570  -11.5860 C.3   296  ADP296      0.5254
     26  N3       -26.2170    4.2910  -12.1760 N.2   296  ADP296     -0.0055
     27  C4       -25.1120    3.8100  -11.5900 C.2   296  ADP296      0.3518
@<TRIPOS>BOND
     1    16    15    1
     2    14    13    1
     3    15    13    1
     4    15    17    1
     5    13    11    1
     6    11    12    1
     7    11    10    1
     8    17    12    1
     9    17    18    1
    10    10     9    1
    11     6     5    2
    12    26    27    2
    13    26    25    1
    14     4     1    2
    15    18    27    1
    16    18    19    1
    17     2     1    1
    18    27    21    1
    19    25    24    1
    20     9     5    1
    21     1     8    1
    22     1     3    1
    23     5     8    1
    24     5     7    1
    25    19    20    1
    26    24    22    2
    27    21    20    2
    28    21    22    1
    29    22    23    1
