@<TRIPOS>MOLECULE
3gu8_3GU_A_1.pdb
 24 27 0 0 0
SMALL
GASTEIGER

@<TRIPOS>ATOM
      1  C1       -24.0270    5.0630   -7.3690 C.3   296  3GU296      0.2051
      2  N1       -26.5150    5.4790  -10.1050 N.2   296  3GU296     -0.0020
      3  C2       -26.8660    5.1090  -11.3490 C.3   296  3GU296      0.5253
      4  N3       -26.1060    4.2490  -12.0410 N.2   296  3GU296     -0.0055
      5  C4       -24.9700    3.7480  -11.4950 C.2   296  3GU296      0.3517
      6  C5       -24.5780    4.1120  -10.2120 C.2   296  3GU296      0.2478
      7  C6       -25.3980    5.0060   -9.4920 C.2   296  3GU296      0.3854
      8  N6       -25.1620    5.4580   -8.2130 N.pl3 296  3GU296     -0.0344
      9  N7       -23.4050    3.4550   -9.9570 N.2   296  3GU296     -0.2097
     10  C8       -23.1110    2.7070  -11.0440 C.3   296  3GU296      0.3377
     11  N9       -24.0540    2.9060  -11.9840 N.pl3 296  3GU296     -0.1439
     12  C1'      -24.1500    2.2590  -13.3320 C.3   296  3GU296      0.3186
     13  C2'      -23.3720    2.9460  -14.4440 C.3   296  3GU296      0.2570
     14  O2'      -24.0490    2.6700  -15.6780 O.3   296  3GU296     -0.2130
     15  C21      -24.2010    5.7030   -5.9950 C.3   296  3GU296      0.0509
     16  C22      -23.6400    4.7170   -4.9730 C.3   296  3GU296      0.0044
     17  C23      -23.9270    3.3460   -5.5690 C.3   296  3GU296      0.0044
     18  C24      -24.1910    3.5730   -7.0520 C.3   296  3GU296      0.0509
     19  C3'      -22.0510    2.2250  -14.4270 C.3   296  3GU296      0.2186
     20  O3'      -21.3580    2.3190  -15.6890 O.3   296  3GU296     -0.2174
     21  C4'      -22.4590    0.8070  -14.0620 C.3   296  3GU296      0.1851
     22  O4'      -23.6160    0.9370  -13.2080 O.3   296  3GU296     -0.3134
     23  C5'      -21.3660    0.0640  -13.3280 C.3   296  3GU296      0.2143
     24  O5'      -20.6480    0.9750  -12.4830 O.3   296  3GU296     -0.2176
@<TRIPOS>BOND
     1    20    19    1
     2    14    13    1
     3    13    19    1
     4    13    12    1
     5    19    21    1
     6    21    23    1
     7    21    22    1
     8    12    22    1
     9    12    11    1
    10    23    24    1
    11     4     5    2
    12     4     3    1
    13    11     5    1
    14    11    10    1
    15     5     6    1
    16     3     2    1
    17    10     9    1
    18     6     9    2
    19     6     7    1
    20     2     7    2
    21     7     8    1
    22     8     1    1
    23     1    18    1
    24     1    15    1
    25    18    17    1
    26    15    16    1
    27    17    16    1
