@<TRIPOS>MOLECULE
3gub_GUB_A_1.pdb
 27 30 0 0 0
SMALL
GASTEIGER

@<TRIPOS>ATOM
      1  C2       -24.7770    5.6260   -6.5500 C.3   296  GUB296      0.0817
      2  C3       -24.2630    5.7140   -7.9840 C.3   296  GUB296      0.2559
      3  C5       -25.6800    5.5410  -10.0360 C.2   296  GUB296      0.3855
      4  O18      -21.0490    1.0490  -12.5800 O.3   296  GUB296     -0.2176
      5  C17      -21.5750    0.4270  -13.7680 C.3   296  GUB296      0.2143
      6  C16      -22.5950    1.5180  -13.8330 C.3   296  GUB296      0.1851
      7  C19      -22.4140    2.8040  -14.6600 C.3   296  GUB296      0.2186
      8  O20      -21.6140    2.7510  -15.8590 O.3   296  GUB296     -0.2174
      9  O15      -23.9620    1.2290  -13.5850 O.3   296  GUB296     -0.3134
     10  C14      -24.5980    2.4890  -13.6630 C.3   296  GUB296      0.3186
     11  C21      -23.8620    3.2550  -14.7800 C.3   296  GUB296      0.2570
     12  O22      -24.3740    2.8310  -16.0430 O.3   296  GUB296     -0.2130
     13  N13      -24.4600    3.1790  -12.3350 N.pl3 296  GUB296     -0.1439
     14  C12      -23.5080    3.0320  -11.3840 C.3   296  GUB296      0.3377
     15  N11      -23.7590    3.8850  -10.3630 N.2   296  GUB296     -0.2097
     16  C10      -24.8990    4.5630  -10.6650 C.2   296  GUB296      0.2478
     17  C9       -25.3190    4.1020  -11.9130 C.2   296  GUB296      0.3517
     18  N6       -26.7770    6.0130  -10.6920 N.2   296  GUB296     -0.0020
     19  C7       -27.1590    5.5340  -11.8930 C.3   296  GUB296      0.5253
     20  N8       -26.4280    4.5930  -12.5140 N.2   296  GUB296     -0.0055
     21  N4       -25.3920    6.1080   -8.8300 N.pl3 296  GUB296     -0.0296
     22  C1       -23.7270    5.1020   -5.5810 C.ar  296  GUB296     -0.0179
     23  C23      -23.4650    3.7370   -5.5100 C.ar  296  GUB296     -0.0041
     24  C24      -22.5070    3.2610   -4.6100 C.ar  296  GUB296     -0.0003
     25  C25      -21.8210    4.1590   -3.7740 C.ar  296  GUB296     -0.0000
     26  C26      -22.0910    5.5190   -3.8550 C.ar  296  GUB296     -0.0003
     27  C27      -23.0570    5.9910   -4.7390 C.ar  296  GUB296     -0.0041
@<TRIPOS>BOND
     1    12    11    1
     2     8     7    1
     3    11     7    1
     4    11    10    1
     5     7     6    1
     6     6     5    1
     7     6     9    1
     8     5     4    1
     9    10     9    1
    10    10    13    1
    11    20    17    2
    12    20    19    1
    13    13    17    1
    14    13    14    1
    15    17    16    1
    16    19    18    1
    17    14    15    1
    18    18     3    2
    19    16    15    2
    20    16     3    1
    21     3    21    1
    22    21     2    1
    23     2     1    1
    24     1    22    1
    25    22    23   ar
    26    22    27   ar
    27    23    24   ar
    28    27    26   ar
    29    24    25   ar
    30    26    25   ar
