@<TRIPOS>MOLECULE
3guc_ANP_A_1.pdb
 27 29 0 0 0
SMALL
GASTEIGER

@<TRIPOS>ATOM
      1  PB       -39.1210   27.6720  -12.7510 P.3   402  ANP402      0.4738
      2  O1B      -39.6900   28.7070  -11.8150 O.3   402  ANP402     -0.1247
      3  O2B      -38.2720   26.5970  -12.1140 O.2   402  ANP402     -0.2343
      4  N3B      -40.5000   26.9480  -13.5780 N.3   402  ANP402     -0.0178
      5  PA       -36.6290   28.1940  -14.1830 P.3   402  ANP402      0.2220
      6  O1A      -36.1760   29.2360  -15.1840 O.2   402  ANP402     -0.5170
      7  O2A      -35.8440   28.0890  -12.8860 O.3   402  ANP402     -0.4370
      8  O3A      -38.2140   28.4440  -13.8700 O.3   402  ANP402     -0.2354
      9  O5'      -36.6550   26.7070  -14.8260 O.3   402  ANP402     -0.3111
     10  C5'      -37.1130   26.4480  -16.1550 C.3   402  ANP402      0.1813
     11  C4'      -36.2840   25.3330  -16.7830 C.3   402  ANP402      0.1821
     12  O4'      -36.9590   24.7770  -17.9250 O.3   402  ANP402     -0.3135
     13  C3'      -34.9240   25.8390  -17.2540 C.3   402  ANP402      0.2184
     14  O3'      -33.9060   25.0130  -16.6840 O.3   402  ANP402     -0.2174
     15  C2'      -34.9720   25.6810  -18.7680 C.3   402  ANP402      0.2570
     16  O2'      -33.6800   25.4160  -19.3360 O.3   402  ANP402     -0.2130
     17  C1'      -36.0020   24.5660  -18.9660 C.3   402  ANP402      0.3186
     18  N9       -36.6140   24.6460  -20.3140 N.pl3 402  ANP402     -0.1439
     19  C8       -37.2230   25.7350  -20.8080 C.3   402  ANP402      0.3377
     20  N7       -37.6750   25.5070  -22.0610 N.2   402  ANP402     -0.2095
     21  C5       -37.3560   24.2390  -22.3910 C.2   402  ANP402      0.2526
     22  C6       -37.5230   23.3700  -23.5870 C.2   402  ANP402      0.4393
     23  N6       -38.1540   23.8450  -24.6910 N.pl3 402  ANP402      0.2180
     24  N1       -37.0430   22.1030  -23.5270 N.2   402  ANP402      0.0021
     25  C2       -36.4150   21.6340  -22.4360 C.3   402  ANP402      0.5254
     26  N3       -36.2140   22.3800  -21.3330 N.2   402  ANP402     -0.0055
     27  C4       -36.6490   23.6690  -21.2400 C.2   402  ANP402      0.3518
@<TRIPOS>BOND
     1    23    22    1
     2    22    24    2
     3    22    21    1
     4    24    25    1
     5    25    26    1
     6    21    20    2
     7    21    27    1
     8    20    19    1
     9    26    27    2
    10    27    18    1
    11    19    18    1
    12    18    17    1
    13    16    15    1
    14    17    15    1
    15    17    12    1
    16    15    13    1
    17    12    11    1
    18    13    11    1
    19    13    14    1
    20    11    10    1
    21    10     9    1
    22     6     5    2
    23     9     5    1
    24     5     8    1
    25     5     7    1
    26     8     1    1
    27     4     1    1
    28     1     3    2
    29     1     2    1
