@<TRIPOS>MOLECULE
3gue_UPG_A_1.pdb
 36 38 0 0 0
SMALL
GASTEIGER

@<TRIPOS>ATOM
      1  N1        29.5000   -2.2350    3.1710 N.am  484  UPG484     -0.1766
      2  C2        30.1120   -2.6940    4.3550 C.1   484  UPG484      0.2845
      3  N3        30.8110   -3.8860    4.2860 N.2   484  UPG484     -0.2452
      4  C4        30.9270   -4.6270    3.1340 C.1   484  UPG484      0.2182
      5  C5        30.3050   -4.1890    1.9580 C.2   484  UPG484      0.1242
      6  C6        29.5860   -2.9980    1.9640 C.2   484  UPG484      0.0929
      7  O2        30.0920   -2.0920    5.4390 O.2   484  UPG484     -0.1918
      8  O4        31.5910   -5.6710    3.1880 O.2   484  UPG484     -0.2085
      9  C1C       28.7260   -0.9520    3.1900 C.3   484  UPG484      0.2401
     10  C2C       28.9570    0.1070    2.1080 C.3   484  UPG484      0.2319
     11  O2C       30.1060    0.9090    2.4150 O.3   484  UPG484     -0.2157
     12  C3C       27.6720    0.9180    2.2570 C.3   484  UPG484      0.2158
     13  C4C       26.6340   -0.1610    2.5210 C.3   484  UPG484      0.1799
     14  O4C       27.3460   -1.3230    3.0250 O.3   484  UPG484     -0.3320
     15  O3C       27.7710    1.7340    3.4230 O.3   484  UPG484     -0.2175
     16  C5C       25.9000   -0.5910    1.2090 C.3   484  UPG484      0.1813
     17  O5C       26.7230   -1.2580    0.2900 O.3   484  UPG484     -0.3112
     18  PA        26.6090   -0.9660   -1.2930 P.3   484  UPG484      0.2189
     19  O1A       26.6010    0.5200   -1.4080 O.3   484  UPG484     -0.4371
     20  O2A       27.5840   -1.7460   -2.0640 O.2   484  UPG484     -0.5170
     21  O3A       25.0820   -1.4880   -1.6170 O.3   484  UPG484     -0.2703
     22  PB        24.6230   -2.9830   -2.0660 P.3   484  UPG484      0.2208
     23  O1B       25.1730   -3.9420   -1.0930 O.3   484  UPG484     -0.4371
     24  O2B       24.8470   -3.1990   -3.5300 O.2   484  UPG484     -0.5170
     25  O3B       23.0350   -2.7970   -1.9250 O.3   484  UPG484     -0.2857
     26  C1'       22.4630   -2.5620   -0.5860 C.3   484  UPG484      0.2742
     27  C2'       21.4810   -3.6810   -0.2690 C.3   484  UPG484      0.2409
     28  C3'       20.4280   -3.6950   -1.3700 C.3   484  UPG484      0.2198
     29  C4'       19.7000   -2.3410   -1.3800 C.3   484  UPG484      0.2144
     30  C5'       20.7150   -1.1870   -1.5810 C.3   484  UPG484      0.1835
     31  C6'       20.0720    0.1420   -1.2810 C.3   484  UPG484      0.2142
     32  O2'       22.1420   -4.9590   -0.2230 O.3   484  UPG484     -0.2149
     33  O3'       19.5540   -4.7910   -1.1620 O.3   484  UPG484     -0.2174
     34  O4'       18.7210   -2.3070   -2.4070 O.3   484  UPG484     -0.2176
     35  O5'       21.8390   -1.2650   -0.6620 O.3   484  UPG484     -0.3254
     36  O6'       20.8790    1.1880   -1.8260 O.3   484  UPG484     -0.2176
@<TRIPOS>BOND
     1    24    22    2
     2    34    29    1
     3    22    25    1
     4    22    21    1
     5    22    23    1
     6    20    18    2
     7    25    26    1
     8    36    31    1
     9    21    18    1
    10    30    29    1
    11    30    31    1
    12    30    35    1
    13    19    18    1
    14    29    28    1
    15    28    33    1
    16    28    27    1
    17    18    17    1
    18    35    26    1
    19    26    27    1
    20    27    32    1
    21    17    16    1
    22    16    13    1
    23     5     6    2
    24     5     4    1
    25     6     1    1
    26    10    12    1
    27    10    11    1
    28    10     9    1
    29    12    13    1
    30    12    15    1
    31    13    14    1
    32    14     9    1
    33     4     8    2
    34     4     3    2
    35     1     9    1
    36     1     2   am
    37     3     2    2
    38     2     7    2
