@<TRIPOS>MOLECULE
3gug_C2U_A_1.pdb
 12 12 0 0 0
SMALL
GASTEIGER

@<TRIPOS>ATOM
      1  O7B        6.4560   -3.6590   19.9230 O.co2 351  C2U351     -0.2404
      2  C7         6.7880   -3.6740   18.7030 C.2   351  C2U351      0.3909
      3  O7A        7.4900   -2.7920   18.1590 O.co2 351  C2U351     -0.2404
      4  C6         6.2510   -4.7500   17.8210 C.ar  351  C2U351      0.1203
      5  C1         6.4850   -4.7580   16.4470 C.ar  351  C2U351      0.0213
      6  C5         5.4920   -5.7510   18.4060 C.ar  351  C2U351      0.2125
      7  O5         5.2640   -5.7500   19.7300 O.3   351  C2U351     -0.2854
      8  C4         4.9150   -6.7590   17.6560 C.ar  351  C2U351      0.0975
      9 CL4         3.9090   -7.9600   18.5180 Cl    351  C2U351     -0.0789
     10  C3         5.1270   -6.7990   16.2860 C.ar  351  C2U351      0.0260
     11  C2         5.9090   -5.8050   15.7020 C.ar  351  C2U351      0.0589
     12 CL2         6.1860   -5.8980   13.9480 Cl    351  C2U351     -0.0822
@<TRIPOS>BOND
     1    12    11    1
     2    11    10   ar
     3    11     5   ar
     4    10     8   ar
     5     5     4   ar
     6     8     6   ar
     7     8     9    1
     8     4     6   ar
     9     4     2    1
    10     3     2   ar
    11     6     7    1
    12     2     1   ar
