@<TRIPOS>MOLECULE
3guh_ADP_A_1.pdb
 27 29 0 0 0
SMALL
GASTEIGER

@<TRIPOS>ATOM
      1  PB         5.5990  -41.0790  -37.4310 P.3   486  ADP486      0.5373
      2  O1B        4.9870  -42.1950  -38.2960 O.2   486  ADP486     -0.2221
      3  O2B        4.9070  -39.7440  -37.2180 O.3   486  ADP486     -0.1143
      4  O3B        7.1290  -40.9490  -37.9310 O.3   486  ADP486     -0.1143
      5  PA         6.7080  -41.6160  -34.7840 P.3   486  ADP486      0.2231
      6  O1A        8.0180  -42.1330  -35.2960 O.2   486  ADP486     -0.5169
      7  O2A        6.0960  -42.1420  -33.4640 O.3   486  ADP486     -0.4370
      8  O3A        5.6070  -41.7690  -35.9530 O.3   486  ADP486     -0.2261
      9  O5'        6.8920  -40.0140  -34.7300 O.3   486  ADP486     -0.3111
     10  C5'        5.8970  -39.1320  -34.2260 C.3   486  ADP486      0.1813
     11  C4'        6.6350  -37.9310  -33.6610 C.3   486  ADP486      0.1821
     12  O4'        5.8640  -36.7790  -33.9470 O.3   486  ADP486     -0.3135
     13  C3'        6.7160  -38.0000  -32.1600 C.3   486  ADP486      0.2184
     14  O3'        7.7970  -37.1650  -31.7350 O.3   486  ADP486     -0.2174
     15  C2'        5.3800  -37.4200  -31.7410 C.3   486  ADP486      0.2570
     16  O2'        5.4470  -36.8190  -30.4600 O.3   486  ADP486     -0.2130
     17  C1'        5.2300  -36.3120  -32.7670 C.3   486  ADP486      0.3186
     18  N9         3.8150  -35.9840  -33.0090 N.pl3 486  ADP486     -0.1439
     19  C8         2.9260  -36.6950  -33.7230 C.3   486  ADP486      0.3377
     20  N7         1.7440  -36.0360  -33.6650 N.2   486  ADP486     -0.2095
     21  C5         1.9130  -34.9140  -32.9130 C.2   486  ADP486      0.2526
     22  C6         1.0870  -33.8540  -32.5160 C.2   486  ADP486      0.4393
     23  N6        -0.2170  -33.8490  -32.9050 N.pl3 486  ADP486      0.2180
     24  N1         1.5790  -32.8470  -31.7490 N.2   486  ADP486      0.0021
     25  C2         2.8530  -32.8680  -31.3400 C.3   486  ADP486      0.5254
     26  N3         3.6730  -33.8650  -31.6990 N.2   486  ADP486     -0.0055
     27  C4         3.2310  -34.8910  -32.4910 C.2   486  ADP486      0.3518
@<TRIPOS>BOND
     1     2     1    2
     2     4     1    1
     3     1     3    1
     4     1     8    1
     5     8     5    1
     6     6     5    2
     7     5     9    1
     8     5     7    1
     9     9    10    1
    10    10    11    1
    11    12    11    1
    12    12    17    1
    13    19    20    1
    14    19    18    1
    15    20    21    2
    16    11    13    1
    17    18    17    1
    18    18    27    1
    19    21    22    1
    20    21    27    1
    21    23    22    1
    22    17    15    1
    23    22    24    2
    24    27    26    2
    25    13    15    1
    26    13    14    1
    27    24    25    1
    28    15    16    1
    29    26    25    1
