@<TRIPOS>MOLECULE
3guh_250_A_1.pdb
 17 17 0 0 0
SMALL
GASTEIGER

@<TRIPOS>ATOM
      1  O1         4.3470  -38.3150  -49.6350 O.3   487  250487     -0.3074
      2  S1         4.0870  -37.0500  -48.8830 S.3   487  250487     -0.1934
      3  O2         3.8400  -36.0350  -49.9460 O.3   487  250487     -0.3074
      4  O3         3.0170  -37.1300  -47.8330 O.3   487  250487     -0.3074
      5  C1         5.4180  -36.5370  -47.9850 C.3   487  250487      0.1394
      6  C2         6.0190  -37.3050  -46.7630 C.3   487  250487      0.1876
      7  O4         6.1600  -38.7120  -46.9310 O.3   487  250487     -0.2199
      8  C3         5.3750  -36.9160  -45.4350 C.3   487  250487      0.1071
      9  N1         6.0120  -37.7280  -44.3820 N.3   487  250487     -0.2681
     10  C7         5.1120  -38.6780  -43.7060 C.3   487  250487      0.0897
     11  C6         5.7450  -38.9990  -42.3590 C.3   487  250487      0.0897
     12  N2         6.9950  -39.6620  -42.7580 N.3   487  250487     -0.2681
     13  C5         7.9690  -38.9810  -43.6550 C.3   487  250487      0.0897
     14  C4         7.4270  -37.5910  -43.9900 C.3   487  250487      0.0897
     15  C8         7.2480  -40.9880  -42.1720 C.3   487  250487      0.1081
     16  C9         8.4710  -40.8980  -41.2230 C.3   487  250487      0.1993
     17  O5         8.6110  -39.7200  -40.3790 O.3   487  250487     -0.2189
@<TRIPOS>BOND
     1     3     2    1
     2     1     2    1
     3     2     5    1
     4     2     4    1
     5     5     6    1
     6     7     6    1
     7     6     8    1
     8     8     9    1
     9     9    14    1
    10     9    10    1
    11    14    13    1
    12    10    11    1
    13    13    12    1
    14    12    11    1
    15    12    15    1
    16    15    16    1
    17    16    17    1
