@<TRIPOS>MOLECULE
3guh_ASO_A_1.pdb
 11 11 0 0 0
SMALL
GASTEIGER

@<TRIPOS>ATOM
      1  C1         8.7120  -43.0970  -39.7310 C.3   488  ASO488      0.1777
      2  C2         7.7330  -44.1260  -39.2200 C.3   488  ASO488      0.2141
      3  C3         7.8240  -44.2110  -37.6850 C.3   488  ASO488      0.2173
      4  C4         9.2460  -43.8760  -37.2310 C.3   488  ASO488      0.2142
      5  C5         9.8370  -42.5240  -37.5530 C.3   488  ASO488      0.1810
      6  C6        11.3160  -42.5850  -37.2750 C.3   488  ASO488      0.2141
      7  O2         6.4060  -43.8020  -39.7090 O.3   488  ASO488     -0.2176
      8  O3         7.4530  -45.5100  -37.1580 O.3   488  ASO488     -0.2175
      9  O4         9.1630  -43.7930  -35.8250 O.3   488  ASO488     -0.2176
     10  O5         9.6800  -42.3590  -38.9260 O.3   488  ASO488     -0.3481
     11  O6        12.0280  -43.0960  -38.4120 O.3   488  ASO488     -0.2176
@<TRIPOS>BOND
     1     1     2    1
     2     1    10    1
     3     7     2    1
     4     2     3    1
     5    10     5    1
     6    11     6    1
     7     3     4    1
     8     3     8    1
     9     5     6    1
    10     5     4    1
    11     4     9    1
