@<TRIPOS>MOLECULE
3gur_BYG_A_1.pdb
 40 41 0 0 0
SMALL
GASTEIGER

@<TRIPOS>ATOM
      1  C1        12.0480   -2.6040   11.0020 C.2   218  BYG218      0.3819
      2  N1        11.7360   -2.2090   13.3580 N.3   218  BYG218     -0.1208
      3  S1         5.1230   -8.6280   13.7100 S.3   218  BYG218     -0.1256
      4  C2        10.4640   -9.6260   13.3060 C.2   218  BYG218      0.2626
      5  N2        10.7670   -7.2260   12.9830 N.am  218  BYG218     -0.1969
      6  O2         9.6590  -10.7750   13.1720 O.2   218  BYG218     -0.2714
      7  C3        13.2500  -11.4470   14.2170 C.2   218  BYG218      0.3865
      8  N3        11.7920   -9.6740   13.3650 N.am  218  BYG218     -0.1917
      9  CI         4.7470   -4.9620   14.5870 C.ar  218  BYG218      0.1627
     10  CL         5.4940   -6.2490   14.5960 C.ar  218  BYG218      0.1405
     11  O11       11.5610   -1.4820   10.7450 O.co2 218  BYG218     -0.2441
     12  O12       12.1280   -3.4560   10.0910 O.co2 218  BYG218     -0.2441
     13  O31       13.1120  -10.9330   15.3480 O.co2 218  BYG218     -0.2437
     14  O32       14.0010  -12.4390   14.0910 O.co2 218  BYG218     -0.2437
     15  CA1       12.5320   -2.9300   12.3840 C.3   218  BYG218      0.1948
     16  NA1        4.6990   -4.5580   15.8590 N.ar  218  BYG218     -0.0469
     17  CA2        9.8400   -8.2640   13.3900 C.3   218  BYG218      0.1834
     18  OA2        5.3260   -5.5430   16.6410 O.2   218  BYG218     -0.2418
     19  CA3       12.5220  -10.8790   13.0230 C.3   218  BYG218      0.2285
     20  NA3        5.8080   -6.6080   15.8470 N.ar  218  BYG218     -0.0509
     21  OA3        3.3150   -2.9430   11.6710 O.2   218  BYG218     -0.1261
     22  NA4        3.6430   -3.2290   12.9530 N.pl3 218  BYG218      0.0590
     23  OA4        3.2180   -2.2530   13.8040 O.2   218  BYG218     -0.1261
     24  OA5       10.7660   -8.8840   16.9720 O.3   218  BYG218     -0.2204
     25  CB1       12.3980   -4.4290   12.6280 C.3   218  BYG218      0.0402
     26  CB2        8.5940   -8.2220   12.5140 C.3   218  BYG218      0.0897
     27  CD1       10.8770   -6.0880   13.6630 C.2   218  BYG218      0.2418
     28  CE1        9.4180   -9.0540   16.5210 C.3   218  BYG218      0.1821
     29  OE1       10.9330   -6.0360   15.0710 O.2   218  BYG218     -0.2733
     30  CE2        8.7310  -10.1340   17.3620 C.3   218  BYG218      0.0355
     31  CE3        8.3050  -11.3860   16.6210 C.3   218  BYG218      0.0027
     32  CE4        7.0130  -11.0710   15.9180 C.3   218  BYG218      0.0010
     33  CE5        6.9590   -9.6000   15.5050 C.3   218  BYG218      0.0117
     34  CE6        5.5450   -9.0240   15.3710 C.3   218  BYG218      0.0587
     35  CF4        5.8360   -7.0760   13.3810 C.3   218  BYG218      0.1219
     36  CF5        5.2550   -6.4130   12.2310 C.3   218  BYG218      0.0538
     37  CF6        4.6040   -5.1750   12.2400 C.2   218  BYG218      0.0017
     38  CF7        4.2960   -4.3920   13.2940 C.2   218  BYG218      0.1608
     39  CG1       10.9410   -4.8190   12.8460 C.3   218  BYG218      0.0889
     40  SG2        7.4430   -6.8930   12.9050 S.3   218  BYG218     -0.1233
@<TRIPOS>BOND
     1    12     1   ar
     2    11     1   ar
     3     1    15    1
     4    21    22    2
     5    36    37    1
     6    36    35    1
     7    37    38    2
     8    15    25    1
     9    15     2    1
    10    26    40    1
    11    26    17    1
    12    25    39    1
    13    39    27    1
    14    40    35    1
    15    22    38    1
    16    22    23    2
    17     5    17    1
    18     5    27   am
    19    19     8    1
    20    19     7    1
    21     6     4    2
    22    38     9    1
    23     4     8   am
    24     4    17    1
    25    35     3    1
    26    35    10    1
    27    27    29    2
    28     3    34    1
    29    14     7   ar
    30     7    13   ar
    31     9    10   ar
    32     9    16   ar
    33    10    20   ar
    34    34    33    1
    35    33    32    1
    36    20    18   ar
    37    16    18   ar
    38    32    31    1
    39    28    24    1
    40    28    30    1
    41    31    30    1
