@<TRIPOS>MOLECULE
3gur_GSH_B_1.pdb
 20 19 0 0 0
SMALL
GASTEIGER

@<TRIPOS>ATOM
      1  N1        11.0910    8.8770   19.0700 N.3   218  GSH218     -0.1208
      2  CA1       11.2160   10.2620   19.2500 C.3   218  GSH218      0.1948
      3  C1        12.6140   10.6810   19.0630 C.2   218  GSH218      0.3819
      4  O11       13.4190    9.8570   18.7750 O.co2 218  GSH218     -0.2441
      5  O12       13.0430   11.7930   19.1470 O.co2 218  GSH218     -0.2441
      6  CB1       10.4660   10.5860   20.5090 C.3   218  GSH218      0.0402
      7  CG1       11.2250   10.9280   21.7370 C.3   218  GSH218      0.0889
      8  CD1       10.3050   10.9990   22.9100 C.2   218  GSH218      0.2418
      9  OE1        9.4260    9.9930   23.1740 O.2   218  GSH218     -0.2733
     10  N2        10.3830   12.0580   23.6600 N.am  218  GSH218     -0.1968
     11  CA2       10.2580   12.0450   25.0750 C.3   218  GSH218      0.1843
     12  C2         9.3690   13.1100   25.5270 C.2   218  GSH218      0.2627
     13  O2         9.4270   13.6310   26.7590 O.2   218  GSH218     -0.2714
     14  CB2       11.5910   12.1790   25.7630 C.3   218  GSH218      0.0997
     15  SG2       12.7380   10.8740   25.3440 S.3   218  GSH218     -0.0797
     16  N3         8.4970   13.5340   24.7030 N.am  218  GSH218     -0.1917
     17  CA3        7.7290   14.7150   24.8760 C.3   218  GSH218      0.2285
     18  C3         6.2520   14.5070   25.0160 C.2   218  GSH218      0.3865
     19  O31        5.6550   13.4660   24.9270 O.co2 218  GSH218     -0.2437
     20  O32        5.5360   15.4310   25.2590 O.co2 218  GSH218     -0.2437
@<TRIPOS>BOND
     1     4     3   ar
     2     3     5   ar
     3     3     2    1
     4     1     2    1
     5     2     6    1
     6     6     7    1
     7     7     8    1
     8     8     9    2
     9     8    10   am
    10    10    11    1
    11    16    17    1
    12    16    12   am
    13    17    18    1
    14    19    18   ar
    15    18    20   ar
    16    11    12    1
    17    11    14    1
    18    15    14    1
    19    12    13    2
