@<TRIPOS>MOLECULE
3gus_GSH_A_1.pdb
 20 19 0 0 0
SMALL
GASTEIGER

@<TRIPOS>ATOM
      1  N1        14.4640   10.5700   23.3360 N.3   210  GSH210     -0.1208
      2  CA1       14.3700    9.7240   24.4850 C.3   210  GSH210      0.1948
      3  C1        15.5310    8.7380   24.4990 C.2   210  GSH210      0.3819
      4  O11       16.0640    8.4530   23.4210 O.co2 210  GSH210     -0.2441
      5  O12       15.9130    8.3530   25.6020 O.co2 210  GSH210     -0.2441
      6  CB1       13.0410    9.0000   24.4930 C.3   210  GSH210      0.0402
      7  CG1       12.8430    8.3360   25.8210 C.3   210  GSH210      0.0889
      8  CD1       11.4310    7.8500   25.9810 C.2   210  GSH210      0.2418
      9  OE1       10.5730    7.9160   24.9510 O.2   210  GSH210     -0.2733
     10  N2        11.0990    7.3440   27.1550 N.am  210  GSH210     -0.1968
     11  CA2        9.8710    6.5700   27.4270 C.3   210  GSH210      0.1843
     12  C2         9.2670    7.1360   28.6870 C.2   210  GSH210      0.2627
     13  O2        10.0390    7.5010   29.6830 O.2   210  GSH210     -0.2714
     14  CB2       10.4280    5.2220   27.6110 C.3   210  GSH210      0.0997
     15  SG2       11.4800    4.6010   26.2800 S.3   210  GSH210     -0.0797
     16  N3         7.9930    7.2740   28.8360 N.am  210  GSH210     -0.1917
     17  CA3        7.3880    7.6470   30.1030 C.3   210  GSH210      0.2285
     18  C3         6.7970    9.0310   30.1120 C.2   210  GSH210      0.3865
     19  O31        6.9400    9.7720   29.1570 O.co2 210  GSH210     -0.2437
     20  O32        6.1760    9.4180   31.1000 O.co2 210  GSH210     -0.2437
@<TRIPOS>BOND
     1     1     2    1
     2     4     3   ar
     3     2     6    1
     4     2     3    1
     5     6     7    1
     6     3     5   ar
     7     9     8    2
     8     7     8    1
     9     8    10   am
    10    15    14    1
    11    10    11    1
    12    11    14    1
    13    11    12    1
    14    12    16   am
    15    12    13    2
    16    16    17    1
    17    19    18   ar
    18    17    18    1
    19    18    20   ar
