@<TRIPOS>MOLECULE
3gus_N11_A_1.pdb
 20 21 0 0 0
SMALL
GASTEIGER

@<TRIPOS>ATOM
      1  OA5        1.9180    6.1580   32.8910 O.3   211  N11211     -0.2204
      2  CE1        2.4840    5.1660   32.0260 C.3   211  N11211      0.1821
      3  CE2        3.9230    5.5470   31.6970 C.3   211  N11211      0.0355
      4  CE3        4.5510    4.5520   30.7290 C.3   211  N11211      0.0027
      5  CE4        5.5370    3.6440   31.4530 C.3   211  N11211      0.0010
      6  CE5        6.5650    3.0720   30.4850 C.3   211  N11211      0.0120
      7  CE6        6.3030    1.5950   30.2080 C.3   211  N11211      0.0622
      8  S1         7.5060    0.9370   29.0960 S.3   211  N11211     -0.1120
      9  CF4        7.6960    1.8900   27.7030 C.ar  211  N11211      0.0478
     10  CL         6.5560    2.6660   27.1260 C.ar  211  N11211      0.1504
     11  NA3        5.2580    2.8150   27.4830 N.ar  211  N11211     -0.0477
     12  OA2        4.7190    3.7060   26.5020 O.2   211  N11211     -0.2415
     13  NA1        5.6770    4.1200   25.5270 N.ar  211  N11211     -0.0465
     14  CI         6.8150    3.4890   25.9030 C.ar  211  N11211      0.1659
     15  CF5        8.9470    1.9380   27.0910 C.ar  211  N11211      0.0096
     16  CF6        9.1770    2.6950   25.9390 C.ar  211  N11211      0.0263
     17  CF7        8.1850    3.4670   25.3270 C.ar  211  N11211      0.1653
     18  NA4        8.4670    4.2280   24.1820 N.pl3 211  N11211      0.0593
     19  OA4        7.4850    5.0590   23.6390 O.2   211  N11211     -0.1261
     20  OA3        9.7300    4.1720   23.5950 O.2   211  N11211     -0.1261
@<TRIPOS>BOND
     1    20    18    2
     2    19    18    2
     3    18    17    1
     4    17    14   ar
     5    17    16   ar
     6    13    14   ar
     7    13    12   ar
     8    14    10   ar
     9    16    15   ar
    10    12    11   ar
    11    15     9   ar
    12    10    11   ar
    13    10     9   ar
    14     9     8    1
    15     8     7    1
    16     7     6    1
    17     6     5    1
    18     4     5    1
    19     4     3    1
    20     3     2    1
    21     2     1    1
