@<TRIPOS>MOLECULE
3guz_PAF_A_1.pdb
 10 9 0 0 0
SMALL
GASTEIGER

@<TRIPOS>ATOM
      1  O1        10.7970  -12.2620    0.3240 O.co2 177  PAF177     -0.2428
      2  C1        10.2210  -11.9000   -0.7230 C.2   177  PAF177      0.3947
      3  O2         9.0580  -11.4290   -0.8090 O.co2 177  PAF177     -0.2428
      4  C2        11.0630  -11.9320   -1.9960 C.3   177  PAF177      0.2562
      5  O3        10.8930  -10.6780   -2.6850 O.3   177  PAF177     -0.2108
      6  C3        10.7810  -13.1240   -2.9290 C.3   177  PAF177      0.0695
      7  C4        11.0140  -14.4470   -2.1540 C.3   177  PAF177      0.0057
      8  C5         9.3140  -13.0570   -3.5090 C.3   177  PAF177      0.0057
      9  C6        11.7240  -13.0270   -4.1610 C.3   177  PAF177      0.1850
     10  O4        13.1430  -12.9540   -3.8010 O.3   177  PAF177     -0.2203
@<TRIPOS>BOND
     1     9    10    1
     2     9     6    1
     3     8     6    1
     4     6     7    1
     5     6     4    1
     6     5     4    1
     7     4     2    1
     8     3     2   ar
     9     2     1   ar
