@<TRIPOS>MOLECULE
3gv4_III_H_1.pdb
 28 27 0 0 0
SMALL
GASTEIGER

@<TRIPOS>ATOM
      1  N         -3.3760    5.0470    0.0940 N.3    73  LEU73      -0.1231
      2  CA        -4.0780    3.7780    0.4450 C.3    73  LEU73       0.1693
      3  C         -5.5500    3.9250    0.8890 C.2    73  LEU73       0.2592
      4  O         -6.1630    2.9580    1.3390 O.2    73  LEU73      -0.2718
      5  CB        -3.2580    2.9690    1.4660 C.3    73  LEU73       0.0284
      6  CG        -3.0980    3.2830    2.9580 C.3    73  LEU73       0.0019
      7  CD1       -4.3910    3.6670    3.5940 C.3    73  LEU73       0.0001
      8  CD2       -2.5490    2.0310    3.6310 C.3    73  LEU73       0.0001
      9  N         -6.1180    5.1240    0.7770 N.am   74  ARG74      -0.1966
     10  CA        -7.5800    5.2700    0.7570 C.3    74  ARG74       0.1729
     11  C         -8.0700    4.7280   -0.5900 C.2    74  ARG74       0.2617
     12  O         -7.4810    5.0250   -1.6200 O.2    74  ARG74      -0.2715
     13  CB        -7.9870    6.7440    0.9140 C.3    74  ARG74       0.0348
     14  CG        -7.4810    7.4430    2.2030 C.3    74  ARG74       0.0492
     15  CD        -8.1160    6.8500    3.4540 C.3    74  ARG74       0.2205
     16  NE        -9.4740    7.3550    3.6800 N.pl3  74  ARG74      -0.0865
     17  CZ       -10.1940    7.1050    4.7720 C.cat  74  ARG74       0.5346
     18  NH1       -9.7050    6.3240    5.7320 N.pl3  74  ARG74       0.1354
     19  NH2      -11.4150    7.6280    4.8950 N.pl3  74  ARG74       0.1354
     20  N         -9.1160    3.9100   -0.5910 N.am   75  GLY75      -0.1940
     21  CA        -9.6410    3.3660   -1.8540 C.3    75  GLY75       0.2014
     22  C        -10.5370    4.3540   -2.5880 C.2    75  GLY75       0.2640
     23  O        -10.9260    5.3950   -2.0360 O.2    75  GLY75      -0.2714
     24  N        -10.8630    4.0390   -3.8420 N.am   76  GLY76      -0.1917
     25  CA       -11.7820    4.8710   -4.5980 C.3    76  GLY76       0.2285
     26  C        -11.1710    6.1140   -5.2160 C.2    76  GLY76       0.3865
     27  O        -11.9090    7.0050   -5.6250 O.co2  76  GLY76      -0.2437
     28  OXT       -9.9440    6.2390   -5.3120 O.co2  76  GLY76      -0.2437
@<TRIPOS>BOND
     1    27    26   ar
     2    28    26   ar
     3    26    25    1
     4    25    24    1
     5    24    22   am
     6    22    23    2
     7    22    21    1
     8    21    20    1
     9    12    11    2
    10    20    11   am
    11    11    10    1
    12     1     2    1
    13     2     3    1
    14     2     5    1
    15    10     9    1
    16    10    13    1
    17     9     3   am
    18     3     4    2
    19    13    14    1
    20     5     6    1
    21    14    15    1
    22     6     7    1
    23     6     8    1
    24    15    16    1
    25    16    17    2
    26    17    19    1
    27    17    18    1
