@<TRIPOS>MOLECULE
3gv5_ADI_B_1.pdb
 25 27 0 0 0
SMALL
GASTEIGER

@<TRIPOS>ATOM
      1  PB        70.6880   59.9800   36.2500 P.3   425  ADI425      0.5373
      2  O1B       69.6130   59.0750   36.8260 O.3   425  ADI425     -0.1143
      3  O2B       70.9070   59.7620   34.7660 O.2   425  ADI425     -0.2221
      4  O3B       70.5690   61.4410   36.6330 O.3   425  ADI425     -0.1143
      5  PA        73.2180   60.1000   37.7740 P.3   425  ADI425      0.2231
      6  O1A       73.6380   61.3860   37.1280 O.2   425  ADI425     -0.5169
      7  O2A       74.3170   59.0850   37.8830 O.3   425  ADI425     -0.4370
      8  O3A       72.0340   59.3700   36.9360 O.3   425  ADI425     -0.2261
      9  O5'       72.4670   60.3210   39.1850 O.3   425  ADI425     -0.3112
     10  C5'       73.0460   60.9550   40.3240 C.3   425  ADI425      0.1786
     11  C4'       73.9720   60.0610   41.1760 C.3   425  ADI425      0.1493
     12  O4'       74.1780   60.6280   42.4840 O.3   425  ADI425     -0.3183
     13  C3'       73.5510   58.6320   41.4940 C.3   425  ADI425      0.0392
     14  C2'       74.3330   58.3400   42.7750 C.3   425  ADI425      0.0823
     15  C1'       74.9390   59.6910   43.2130 C.3   425  ADI425      0.2847
     16  N9        74.7970   59.7550   44.6920 N.pl3 425  ADI425     -0.1461
     17  C8        75.8030   59.6170   45.5840 C.3   425  ADI425      0.3377
     18  N7        75.3440   59.6500   46.8590 N.2   425  ADI425     -0.2095
     19  C5        74.0130   59.7930   46.7840 C.2   425  ADI425      0.2526
     20  C6        72.8900   59.8940   47.7380 C.2   425  ADI425      0.4393
     21  N6        73.1250   59.8480   49.0680 N.pl3 425  ADI425      0.2180
     22  N1        71.6320   60.0360   47.2450 N.2   425  ADI425      0.0021
     23  C2        71.3690   60.0840   45.9230 C.3   425  ADI425      0.5254
     24  N3        72.3410   60.0100   44.9910 N.2   425  ADI425     -0.0055
     25  C4        73.6510   59.8610   45.3520 C.2   425  ADI425      0.3518
@<TRIPOS>BOND
     1     3     1    2
     2     1     4    1
     3     1     2    1
     4     1     8    1
     5     8     5    1
     6     6     5    2
     7     5     7    1
     8     5     9    1
     9     9    10    1
    10    10    11    1
    11    11    13    1
    12    11    12    1
    13    13    14    1
    14    12    15    1
    15    14    15    1
    16    15    16    1
    17    16    25    1
    18    16    17    1
    19    24    25    2
    20    24    23    1
    21    25    19    1
    22    17    18    1
    23    23    22    1
    24    19    18    2
    25    19    20    1
    26    22    20    2
    27    20    21    1
