@<TRIPOS>MOLECULE
3gv7_TTP_B_1.pdb
 29 30 0 0 0
SMALL
GASTEIGER

@<TRIPOS>ATOM
      1  PA         2.7530  -21.8750  -15.3080 P.3   421  TTP421      0.2189
      2  O1A        1.9690  -22.8540  -14.4610 O.3   421  TTP421     -0.4371
      3  O2A        3.9660  -21.2440  -14.6160 O.2   421  TTP421     -0.5170
      4  O3A        1.7600  -20.6780  -15.7100 O.3   421  TTP421     -0.2700
      5  PB         2.1750  -19.2680  -16.3450 P.3   421  TTP421      0.2277
      6  O1B        3.6660  -18.9430  -16.4680 O.3   421  TTP421     -0.4368
      7  O2B        1.4320  -19.1990  -17.6610 O.2   421  TTP421     -0.5168
      8  O3B        1.4000  -18.2000  -15.3800 O.3   421  TTP421     -0.2258
      9  PG         1.9480  -17.6990  -13.9530 P.3   421  TTP421      0.5373
     10  O1G        3.2310  -18.4070  -13.5620 O.3   421  TTP421     -0.1143
     11  O2G        2.2020  -16.2060  -13.9880 O.2   421  TTP421     -0.2221
     12  O3G        0.8730  -18.0550  -12.9580 O.3   421  TTP421     -0.1143
     13  O5'        3.1460  -22.5620  -16.7260 O.3   421  TTP421     -0.3112
     14  C5'        4.1780  -22.0490  -17.5890 C.3   421  TTP421      0.1812
     15  C4'        3.7830  -22.3130  -19.0470 C.3   421  TTP421      0.1773
     16  O4'        3.5200  -23.7120  -19.2500 O.3   421  TTP421     -0.3339
     17  C3'        2.4570  -21.6300  -19.3480 C.3   421  TTP421      0.1857
     18  O3'        2.6640  -20.3310  -19.8960 O.3   421  TTP421     -0.2203
     19  C2'        1.6720  -22.5770  -20.2630 C.3   421  TTP421      0.0874
     20  C1'        2.3650  -23.9300  -20.0870 C.3   421  TTP421      0.2090
     21  N1         1.4540  -24.9710  -19.5590 N.am  421  TTP421     -0.1794
     22  C2         0.7270  -25.7930  -20.4740 C.1   421  TTP421      0.2844
     23  O2         0.8670  -25.6120  -21.7070 O.2   421  TTP421     -0.1918
     24  N3        -0.1270  -26.7530  -20.0680 N.2   421  TTP421     -0.2455
     25  C4        -0.2830  -26.9810  -18.7480 C.1   421  TTP421      0.2134
     26  O4        -1.0480  -27.8780  -18.3390 O.2   421  TTP421     -0.2088
     27  C5         0.4480  -26.1500  -17.7650 C.2   421  TTP421      0.0891
     28  C5M        0.2670  -26.3840  -16.2960 C.3   421  TTP421      0.0462
     29  C6         1.3100  -25.1590  -18.2350 C.2   421  TTP421      0.0877
@<TRIPOS>BOND
     1    23    22    2
     2    22    24    2
     3    22    21   am
     4    19    20    1
     5    19    17    1
     6    20    21    1
     7    20    16    1
     8    24    25    2
     9    18    17    1
    10    21    29    1
    11    17    15    1
    12    16    15    1
    13    15    14    1
    14    25    26    2
    15    25    27    1
    16    29    27    2
    17    27    28    1
    18     7     5    2
    19    14    13    1
    20    13     1    1
    21     6     5    1
    22     5     4    1
    23     5     8    1
    24     4     1    1
    25     8     9    1
    26     1     3    2
    27     1     2    1
    28    11     9    2
    29     9    10    1
    30     9    12    1
