@<TRIPOS>MOLECULE
3gv8_DGT_B_1.pdb
 31 33 0 0 0
SMALL
GASTEIGER

@<TRIPOS>ATOM
      1  PG         2.1600  -17.9540  -14.0220 P.3   421  DGT421      0.5373
      2  O1G        2.3770  -16.4770  -14.2330 O.2   421  DGT421     -0.2221
      3  O2G        3.4730  -18.6190  -13.5630 O.3   421  DGT421     -0.1143
      4  O3G        1.1330  -18.2220  -12.9470 O.3   421  DGT421     -0.1143
      5  O3B        1.5770  -18.5850  -15.3970 O.3   421  DGT421     -0.2258
      6  PB         2.4220  -19.5360  -16.4160 P.3   421  DGT421      0.2277
      7  O1B        3.8970  -19.1940  -16.6350 O.3   421  DGT421     -0.4368
      8  O2B        1.6410  -19.5680  -17.7510 O.2   421  DGT421     -0.5168
      9  O3A        2.1620  -20.9820  -15.7920 O.3   421  DGT421     -0.2700
     10  PA         3.1900  -22.0970  -15.2930 P.3   421  DGT421      0.2189
     11  O1A        2.3420  -23.1030  -14.5160 O.3   421  DGT421     -0.4371
     12  O2A        4.4390  -21.5060  -14.6070 O.2   421  DGT421     -0.5170
     13  O5'        3.6030  -22.8170  -16.6560 O.3   421  DGT421     -0.3112
     14  C5'        2.6780  -22.7110  -17.6770 C.3   421  DGT421      0.1812
     15  C4'        3.4730  -22.4050  -18.9350 C.3   421  DGT421      0.1772
     16  O4'        3.8700  -23.6530  -19.4850 O.3   421  DGT421     -0.3347
     17  C3'        2.4500  -21.7350  -19.8060 C.3   421  DGT421      0.1857
     18  O3'        2.9990  -20.5170  -20.3370 O.3   421  DGT421     -0.2203
     19  C2'        1.9780  -22.9040  -20.6940 C.3   421  DGT421      0.0865
     20  C1'        2.7760  -24.1530  -20.2290 C.3   421  DGT421      0.1981
     21  N9         1.9780  -25.1220  -19.4250 N.pl3 421  DGT421     -0.2374
     22  C8         1.9090  -25.2560  -18.0420 C.3   421  DGT421      0.2245
     23  N7         1.0550  -26.2510  -17.6940 N.2   421  DGT421     -0.2322
     24  C5         0.5650  -26.7630  -18.8300 C.2   421  DGT421      0.2182
     25  C6        -0.3430  -27.7980  -19.0540 C.1   421  DGT421      0.2372
     26  O6        -0.8380  -28.4200  -18.1030 O.2   421  DGT421     -0.2069
     27  N1        -0.6620  -28.1160  -20.3640 N.2   421  DGT421     -0.2485
     28  C2        -0.0880  -27.4160  -21.4260 C.1   421  DGT421      0.2531
     29  N2        -0.4030  -27.7310  -22.6870 N.pl3 421  DGT421     -0.0226
     30  N3         0.8140  -26.3970  -21.2010 N.2   421  DGT421     -0.3074
     31  C4         1.1310  -26.0690  -19.9200 C.2   421  DGT421      0.2299
@<TRIPOS>BOND
     1    29    28    1
     2    28    30    2
     3    28    27    2
     4    30    31    2
     5    19    20    1
     6    19    17    1
     7    27    25    2
     8    18    17    1
     9    20    16    1
    10    20    21    1
    11    31    21    1
    12    31    24    1
    13    17    15    1
    14    16    15    1
    15    21    22    1
    16    25    24    1
    17    25    26    2
    18    15    14    1
    19    24    23    2
    20    22    23    1
    21     8     6    2
    22    14    13    1
    23    13    10    1
    24     7     6    1
    25     6     9    1
    26     6     5    1
    27     9    10    1
    28     5     1    1
    29    10    12    2
    30    10    11    1
    31     2     1    2
    32     1     3    1
    33     1     4    1
