@<TRIPOS>MOLECULE
3gv9_GV9_A_1.pdb
 12 12 0 0 0
SMALL
GASTEIGER

@<TRIPOS>ATOM
      1  O11      -34.7700    5.4140   13.1710 O.2     1  GV91       -0.2730
      2  C10      -35.1090    4.3990   13.7540 C.2     1  GV91        0.2461
      3  C12      -35.4310    3.1390   13.0060 C.3     1  GV91        0.0968
      4  N9       -35.2120    4.3220   15.0820 N.am    1  GV91       -0.1785
      5  C3       -35.2950    5.4090   15.8870 C.ar    1  GV91        0.0863
      6  C4       -35.5620    6.7710   15.6670 C.ar    1  GV91        0.0243
      7  C5       -35.5530    7.5640   16.8210 C.ar    1  GV91        0.0370
      8  S1       -35.2020    6.5610   18.2030 S.2     1  GV91       -0.0786
      9  C2       -35.0620    5.0960   17.3140 C.ar    1  GV91        0.1245
     10  C6       -34.7550    3.7910   17.9590 C.2     1  GV91        0.3949
     11  O7       -34.5680    2.8110   17.2160 O.co2   1  GV91       -0.2399
     12  O8       -34.6960    3.7050   19.2040 O.co2   1  GV91       -0.2399
@<TRIPOS>BOND
     1     3     2    1
     2     1     2    2
     3     2     4   am
     4     4     5    1
     5     6     5   ar
     6     6     7   ar
     7     5     9   ar
     8     7     8   ar
     9    11    10   ar
    10     9    10    1
    11     9     8   ar
    12    10    12   ar
