@<TRIPOS>MOLECULE
3gvb_3GV_A_1.pdb
 16 17 0 0 0
SMALL
GASTEIGER

@<TRIPOS>ATOM
      1  O13       10.6950   45.9040   27.6200 O.2     1  3GV1       -0.2745
      2  C9        11.6200   45.6950   26.8510 C.2     1  3GV1        0.2300
      3  C10       11.6820   46.2100   25.4390 C.3     1  3GV1        0.0986
      4  N8        12.7120   44.9870   27.0890 N.am    1  3GV1       -0.2553
      5  C12       13.6140   44.7690   25.9690 C.3     1  3GV1        0.1100
      6  C11       12.8010   45.3730   24.8190 C.3     1  3GV1        0.1325
      7  C14       12.2160   44.2710   23.9810 C.2     1  3GV1        0.3665
      8  O15       11.0200   43.9420   24.1510 O.co2   1  3GV1       -0.2456
      9  O16       12.9500   43.7150   23.1350 O.co2   1  3GV1       -0.2456
     10  C4        12.9990   44.4750   28.3680 C.ar    1  3GV1        0.0930
     11  C5        13.0000   43.1020   28.6060 C.ar    1  3GV1        0.2092
     12  O7        12.7250   42.2200   27.6050 O.3     1  3GV1       -0.2852
     13  C6        13.2900   42.6120   29.8790 C.ar    1  3GV1        0.0433
     14  C1        13.5740   43.4910   30.9220 C.ar    1  3GV1        0.0034
     15  C2        13.5730   44.8650   30.6890 C.ar    1  3GV1        0.0015
     16  C3        13.2880   45.3550   29.4140 C.ar    1  3GV1        0.0182
@<TRIPOS>BOND
     1     9     7   ar
     2     7     8   ar
     3     7     6    1
     4     6     3    1
     5     6     5    1
     6     3     2    1
     7     5     4    1
     8     2     4   am
     9     2     1    2
    10     4    10    1
    11    12    11    1
    12    10    11   ar
    13    10    16   ar
    14    11    13   ar
    15    16    15   ar
    16    13    14   ar
    17    15    14   ar
