@<TRIPOS>MOLECULE
3gvh_NAD_A_1.pdb
 44 48 0 0 0
SMALL
GASTEIGER

@<TRIPOS>ATOM
      1  PA        -3.2180   -5.8740   25.9930 P.3   400  NAD400      0.2189
      2  O1A       -1.7630   -6.2810   25.8610 O.2   400  NAD400     -0.5170
      3  O2A       -3.6340   -4.4200   26.1240 O.3   400  NAD400     -0.4371
      4  O5B       -3.7670   -6.8360   27.1510 O.3   400  NAD400     -0.3112
      5  C5B       -2.8840   -7.7870   27.7390 C.3   400  NAD400      0.1813
      6  C4B       -3.0180   -7.7170   29.2590 C.3   400  NAD400      0.1821
      7  O4B       -2.6380   -8.9610   29.8690 O.3   400  NAD400     -0.3135
      8  C3B       -2.1340   -6.6470   29.8740 C.3   400  NAD400      0.2184
      9  O3B       -2.9350   -5.8320   30.7220 O.3   400  NAD400     -0.2174
     10  C2B       -1.0890   -7.4080   30.6720 C.3   400  NAD400      0.2570
     11  O2B       -0.6330   -6.6920   31.8310 O.3   400  NAD400     -0.2130
     12  C1B       -1.8080   -8.7140   31.0010 C.3   400  NAD400      0.3186
     13  N9A       -0.8800   -9.8500   31.2610 N.pl3 400  NAD400     -0.1439
     14  C8A        0.3200  -10.0930   30.7020 C.3   400  NAD400      0.3377
     15  N7A        0.8260  -11.2310   31.2380 N.2   400  NAD400     -0.2095
     16  C5A       -0.0660  -11.7020   32.1410 C.2   400  NAD400      0.2526
     17  C6A       -0.1040  -12.8140   32.9840 C.2   400  NAD400      0.4393
     18  N6A        0.9160  -13.7050   33.0300 N.pl3 400  NAD400      0.2180
     19  N1A       -1.1660  -13.0030   33.7740 N.2   400  NAD400      0.0021
     20  C2A       -2.1760  -12.1250   33.7590 C.3   400  NAD400      0.5254
     21  N3A       -2.1820  -11.0400   32.9770 N.2   400  NAD400     -0.0055
     22  C4A       -1.1350  -10.8190   32.1490 C.2   400  NAD400      0.3518
     23  O3        -3.9420   -6.4580   24.6750 O.3   400  NAD400     -0.2703
     24  PN        -5.5370   -6.4620   24.4530 P.3   400  NAD400      0.2189
     25  O1N       -5.8440   -5.4870   23.3420 O.2   400  NAD400     -0.5170
     26  O2N       -6.2450   -6.2660   25.7770 O.3   400  NAD400     -0.4371
     27  O5D       -5.7400   -7.9940   23.9000 O.3   400  NAD400     -0.3112
     28  C5D       -4.9980   -9.0830   24.4510 C.3   400  NAD400      0.1813
     29  C4D       -4.9520  -10.3720   23.6090 C.3   400  NAD400      0.1799
     30  O4D       -6.1050  -10.5150   22.7760 O.3   400  NAD400     -0.3327
     31  C3D       -3.7540  -10.4560   22.6610 C.3   400  NAD400      0.2158
     32  O3D       -3.1430  -11.7400   22.8440 O.3   400  NAD400     -0.2175
     33  C2D       -4.3400  -10.3130   21.2530 C.3   400  NAD400      0.2309
     34  O2D       -3.6290  -10.9900   20.1990 O.3   400  NAD400     -0.2158
     35  C1D       -5.7210  -10.9210   21.4370 C.3   400  NAD400      0.2263
     36  N1N       -6.7230  -10.5980   20.3870 N.pl3 400  NAD400     -0.2787
     37  C2N       -7.4860  -11.6230   19.9740 C.3   400  NAD400      0.1244
     38  C3N       -8.4900  -11.5150   19.0180 C.2   400  NAD400      0.0544
     39  C7N       -9.2520  -12.7740   18.6670 C.2   400  NAD400      0.2818
     40  O7N      -10.2030  -12.8140   17.9110 O.2   400  NAD400     -0.2670
     41  N7N       -8.8560  -13.9020   19.2330 N.am  400  NAD400     -0.0839
     42  C4N       -8.6980  -10.2710   18.4590 C.2   400  NAD400      0.0033
     43  C5N       -7.8900   -9.2050   18.8860 C.2   400  NAD400      0.0157
     44  C6N       -6.9030   -9.3910   19.8570 C.2   400  NAD400      0.0633
@<TRIPOS>BOND
     1    40    39    2
     2    42    43    1
     3    42    38    2
     4    39    38    1
     5    39    41   am
     6    43    44    2
     7    38    37    1
     8    44    36    1
     9    37    36    1
    10    34    33    1
    11    36    35    1
    12    33    35    1
    13    33    31    1
    14    35    30    1
    15    31    32    1
    16    31    29    1
    17    30    29    1
    18    25    24    2
    19    29    28    1
    20    27    28    1
    21    27    24    1
    22    24    23    1
    23    24    26    1
    24    23     1    1
    25     2     1    2
    26     1     3    1
    27     1     4    1
    28     4     5    1
    29     5     6    1
    30     6     7    1
    31     6     8    1
    32     7    12    1
    33     8    10    1
    34     8     9    1
    35    10    12    1
    36    10    11    1
    37    14    15    1
    38    14    13    1
    39    12    13    1
    40    15    16    2
    41    13    22    1
    42    16    22    1
    43    16    17    1
    44    22    21    2
    45    21    20    1
    46    17    18    1
    47    17    19    2
    48    20    19    1
