@<TRIPOS>MOLECULE
3gvi_ADP_A_1.pdb
 27 29 0 0 0
SMALL
GASTEIGER

@<TRIPOS>ATOM
      1  PB        31.0170   23.4750   41.1060 P.3   401  ADP401      0.5373
      2  O1B       29.8630   23.1440   42.0360 O.3   401  ADP401     -0.1143
      3  O2B       30.6230   23.4010   39.6570 O.2   401  ADP401     -0.2221
      4  O3B       31.7400   24.7620   41.3510 O.3   401  ADP401     -0.1143
      5  PA        33.6850   22.3500   41.4400 P.3   401  ADP401      0.2231
      6  O1A       34.2150   23.2020   40.3460 O.2   401  ADP401     -0.5169
      7  O2A       34.1060   20.9350   41.5080 O.3   401  ADP401     -0.4370
      8  O3A       32.0880   22.2910   41.4350 O.3   401  ADP401     -0.2261
      9  O5'       34.0040   23.1580   42.7940 O.3   401  ADP401     -0.3111
     10  C5'       33.8350   22.5980   44.0810 C.3   401  ADP401      0.1813
     11  C4'       34.8450   23.2990   44.9920 C.3   401  ADP401      0.1821
     12  O4'       34.6520   22.9180   46.3560 O.3   401  ADP401     -0.3135
     13  C3'       36.2860   22.9530   44.6460 C.3   401  ADP401      0.2184
     14  O3'       36.9610   24.1880   44.4440 O.3   401  ADP401     -0.2174
     15  C2'       36.8270   22.2390   45.8740 C.3   401  ADP401      0.2570
     16  O2'       38.1840   22.5950   46.1530 O.3   401  ADP401     -0.2130
     17  C1'       35.9030   22.7630   46.9600 C.3   401  ADP401      0.3186
     18  N9        35.8080   21.8900   48.1320 N.pl3 401  ADP401     -0.1439
     19  C8        35.7870   20.5380   48.1870 C.3   401  ADP401      0.3377
     20  N7        35.7170   20.1130   49.4750 N.2   401  ADP401     -0.2095
     21  C5        35.7050   21.2100   50.2290 C.2   401  ADP401      0.2526
     22  C6        35.6560   21.4820   51.6470 C.2   401  ADP401      0.4393
     23  N6        35.5810   20.4350   52.4650 N.pl3 401  ADP401      0.2180
     24  N1        35.6440   22.7490   52.0690 N.2   401  ADP401      0.0021
     25  C2        35.7050   23.7750   51.2250 C.3   401  ADP401      0.5254
     26  N3        35.7650   23.5930   49.9020 N.2   401  ADP401     -0.0055
     27  C4        35.7710   22.3650   49.3610 C.2   401  ADP401      0.3518
@<TRIPOS>BOND
     1     3     1    2
     2     6     5    2
     3     1     4    1
     4     1     8    1
     5     1     2    1
     6     8     5    1
     7     5     7    1
     8     5     9    1
     9     9    10    1
    10    10    11    1
    11    14    13    1
    12    13    11    1
    13    13    15    1
    14    11    12    1
    15    15    16    1
    16    15    17    1
    17    12    17    1
    18    17    18    1
    19    18    19    1
    20    18    27    1
    21    19    20    1
    22    27    26    2
    23    27    21    1
    24    20    21    2
    25    26    25    1
    26    21    22    1
    27    25    24    1
    28    22    24    2
    29    22    23    1
