@<TRIPOS>MOLECULE
3gvj_SIA_A_1.pdb
 20 20 0 0 0
SMALL
GASTEIGER

@<TRIPOS>ATOM
      1  C1        48.3520   -5.5730  -18.0140 C.2   2002  SIA2002     0.3914
      2  C2        47.5770   -4.8690  -19.1090 C.3   2002  SIA2002     0.2203
      3  C3        46.2960   -5.6220  -19.4940 C.3   2002  SIA2002     0.0760
      4  C4        45.2460   -5.5620  -18.3860 C.3   2002  SIA2002     0.1773
      5  C5        44.9480   -4.1070  -18.0320 C.3   2002  SIA2002     0.1552
      6  C6        46.2540   -3.3960  -17.6680 C.3   2002  SIA2002     0.1710
      7  C7        46.0100   -1.9130  -17.3890 C.3   2002  SIA2002     0.2134
      8  C8        47.1570   -1.2400  -16.6190 C.3   2002  SIA2002     0.2173
      9  C9        48.5430   -1.5030  -17.2080 C.3   2002  SIA2002     0.2175
     10  C10       42.8670   -3.7920  -16.7930 C.2   2002  SIA2002     0.2420
     11  C11       42.2020   -3.8470  -15.4530 C.3   2002  SIA2002     0.0964
     12  N5        44.1580   -4.1190  -16.8050 N.am  2002  SIA2002    -0.2020
     13  O1A       49.0350   -4.8800  -17.2190 O.co2 2002  SIA2002    -0.2430
     14  O1B       48.3070   -6.8260  -17.9310 O.co2 2002  SIA2002    -0.2430
     15  O4        44.0580   -6.2310  -18.8170 O.3   2002  SIA2002    -0.2211
     16  O6        47.2270   -3.5240  -18.7200 O.3   2002  SIA2002    -0.3429
     17  O7        45.7860   -1.1970  -18.6060 O.3   2002  SIA2002    -0.2176
     18  O8        46.9060    0.1780  -16.5300 O.3   2002  SIA2002    -0.2175
     19  O9        48.6720   -0.7860  -18.4280 O.3   2002  SIA2002    -0.2175
     20  O10       42.2610   -3.4920  -17.8130 O.2   2002  SIA2002    -0.2733
@<TRIPOS>BOND
     1     3     2    1
     2     3     4    1
     3     2    16    1
     4     2     1    1
     5    15     4    1
     6    16     6    1
     7    17     7    1
     8    19     9    1
     9     4     5    1
    10     5     6    1
    11     5    12    1
    12     1    14   ar
    13     1    13   ar
    14    20    10    2
    15     6     7    1
    16     7     8    1
    17     9     8    1
    18    12    10   am
    19    10    11    1
    20     8    18    1
