@<TRIPOS>MOLECULE
3gvj_SLB_A_1.pdb
 21 21 0 0 0
SMALL
GASTEIGER

@<TRIPOS>ATOM
      1  C1        78.2880   40.6750  -56.3060 C.2   2009  SLB2009     0.4179
      2  C2        77.9680   39.3790  -55.6040 C.3   2009  SLB2009     0.3155
      3  C3        78.5020   38.0550  -56.1830 C.3   2009  SLB2009     0.1056
      4  C4        78.3020   36.8460  -55.2810 C.3   2009  SLB2009     0.1798
      5  C5        77.1430   36.9980  -54.2960 C.3   2009  SLB2009     0.1554
      6  C6        77.2770   38.2820  -53.4670 C.3   2009  SLB2009     0.1734
      7  C7        76.0940   38.4890  -52.5140 C.3   2009  SLB2009     0.2135
      8  C8        76.0880   39.8270  -51.7580 C.3   2009  SLB2009     0.2173
      9  C9        75.8890   41.0690  -52.6340 C.3   2009  SLB2009     0.2175
     10  C10       75.9710   35.1070  -53.2330 C.2   2009  SLB2009     0.2420
     11  C11       76.1340   33.8740  -52.3860 C.3   2009  SLB2009     0.0964
     12  N5        77.0980   35.7860  -53.4810 N.am  2009  SLB2009    -0.2020
     13  O1A       77.9390   41.7460  -55.7600 O.co2 2009  SLB2009    -0.2401
     14  O1B       78.8860   40.6370  -57.4060 O.co2 2009  SLB2009    -0.2401
     15  O2        79.2470   39.5200  -54.9560 O.3   2009  SLB2009    -0.1830
     16  O4        78.0700   35.7110  -56.1210 O.3   2009  SLB2009    -0.2210
     17  O6        77.3590   39.4540  -54.2980 O.3   2009  SLB2009    -0.3220
     18  O7        74.8570   38.3140  -53.2230 O.3   2009  SLB2009    -0.2176
     19  O8        75.0100   39.7870  -50.8160 O.3   2009  SLB2009    -0.2175
     20  O9        75.6740   42.2490  -51.8430 O.3   2009  SLB2009    -0.2175
     21  O10       74.8720   35.4530  -53.6570 O.2   2009  SLB2009    -0.2733
@<TRIPOS>BOND
     1    14     1   ar
     2     1    13   ar
     3     1     2    1
     4     3     2    1
     5     3     4    1
     6    16     4    1
     7     2    15    1
     8     2    17    1
     9     4     5    1
    10    17     6    1
    11     5    12    1
    12     5     6    1
    13    21    10    2
    14    12    10   am
    15     6     7    1
    16    10    11    1
    17    18     7    1
    18     9    20    1
    19     9     8    1
    20     7     8    1
    21     8    19    1
