@<TRIPOS>MOLECULE
3gvk_SIA_A_1.pdb
 20 20 0 0 0
SMALL
GASTEIGER

@<TRIPOS>ATOM
      1  C1        -1.0570   42.7830   -7.4870 C.2     2  SIA2        0.3914
      2  C2        -2.4600   42.6740   -8.0390 C.3     2  SIA2        0.2203
      3  C3        -3.3700   41.8650   -7.0980 C.3     2  SIA2        0.0760
      4  C4        -3.7690   42.6860   -5.8710 C.3     2  SIA2        0.1773
      5  C5        -4.4620   43.9600   -6.3540 C.3     2  SIA2        0.1552
      6  C6        -3.4660   44.7630   -7.2030 C.3     2  SIA2        0.1710
      7  C7        -4.0130   46.1140   -7.6920 C.3     2  SIA2        0.2134
      8  C8        -2.9560   46.9610   -8.4120 C.3     2  SIA2        0.2173
      9  C9        -2.7840   46.6270   -9.8930 C.3     2  SIA2        0.2175
     10  C10       -5.9400   45.2210   -4.8400 C.2     2  SIA2        0.2420
     11  C11       -7.0810   44.8960   -5.7640 C.3     2  SIA2        0.0964
     12  N5        -4.7270   44.7570   -5.1620 N.am    2  SIA2       -0.2020
     13  O1A       -0.3830   43.8160   -7.7100 O.co2   2  SIA2       -0.2430
     14  O1B       -0.6010   41.8260   -6.8270 O.co2   2  SIA2       -0.2430
     15  O4        -4.5580   41.9200   -4.9370 O.3     2  SIA2       -0.2211
     16  O6        -3.0230   43.9740   -8.3230 O.3     2  SIA2       -0.3429
     17  O7        -5.1710   45.9380   -8.5200 O.3     2  SIA2       -0.2176
     18  O8        -3.3030   48.3450   -8.3000 O.3     2  SIA2       -0.2175
     19  O9        -1.3900   46.7080  -10.2110 O.3     2  SIA2       -0.2175
     20  O10       -6.1100   45.8910   -3.8300 O.2     2  SIA2       -0.2733
@<TRIPOS>BOND
     1    19     9    1
     2     9     8    1
     3    17     7    1
     4     8    18    1
     5     8     7    1
     6    16     2    1
     7    16     6    1
     8     2     1    1
     9     2     3    1
    10    13     1   ar
    11     7     6    1
    12     1    14   ar
    13     6     5    1
    14     3     4    1
    15     5     4    1
    16     5    12    1
    17     4    15    1
    18    11    10    1
    19    12    10   am
    20    10    20    2
