@<TRIPOS>MOLECULE
3gvk_SLB_A_1.pdb
 21 21 0 0 0
SMALL
GASTEIGER

@<TRIPOS>ATOM
      1  C1        -4.2880   40.2090  -15.1040 C.2     1  SLB1        0.4179
      2  C2        -5.0040   40.9940  -14.0570 C.3     1  SLB1        0.3155
      3  C3        -6.5000   41.1860  -14.1610 C.3     1  SLB1        0.1056
      4  C4        -7.1230   41.6740  -12.8710 C.3     1  SLB1        0.1798
      5  C5        -6.1050   42.4670  -12.0500 C.3     1  SLB1        0.1554
      6  C6        -4.8370   41.6630  -11.7180 C.3     1  SLB1        0.1734
      7  C7        -3.8200   42.4970  -10.9590 C.3     1  SLB1        0.2135
      8  C8        -2.6740   41.7030  -10.3200 C.3     1  SLB1        0.2173
      9  C9        -1.7140   41.2140  -11.4220 C.3     1  SLB1        0.2175
     10  C10       -7.0950   42.6990   -9.7600 C.2     1  SLB1        0.2420
     11  C11       -6.8070   41.2690   -9.4320 C.3     1  SLB1        0.0964
     12  N5        -6.7580   43.1360  -10.9270 N.am    1  SLB1       -0.2020
     13  O1A       -4.6780   40.3760  -16.2290 O.co2   1  SLB1       -0.2401
     14  O1B       -3.3840   39.4390  -14.7950 O.co2   1  SLB1       -0.2401
     15  O2        -5.3090   39.7210  -13.4760 O.3     1  SLB1       -0.1830
     16  O4        -8.2590   42.4740  -13.1680 O.3     1  SLB1       -0.2210
     17  O6        -4.2200   41.4040  -12.9670 O.3     1  SLB1       -0.3220
     18  O7        -3.2290   43.3430  -11.9140 O.3     1  SLB1       -0.2176
     19  O8        -2.0220   42.4160   -9.2600 O.3     1  SLB1       -0.2175
     20  O9        -0.6270   40.3890  -11.0230 O.3     1  SLB1       -0.2175
     21  O10       -7.6450   43.4590   -8.9870 O.2     1  SLB1       -0.2733
@<TRIPOS>BOND
     1    13     1   ar
     2     1    14   ar
     3     1     2    1
     4     3     2    1
     5     3     4    1
     6     2    15    1
     7     2    17    1
     8    16     4    1
     9    17     6    1
    10     4     5    1
    11     5     6    1
    12     5    12    1
    13    18     7    1
    14     6     7    1
    15     9    20    1
    16     9     8    1
    17     7     8    1
    18    12    10   am
    19     8    19    1
    20    10    11    1
    21    10    21    2
