@<TRIPOS>MOLECULE
3gvl_SIA_A_1.pdb
 20 20 0 0 0
SMALL
GASTEIGER

@<TRIPOS>ATOM
      1  C1        46.0240   -0.3040  -14.5730 C.2     1  SIA1        0.3914
      2  C2        47.1730    0.0920  -15.4840 C.3     1  SIA1        0.2203
      3  C3        46.9780    1.5150  -16.0210 C.3     1  SIA1        0.0760
      4  C4        47.1160    2.5560  -14.9060 C.3     1  SIA1        0.1773
      5  C5        48.4750    2.4060  -14.2230 C.3     1  SIA1        0.1552
      6  C6        48.6930    0.9660  -13.7530 C.3     1  SIA1        0.1710
      7  C7        50.1230    0.7520  -13.2380 C.3     1  SIA1        0.2134
      8  C8        50.3970   -0.6680  -12.7440 C.3     1  SIA1        0.2173
      9  C9        49.5440   -1.0450  -11.5410 C.3     1  SIA1        0.2175
     10  C10       49.3150    4.1760  -12.7730 C.2     1  SIA1        0.2420
     11  C11       49.1880    4.8530  -11.4430 C.3     1  SIA1        0.0964
     12  N5        48.4550    3.1770  -12.9850 N.am    1  SIA1       -0.2020
     13  O1A       46.2430   -0.9450  -13.5190 O.co2   1  SIA1       -0.2430
     14  O1B       44.8650    0.0230  -14.9030 O.co2   1  SIA1       -0.2430
     15  O4        46.9980    3.8700  -15.4630 O.3     1  SIA1       -0.2211
     16  O6        48.4420    0.0230  -14.8110 O.3     1  SIA1       -0.3429
     17  O7        51.0480    1.0310  -14.2940 O.3     1  SIA1       -0.2176
     18  O8        50.1740   -1.5990  -13.8140 O.3     1  SIA1       -0.2175
     19  O9        48.4270   -1.8410  -11.9700 O.3     1  SIA1       -0.2175
     20  O10       50.1520    4.5140  -13.5970 O.2     1  SIA1       -0.2733
@<TRIPOS>BOND
     1     3     2    1
     2     3     4    1
     3     2    16    1
     4     2     1    1
     5    15     4    1
     6     4     5    1
     7    14     1   ar
     8    16     6    1
     9     1    13   ar
    10    17     7    1
    11     5     6    1
    12     5    12    1
    13    18     8    1
    14     6     7    1
    15    20    10    2
    16     7     8    1
    17    12    10   am
    18    10    11    1
    19     8     9    1
    20    19     9    1
