@<TRIPOS>MOLECULE
3gvl_SLB_A_1.pdb
 21 21 0 0 0
SMALL
GASTEIGER

@<TRIPOS>ATOM
      1  C1        75.2960   39.0760  -50.9870 C.2   911  SLB911      0.4179
      2  C2        74.9310   39.4940  -49.5890 C.3   911  SLB911      0.3155
      3  C3        73.6610   38.9960  -48.9240 C.3   911  SLB911      0.1056
      4  C4        73.5180   39.4430  -47.4770 C.3   911  SLB911      0.1798
      5  C5        74.2270   40.7530  -47.1410 C.3   911  SLB911      0.1554
      6  C6        75.6940   40.7360  -47.5880 C.3   911  SLB911      0.1734
      7  C7        76.3990   42.0850  -47.4530 C.3   911  SLB911      0.2135
      8  C8        77.8150   42.0030  -48.0370 C.3   911  SLB911      0.2173
      9  C9        78.5680   43.3290  -47.9570 C.3   911  SLB911      0.2175
     10  C10       73.6150   41.9940  -45.1120 C.2   911  SLB911      0.2420
     11  C11       73.7340   42.0550  -43.6150 C.3   911  SLB911      0.0964
     12  N5        74.2180   40.9610  -45.7040 N.am  911  SLB911     -0.2020
     13  O1A       75.8760   39.9530  -51.6630 O.co2 911  SLB911     -0.2401
     14  O1B       75.0090   37.9430  -51.4360 O.co2 911  SLB911     -0.2401
     15  O2        75.6040   38.3430  -48.9960 O.3   911  SLB911     -0.1830
     16  O4        72.1170   39.5230  -47.2070 O.3   911  SLB911     -0.2210
     17  O6        75.8700   40.3520  -48.9560 O.3   911  SLB911     -0.3220
     18  O7        75.6440   43.0800  -48.1520 O.3   911  SLB911     -0.2176
     19  O8        78.5670   40.9950  -47.3490 O.3   911  SLB911     -0.2175
     20  O9        78.7710   43.6690  -46.5810 O.3   911  SLB911     -0.2175
     21  O10       73.0050   42.8410  -45.7410 O.2   911  SLB911     -0.2733
@<TRIPOS>BOND
     1    13     1   ar
     2    14     1   ar
     3     1     2    1
     4     2    15    1
     5     2    17    1
     6     2     3    1
     7    17     6    1
     8     3     4    1
     9    18     7    1
    10     8     9    1
    11     8     7    1
    12     8    19    1
    13     9    20    1
    14     6     7    1
    15     6     5    1
    16     4    16    1
    17     4     5    1
    18     5    12    1
    19    21    10    2
    20    12    10   am
    21    10    11    1
