@<TRIPOS>MOLECULE
3gvp_NAD_A_1.pdb
 44 48 0 0 0
SMALL
GASTEIGER

@<TRIPOS>ATOM
      1  PA        10.1780   58.1830  102.0450 P.3   608  NAD608      0.2189
      2  O1A       11.4010   58.9920  102.0540 O.3   608  NAD608     -0.4371
      3  O2A        8.9700   58.9640  101.6890 O.2   608  NAD608     -0.5170
      4  O5B        9.8760   57.4980  103.4780 O.3   608  NAD608     -0.3112
      5  C5B       10.9000   57.1530  104.3880 C.3   608  NAD608      0.1813
      6  C4B       10.4510   57.6420  105.7620 C.3   608  NAD608      0.1821
      7  O4B       11.4130   57.2250  106.7100 O.3   608  NAD608     -0.3135
      8  C3B       10.3930   59.1580  105.8280 C.3   608  NAD608      0.2184
      9  O3B        9.0710   59.6390  106.0830 O.3   608  NAD608     -0.2174
     10  C2B       11.4060   59.5360  106.9030 C.3   608  NAD608      0.2570
     11  O2B       10.9730   60.5970  107.7240 O.3   608  NAD608     -0.2130
     12  C1B       11.5250   58.2590  107.6870 C.3   608  NAD608      0.3186
     13  N9A       12.7770   58.0600  108.4410 N.pl3 608  NAD608     -0.1439
     14  C8A       14.0720   58.3370  108.0460 C.3   608  NAD608      0.3377
     15  N7A       14.9100   57.9350  109.0300 N.2   608  NAD608     -0.2095
     16  C5A       14.1530   57.3810  110.0180 C.2   608  NAD608      0.2526
     17  C6A       14.5000   56.8080  111.2330 C.2   608  NAD608      0.4393
     18  N6A       15.7830   56.7660  111.6560 N.pl3 608  NAD608      0.2180
     19  N1A       13.4910   56.3420  112.0500 N.2   608  NAD608      0.0021
     20  C2A       12.1630   56.4270  111.6540 C.3   608  NAD608      0.5254
     21  N3A       11.8390   56.9840  110.4510 N.2   608  NAD608     -0.0055
     22  C4A       12.8320   57.4590  109.6630 C.2   608  NAD608      0.3518
     23  O3        10.5410   56.9020  101.1410 O.3   608  NAD608     -0.2703
     24  PN         9.6020   55.7020  100.6240 P.3   608  NAD608      0.2189
     25  O1N        9.0770   55.9650   99.2640 O.2   608  NAD608     -0.5170
     26  O2N        8.6460   55.2850  101.7010 O.3   608  NAD608     -0.4371
     27  O5D       10.8010   54.6610  100.5510 O.3   608  NAD608     -0.3112
     28  C5D       11.5130   54.3010  101.7310 C.3   608  NAD608      0.1813
     29  C4D       12.7220   53.4800  101.3530 C.3   608  NAD608      0.1799
     30  O4D       12.2240   52.3180  100.6950 O.3   608  NAD608     -0.3327
     31  C3D       13.5900   54.2110  100.3390 C.3   608  NAD608      0.2158
     32  O3D       14.9530   53.8540  100.4960 O.3   608  NAD608     -0.2175
     33  C2D       13.0610   53.7050   99.0150 C.3   608  NAD608      0.2309
     34  O2D       13.9580   53.8150   97.9360 O.3   608  NAD608     -0.2158
     35  C1D       12.7980   52.2490   99.3780 C.3   608  NAD608      0.2263
     36  N1N       11.9250   51.5150   98.4450 N.pl3 608  NAD608     -0.2787
     37  C2N       11.9130   50.1640   98.5920 C.3   608  NAD608      0.1244
     38  C3N       11.1290   49.3880   97.7660 C.2   608  NAD608      0.0544
     39  C7N       11.1160   47.8990   97.9580 C.2   608  NAD608      0.2818
     40  O7N       10.9960   47.1250   96.7970 O.2   608  NAD608     -0.2670
     41  N7N       11.2120   47.3660   99.1800 N.am  608  NAD608     -0.0839
     42  C4N       10.3380   49.9800   96.7710 C.2   608  NAD608      0.0033
     43  C5N       10.3430   51.3590   96.6390 C.2   608  NAD608      0.0157
     44  C6N       11.1540   52.1260   97.4800 C.2   608  NAD608      0.0633
@<TRIPOS>BOND
     1    43    42    1
     2    43    44    2
     3    42    38    2
     4    40    39    2
     5    44    36    1
     6    38    39    1
     7    38    37    1
     8    34    33    1
     9    39    41   am
    10    36    37    1
    11    36    35    1
    12    33    35    1
    13    33    31    1
    14    25    24    2
    15    35    30    1
    16    31    32    1
    17    31    29    1
    18    27    24    1
    19    27    28    1
    20    24    23    1
    21    24    26    1
    22    30    29    1
    23    23     1    1
    24    29    28    1
    25     3     1    2
    26     1     2    1
    27     1     4    1
    28     4     5    1
    29     5     6    1
    30     6     8    1
    31     6     7    1
    32     8     9    1
    33     8    10    1
    34     7    12    1
    35    10    12    1
    36    10    11    1
    37    12    13    1
    38    14    13    1
    39    14    15    1
    40    13    22    1
    41    15    16    2
    42    22    16    1
    43    22    21    2
    44    16    17    1
    45    21    20    1
    46    17    18    1
    47    17    19    2
    48    20    19    1
