@<TRIPOS>MOLECULE
3gvu_STI_A_1.pdb
 37 41 0 0 0
SMALL
GASTEIGER

@<TRIPOS>ATOM
      1  C1         6.5740    7.6540   23.3390 C.ar  1001  STI1001     0.0208
      2  C6         7.4130    8.3860   22.5000 C.ar  1001  STI1001     0.0057
      3  C5         8.4740    7.7180   21.8660 C.ar  1001  STI1001     0.0497
      4  C4         8.6330    6.3510   22.1020 C.ar  1001  STI1001     0.1014
      5  N3         7.8150    5.6800   22.9090 N.ar  1001  STI1001    -0.2422
      6  C2         6.8080    6.2840   23.5180 C.ar  1001  STI1001     0.0989
      7  C7         9.3520    8.3900   21.0090 C.2   1001  STI1001     0.1472
      8  C12        9.1360    9.7250   20.6710 C.2   1001  STI1001     0.0546
      9  C11       10.0430   10.3330   19.8050 C.2   1001  STI1001     0.1144
     10  N10       11.0820    9.6760   19.3270 N.2   1001  STI1001    -0.1683
     11  C9        11.2910    8.4030   19.6710 C.1   1001  STI1001     0.1696
     12  N8        10.4260    7.7590   20.4800 N.2   1001  STI1001    -0.3361
     13  N13       12.3370    7.7430   19.1900 N.pl3 1001  STI1001    -0.1360
     14  C14       13.1720    8.2180   18.2450 C.ar  1001  STI1001     0.0799
     15  C19       12.8640    8.1260   16.9010 C.ar  1001  STI1001    -0.0057
     16  C18       13.7850    8.5730   15.9640 C.ar  1001  STI1001    -0.0016
     17  C17       14.9980    9.0950   16.3390 C.ar  1001  STI1001     0.0164
     18  C16       15.3370    9.1920   17.6800 C.ar  1001  STI1001     0.0750
     19  C15       14.4110    8.7260   18.6160 C.ar  1001  STI1001     0.0336
     20  N21       16.5710    9.6630   17.9920 N.am  1001  STI1001    -0.1754
     21  C22       17.0770    9.8360   19.2270 C.2   1001  STI1001     0.2690
     22  C23       18.5640   10.2230   19.2890 C.ar  1001  STI1001     0.0554
     23  C25       19.2470   10.8230   18.2380 C.ar  1001  STI1001     0.0043
     24  C26       20.5980   11.1530   18.3750 C.ar  1001  STI1001    -0.0028
     25  C27       21.2810   10.8870   19.5570 C.ar  1001  STI1001    -0.0061
     26  C28       20.5900   10.2840   20.5790 C.ar  1001  STI1001    -0.0028
     27  C29       19.2470    9.9610   20.4560 C.ar  1001  STI1001     0.0043
     28  C46       22.7850   11.2550   19.7710 C.3   1001  STI1001     0.0992
     29  N48       23.0820   12.6190   19.2840 N.3   1001  STI1001    -0.2665
     30  C53       22.2630   13.5090   20.0220 C.3   1001  STI1001     0.0899
     31  C52       22.5130   14.8940   19.4090 C.3   1001  STI1001     0.0897
     32  N51       23.9200   15.3340   19.5840 N.3   1001  STI1001    -0.2691
     33  C54       24.2840   16.4960   18.7780 C.3   1001  STI1001     0.0897
     34  C50       24.7180   14.3030   18.8430 C.3   1001  STI1001     0.0897
     35  C49       24.4870   12.8940   19.4590 C.3   1001  STI1001     0.0899
     36  O29       16.4480    9.7480   20.2870 O.2   1001  STI1001    -0.2680
     37  C20       11.5170    7.5620   16.4330 C.3   1001  STI1001     0.0324
@<TRIPOS>BOND
     1    16    17   ar
     2    16    15   ar
     3    17    18   ar
     4    37    15    1
     5    15    14   ar
     6    18    20    1
     7    18    19   ar
     8    20    21   am
     9    23    24   ar
    10    23    22   ar
    11    14    19   ar
    12    14    13    1
    13    24    25   ar
    14    33    32    1
    15    34    35    1
    16    34    32    1
    17    13    11    1
    18    21    22    1
    19    21    36    2
    20    29    35    1
    21    29    28    1
    22    29    30    1
    23    22    27   ar
    24    10    11    2
    25    10     9    1
    26    31    32    1
    27    31    30    1
    28    25    28    1
    29    25    26   ar
    30    11    12    2
    31     9     8    2
    32    27    26   ar
    33    12     7    2
    34     8     7    1
    35     7     3    1
    36     3     4   ar
    37     3     2   ar
    38     4     5   ar
    39     2     1   ar
    40     5     6   ar
    41     1     6   ar
