@<TRIPOS>MOLECULE
3gvy_HEM_A_1.pdb
 43 50 0 0 0
SMALL
GASTEIGER

@<TRIPOS>ATOM
      1  CHA       -0.2660   26.5230   31.5100 C.2   162  HEM162      0.0000
      2  CHB        2.6610   30.3460   30.8410 C.2   162  HEM162      0.0000
      3  CHC        0.0600   31.6800   26.8680 C.2   162  HEM162      0.0000
      4  CHD       -2.6580   27.6790   27.3800 C.2   162  HEM162      0.0000
      5  C1A        0.8060   27.3990   31.6480 C.2   162  HEM162      0.0000
      6  C2A        1.8950   27.2480   32.6030 C.2   162  HEM162      0.0000
      7  C3A        2.7080   28.3140   32.3980 C.2   162  HEM162      0.0000
      8  C4A        2.1540   29.1510   31.3380 C.2   162  HEM162      0.0000
      9  CMA        4.0210   28.6800   33.1340 C.3   162  HEM162      0.0000
     10  CAA        1.9830   26.0180   33.5750 C.3   162  HEM162      0.0000
     11  CBA        2.7780   26.1510   34.8840 C.3   162  HEM162      0.0000
     12  CGA        3.5490   24.8750   35.2080 C.2   162  HEM162      0.0000
     13  O1A        2.8860   23.8530   35.5340 O.co2 162  HEM162      0.0000
     14  O2A        4.8170   24.8490   35.1610 O.co2 162  HEM162      0.0000
     15  C1B        2.1930   31.0480   29.7310 C.ar  162  HEM162      0.0000
     16  C2B        2.7360   32.2850   29.2120 C.ar  162  HEM162      0.0000
     17  C3B        2.0290   32.6430   28.1190 C.ar  162  HEM162      0.0000
     18  C4B        0.9970   31.6580   27.8950 C.ar  162  HEM162      0.0000
     19  CMB        3.9380   33.0380   29.8230 C.3   162  HEM162      0.0000
     20  CAB        2.2470   33.8880   27.2230 C.2   162  HEM162      0.0000
     21  CBB        2.8060   35.0040   27.7170 C.2   162  HEM162      0.0000
     22  C1C       -0.8650   30.7010   26.5590 C.2   162  HEM162      0.0000
     23  C2C       -1.6820   30.5290   25.3620 C.2   162  HEM162      0.0000
     24  C3C       -2.4250   29.4170   25.5270 C.2   162  HEM162      0.0000
     25  C4C       -2.1210   28.8420   26.8250 C.2   162  HEM162      0.0000
     26  CMC       -1.7220   31.4280   24.1100 C.3   162  HEM162      0.0000
     27  CAC       -3.4400   28.8340   24.5270 C.2   162  HEM162      0.0000
     28  CBC       -4.5550   29.5120   24.2800 C.2   162  HEM162      0.0000
     29  C1D       -2.3330   27.0530   28.5830 C.ar  162  HEM162      0.0000
     30  C2D       -3.1190   26.0040   29.2000 C.ar  162  HEM162      0.0000
     31  C3D       -2.3730   25.6240   30.5120 C.ar  162  HEM162      0.0000
     32  C4D       -1.2290   26.5090   30.5200 C.ar  162  HEM162      0.0000
     33  CMD       -4.4310   25.4380   28.5980 C.3   162  HEM162      0.0000
     34  CAD       -2.7180   24.5820   31.6180 C.3   162  HEM162      0.0000
     35  CBD       -2.5840   23.1270   31.1670 C.3   162  HEM162      0.0000
     36  CGD       -3.8700   22.6230   30.5220 C.2   162  HEM162      0.0000
     37  O1D       -4.9500   22.7280   31.1700 O.co2 162  HEM162      0.0000
     38  O2D       -3.8440   22.1170   29.3550 O.co2 162  HEM162      0.0000
     39  NA         0.9900   28.5580   30.9060 N.2   162  HEM162      0.0000
     40  NB         1.1270   30.7140   28.8960 N.ar  162  HEM162      0.0000
     41  NC        -1.1680   29.6580   27.4080 N.2   162  HEM162      0.0000
     42  ND        -1.2360   27.3230   29.3900 N.ar  162  HEM162      0.0000
     43 FE         -0.2600   29.2130   29.1520 Fe    162  HEM162      0.0000
@<TRIPOS>BOND
     1    26    23    1
     2    28    27    2
     3    27    24    1
     4    23    24    2
     5    23    22    1
     6    24    25    1
     7    22     3    2
     8    22    41    1
     9    25     4    1
    10    25    41    2
    11     3    18    1
    12    20    21    2
    13    20    17    1
    14     4    29    2
    15    41    43    1
    16    18    17   ar
    17    18    40   ar
    18    17    16   ar
    19    29    30   ar
    20    29    42   ar
    21    33    30    1
    22    40    43    1
    23    40    15   ar
    24    43    42    1
    25    43    39    1
    26    30    31   ar
    27    16    15   ar
    28    16    19    1
    29    38    36   ar
    30    42    32   ar
    31    15     2    1
    32    31    32   ar
    33    31    34    1
    34    32     1    2
    35    36    35    1
    36    36    37   ar
    37     2     8    2
    38    39     8    1
    39    39     5    2
    40    35    34    1
    41     8     7    1
    42     1     5    1
    43     5     6    1
    44     7     6    2
    45     7     9    1
    46     6    10    1
    47    10    11    1
    48    11    12    1
    49    14    12   ar
    50    12    13   ar
