@<TRIPOS>MOLECULE
3gw1_III_C_1.pdb
 15 15 0 0 0
SMALL
GASTEIGER

@<TRIPOS>ATOM
      1  N          0.4610   14.2740  -26.7640 N.3     1  PHE1       -0.1227
      2  CA         0.9470   13.1910  -27.6030 C.3     1  PHE1        0.1736
      3  C          1.9560   13.6870  -28.6390 C.2     1  PHE1        0.2596
      4  O          1.8450   14.8090  -29.1400 O.2     1  PHE1       -0.2718
      5  CB        -0.2250   12.5000  -28.2980 C.3     1  PHE1        0.0547
      6  CG        -1.3480   12.1390  -27.3750 C.ar    1  PHE1       -0.0202
      7  CD1       -1.1170   11.3600  -26.2550 C.ar    1  PHE1       -0.0042
      8  CD2       -2.6390   12.5640  -27.6340 C.ar    1  PHE1       -0.0042
      9  CE1       -2.1480   11.0200  -25.4040 C.ar    1  PHE1       -0.0003
     10  CE2       -3.6760   12.2260  -26.7850 C.ar    1  PHE1       -0.0003
     11  CZ        -3.4290   11.4540  -25.6690 C.ar    1  PHE1       -0.0000
     12  N          2.9330   12.8440  -28.9620 N.am    2  GLY2       -0.1957
     13  CA         3.9750   13.2050  -29.9080 C.3     2  GLY2        0.1869
     14  C          3.4520   13.4260  -31.3160 C.2     2  GLY2        0.2309
     15  O          3.3530   12.4880  -32.1110 O.2     2  GLY2       -0.2863
@<TRIPOS>BOND
     1    15    14    2
     2    14    13    1
     3    13    12    1
     4     4     3    2
     5    12     3   am
     6     3     2    1
     7     5     2    1
     8     5     6    1
     9     8     6   ar
    10     8    10   ar
    11     2     1    1
    12     6     7   ar
    13    10    11   ar
    14     7     9   ar
    15    11     9   ar
