@<TRIPOS>MOLECULE
3gw5_72X_A_1.pdb
 35 37 0 0 0
SMALL
GASTEIGER

@<TRIPOS>ATOM
      1  C1        29.0520   -7.7360  -14.5800 C.3   400  72X400      0.1650
      2  O2        28.3380   -7.4420  -15.8020 O.3   400  72X400     -0.2166
      3  C3        30.5570   -8.0720  -14.9200 C.ar  400  72X400      0.0098
      4  C4        31.2010   -8.0810  -16.2280 C.ar  400  72X400     -0.0016
      5  C5        31.3830   -8.4210  -13.6600 C.ar  400  72X400      0.0098
      6  C6        32.6220   -8.4200  -16.3310 C.ar  400  72X400      0.0006
      7  C7        32.7770   -8.7520  -13.8130 C.ar  400  72X400      0.0574
      8  C8        33.4000   -8.7530  -15.1410 C.ar  400  72X400      0.0114
      9  C15       28.9810   -6.4490  -13.6720 C.2   400  72X400      0.0031
     10  C18       29.6150   -5.1110  -14.1530 C.2   400  72X400     -0.0254
     11  C21       29.5150   -3.9070  -13.1820 C.3   400  72X400      0.0578
     12  C24       28.0770   -3.4730  -12.8320 C.3   400  72X400      0.1469
     13  O27       27.3650   -3.1910  -14.0050 O.3   400  72X400     -0.3507
     14  C28       26.0340   -2.8060  -13.7510 C.3   400  72X400      0.1741
     15  C32       26.5300   -8.8260   -9.1820 C.3   400  72X400      0.1142
     16  C33       25.1140   -8.3550   -8.7230 C.3   400  72X400      0.1104
     17  C34       27.6640   -7.8160   -8.8540 C.3   400  72X400      0.0232
     18  N35       25.0300   -8.1250   -7.2700 N.3   400  72X400     -0.2147
     19  C36       29.1080   -8.2160   -9.2440 C.3   400  72X400      0.0018
     20  C37       30.1190   -7.1050   -8.8610 C.3   400  72X400      0.0001
     21  C38       31.5950   -7.4570   -9.2340 C.3   400  72X400      0.0000
     22  C39       32.0760   -8.8390   -8.6880 C.3   400  72X400      0.0000
     23  C40       29.5560   -9.5880   -8.5120 C.3   400  72X400      0.0001
     24  C41       31.0280  -10.0350   -8.8720 C.3   400  72X400      0.0000
     25  N42       26.5350   -9.0280  -10.6220 N.am  400  72X400     -0.1887
     26  C43       26.2580  -10.1770  -11.3420 C.2   400  72X400      0.3232
     27  O44       25.9530  -11.2340  -10.7900 O.2   400  72X400     -0.2508
     28  N45       26.3650  -10.0150  -12.7320 N.am  400  72X400     -0.2628
     29  C46       27.6060  -11.5600  -14.0030 C.3   400  72X400      0.0217
     30  C47       28.3230  -10.3470  -14.6870 C.3   400  72X400      0.0066
     31  C48       28.3170   -8.9620  -13.8230 C.3   400  72X400      0.0559
     32  C49       26.7540   -8.7170  -13.4460 C.3   400  72X400      0.0981
     33  C50       26.1260  -11.1000  -13.6550 C.3   400  72X400      0.0950
     34  C51       25.1760   -9.3290   -6.4430 C.3   400  72X400      0.1075
     35 CL1        33.6920   -9.1440  -12.4460 Cl    400  72X400     -0.0823
@<TRIPOS>BOND
     1     6     4   ar
     2     6     8   ar
     3     4     3   ar
     4     2     1    1
     5     8     7   ar
     6     3     1    1
     7     3     5   ar
     8    30    29    1
     9    30    31    1
    10     1    31    1
    11     1     9    1
    12    10     9    2
    13    10    11    1
    14    13    14    1
    15    13    12    1
    16    29    33    1
    17    31    32    1
    18     7     5   ar
    19     7    35    1
    20    33    28    1
    21    32    28    1
    22    11    12    1
    23    28    26   am
    24    26    27    2
    25    26    25   am
    26    25    15    1
    27    19    20    1
    28    19    17    1
    29    19    23    1
    30    21    20    1
    31    21    22    1
    32    15    17    1
    33    15    16    1
    34    24    22    1
    35    24    23    1
    36    16    18    1
    37    18    34    1
