@<TRIPOS>MOLECULE
3gw9_HEM_A_1.pdb
 43 50 0 0 0
SMALL
GASTEIGER

@<TRIPOS>ATOM
      1  CHA       23.4740   36.9150   29.7030 C.2   480  HEM480      0.0000
      2  CHB       19.3100   39.1320   30.5270 C.2   480  HEM480      0.0000
      3  CHC       20.8420   40.2620   34.9740 C.2   480  HEM480      0.0000
      4  CHD       25.2610   38.9550   33.8090 C.2   480  HEM480      0.0000
      5  C1A       22.2300   37.4100   29.5720 C.ar  480  HEM480      0.0000
      6  C2A       21.4020   37.2420   28.3880 C.ar  480  HEM480      0.0000
      7  C3A       20.2540   37.8450   28.6060 C.ar  480  HEM480      0.0000
      8  C4A       20.2930   38.4080   29.9540 C.ar  480  HEM480      0.0000
      9  CMA       19.0160   38.0020   27.6680 C.3   480  HEM480      0.0000
     10  CAA       21.9670   36.4760   27.1550 C.3   480  HEM480      0.0000
     11  CBA       22.7390   37.4130   26.3060 C.3   480  HEM480      0.0000
     12  CGA       23.0200   36.8230   24.9210 C.2   480  HEM480      0.0000
     13  O1A       22.4100   35.8480   24.5130 O.co2 480  HEM480      0.0000
     14  O2A       23.8880   37.3400   24.2300 O.co2 480  HEM480      0.0000
     15  C1B       19.3740   39.6180   31.8070 C.2   480  HEM480      0.0000
     16  C2B       18.2860   40.2300   32.5080 C.2   480  HEM480      0.0000
     17  C3B       18.7530   40.4940   33.7270 C.2   480  HEM480      0.0000
     18  C4B       20.0930   40.0900   33.8270 C.2   480  HEM480      0.0000
     19  CMB       16.8480   40.5160   32.0020 C.3   480  HEM480      0.0000
     20  CAB       18.0440   41.1770   34.8910 C.2   480  HEM480      0.0000
     21  CBB       16.8080   40.9580   35.2050 C.2   480  HEM480      0.0000
     22  C1C       22.1640   40.0150   35.0410 C.ar  480  HEM480      0.0000
     23  C2C       23.0220   40.3210   36.1790 C.ar  480  HEM480      0.0000
     24  C3C       24.2390   39.9650   35.8250 C.ar  480  HEM480      0.0000
     25  C4C       24.2090   39.4490   34.4860 C.ar  480  HEM480      0.0000
     26  CMC       22.4230   40.9230   37.5170 C.3   480  HEM480      0.0000
     27  CAC       25.5720   40.0630   36.6220 C.3   480  HEM480      0.0000
     28  CBC       25.4410   40.5070   37.8810 C.3   480  HEM480      0.0000
     29  C1D       25.1410   38.3010   32.5950 C.2   480  HEM480      0.0000
     30  C2D       26.2950   37.7930   31.9160 C.2   480  HEM480      0.0000
     31  C3D       25.7750   37.1760   30.6510 C.2   480  HEM480      0.0000
     32  C4D       24.3500   37.3520   30.6880 C.2   480  HEM480      0.0000
     33  CMD       27.8240   37.8600   32.2880 C.3   480  HEM480      0.0000
     34  CAD       26.7400   36.5170   29.6440 C.3   480  HEM480      0.0000
     35  CBD       26.8160   35.0300   29.9140 C.3   480  HEM480      0.0000
     36  CGD       27.5800   34.2880   28.8440 C.2   480  HEM480      0.0000
     37  O1D       27.7920   33.0730   29.0730 O.co2 480  HEM480      0.0000
     38  O2D       27.9630   34.8370   27.7900 O.co2 480  HEM480      0.0000
     39  NA        21.5150   38.1270   30.5200 N.ar  480  HEM480      0.0000
     40  NB        20.5050   39.5460   32.6260 N.2   480  HEM480      0.0000
     41  NC        22.9180   39.4950   34.0480 N.ar  480  HEM480      0.0000
     42  ND        23.9730   38.0270   31.8550 N.2   480  HEM480      0.0000
     43 FE         22.2140   38.7520   32.3280 Fe    480  HEM480      0.0000
@<TRIPOS>BOND
     1    14    12   ar
     2    13    12   ar
     3    12    11    1
     4    11    10    1
     5    10     6    1
     6     9     7    1
     7    38    36   ar
     8     6     7   ar
     9     6     5   ar
    10     7     8   ar
    11    36    37   ar
    12    36    35    1
    13     5     1    2
    14     5    39   ar
    15    34    35    1
    16    34    31    1
    17     1    32    1
    18     8    39   ar
    19     8     2    2
    20    39    43    1
    21     2    15    1
    22    31    32    1
    23    31    30    2
    24    32    42    2
    25    15    16    1
    26    15    40    2
    27    42    43    1
    28    42    29    1
    29    30    33    1
    30    30    29    1
    31    19    16    1
    32    43    40    1
    33    43    41    1
    34    16    17    2
    35    29     4    2
    36    40    18    1
    37    17    18    1
    38    17    20    1
    39     4    25    1
    40    18     3    2
    41    41    25   ar
    42    41    22   ar
    43    25    24   ar
    44    20    21    2
    45     3    22    1
    46    22    23   ar
    47    24    23   ar
    48    24    27    1
    49    23    26    1
    50    27    28    1
