@<TRIPOS>MOLECULE
3gw9_VNI_A_1.pdb
 35 39 0 0 0
SMALL
GASTEIGER

@<TRIPOS>ATOM
      1  O1        23.8720   45.4780   27.7540 O.2   490  VNI490     -0.2684
      2  C1        24.4280   44.7880   26.9020 C.2   490  VNI490      0.2651
      3  N1        24.9860   43.6060   27.1190 N.am  490  VNI490     -0.1969
      4  C2        25.0250   43.0260   28.4760 C.3   490  VNI490      0.1411
      5  C3        23.6610   42.2970   28.4760 C.3   490  VNI490      0.1337
      6  N2        23.2530   41.8210   29.8100 N.ar  490  VNI490     -0.3057
      7  C4        22.8070   42.5890   30.8360 C.ar  490  VNI490      0.0981
      8  C5        22.5140   41.7510   31.8650 C.ar  490  VNI490      0.1193
      9  N3        22.7750   40.4880   31.4430 N.ar  490  VNI490     -0.2223
     10  C6        23.2130   40.5650   30.1640 C.ar  490  VNI490      0.1787
     11  C7        26.1670   42.1540   28.7340 C.ar  490  VNI490      0.0100
     12  C8        26.2370   40.8310   28.2960 C.ar  490  VNI490     -0.0009
     13  C9        27.3480   40.0580   28.5840 C.ar  490  VNI490      0.0112
     14  C10       28.3920   40.6170   29.3330 C.ar  490  VNI490      0.0585
     15 CL1        29.8400   39.7050   29.7400 Cl    490  VNI490     -0.0822
     16  C11       28.3270   41.9120   29.7350 C.ar  490  VNI490      0.0225
     17  C12       27.2370   42.6660   29.4670 C.ar  490  VNI490      0.0562
     18 CL2        27.2660   44.3450   30.0640 Cl    490  VNI490     -0.0825
     19  C13       24.3210   45.0980   25.4380 C.ar  490  VNI490      0.0551
     20  C14       25.3380   44.9720   24.5140 C.ar  490  VNI490      0.0047
     21  C15       25.0760   45.2290   23.1750 C.ar  490  VNI490      0.0048
     22  C16       23.7930   45.5160   22.7580 C.ar  490  VNI490      0.0551
     23  C17       22.7680   45.5650   23.6830 C.ar  490  VNI490      0.0048
     24  C18       23.0290   45.3370   25.0350 C.ar  490  VNI490      0.0047
     25  C19       23.4970   45.7280   21.4060 C.ar  490  VNI490      0.2499
     26  N4        24.3590   45.7340   20.3560 N.ar  490  VNI490     -0.1069
     27  N5        23.6020   46.0110   19.2090 N.ar  490  VNI490     -0.1069
     28  C20       22.3070   46.1520   19.5770 C.ar  490  VNI490      0.2499
     29  O2        22.2380   45.9830   20.9270 O.2   490  VNI490     -0.4157
     30  C21       21.1990   46.4160   18.7630 C.ar  490  VNI490      0.0551
     31  C22       19.9210   46.5440   19.3400 C.ar  490  VNI490      0.0047
     32  C23       18.8140   46.8160   18.5340 C.ar  490  VNI490      0.0002
     33  C24       19.0030   46.9730   17.1560 C.ar  490  VNI490      0.0000
     34  C25       20.2710   46.8540   16.5820 C.ar  490  VNI490      0.0002
     35  C26       21.3750   46.5750   17.3800 C.ar  490  VNI490      0.0047
@<TRIPOS>BOND
     1    34    33   ar
     2    34    35   ar
     3    33    32   ar
     4    35    30   ar
     5    32    31   ar
     6    30    31   ar
     7    30    28    1
     8    27    28   ar
     9    27    26   ar
    10    28    29   ar
    11    26    25   ar
    12    29    25   ar
    13    25    22    1
    14    22    21   ar
    15    22    23   ar
    16    21    20   ar
    17    23    24   ar
    18    20    19   ar
    19    24    19   ar
    20    19     2    1
    21     2     3   am
    22     2     1    2
    23     3     4    1
    24    12    13   ar
    25    12    11   ar
    26     4     5    1
    27     4    11    1
    28     5     6    1
    29    13    14   ar
    30    11    17   ar
    31    14    16   ar
    32    14    15    1
    33    17    16   ar
    34    17    18    1
    35     6    10   ar
    36     6     7   ar
    37    10     9   ar
    38     7     8   ar
    39     9     8   ar
