@<TRIPOS>MOLECULE
3gwc_UFP_A_1.pdb
 21 22 0 0 0
SMALL
GASTEIGER

@<TRIPOS>ATOM
      1  N1         2.1830   22.0160  -64.2120 N.am  260  UFP260     -0.1768
      2  C2         1.7780   21.7670  -62.9190 C.1   260  UFP260      0.2846
      3  N3         2.6960   21.2430  -62.0410 N.2   260  UFP260     -0.2430
      4  C4         3.9920   20.9400  -62.4310 C.1   260  UFP260      0.2454
      5  C5         4.4000   21.2700  -63.7350 C.2   260  UFP260      0.2499
      6  C6         3.4710   21.8070  -64.6080 C.2   260  UFP260      0.1221
      7  O2         0.6070   22.0150  -62.5620 O.2   260  UFP260     -0.1918
      8  O4         4.7680   20.4390  -61.5900 O.2   260  UFP260     -0.2062
      9  F5         5.6330   21.0280  -64.2470 F     260  UFP260     -0.1891
     10  C1'        1.3330   22.6670  -65.1490 C.3   260  UFP260      0.2091
     11  C2'        0.6550   23.8980  -64.6640 C.3   260  UFP260      0.0874
     12  C3'        0.6290   24.8400  -65.8770 C.3   260  UFP260      0.1857
     13  C4'        1.6410   24.2320  -66.8300 C.3   260  UFP260      0.1774
     14  O3'       -0.6600   24.8600  -66.4780 O.3   260  UFP260     -0.2203
     15  O4'        1.5920   22.8750  -66.4730 O.3   260  UFP260     -0.3339
     16  C5'        3.0930   24.7290  -66.7570 C.3   260  UFP260      0.1858
     17  O5'        3.5080   24.7540  -65.4010 O.3   260  UFP260     -0.2675
     18  P          4.9990   25.1180  -64.9510 P.3   260  UFP260      0.5327
     19  O1P        5.8320   23.9050  -65.2610 O.3   260  UFP260     -0.1145
     20  O2P        4.9060   25.3600  -63.4920 O.3   260  UFP260     -0.1145
     21  O3P        5.4670   26.3760  -65.6060 O.2   260  UFP260     -0.2224
@<TRIPOS>BOND
     1    13    16    1
     2    13    15    1
     3    13    12    1
     4    16    17    1
     5    14    12    1
     6    15    10    1
     7    12    11    1
     8    21    18    2
     9    17    18    1
    10    19    18    1
    11    10    11    1
    12    10     1    1
    13    18    20    1
    14     6     1    1
    15     6     5    2
    16     9     5    1
    17     1     2   am
    18     5     4    1
    19     2     7    2
    20     2     3    2
    21     4     3    2
    22     4     8    2
