@<TRIPOS>MOLECULE
3gwd_NAP_A_1.pdb
 48 52 0 0 0
SMALL
GASTEIGER

@<TRIPOS>ATOM
      1  PA       -13.4110   -6.9720   16.4630 P.3   542  NAP542      0.2189
      2  O1A      -13.6520   -5.9050   17.4800 O.3   542  NAP542     -0.4371
      3  O2A      -14.6500   -7.5090   15.8820 O.2   542  NAP542     -0.5170
      4  O5B      -12.5870   -8.2360   17.0620 O.3   542  NAP542     -0.3112
      5  C5B      -11.4130   -8.0640   17.8000 C.3   542  NAP542      0.1813
      6  C4B      -10.9200   -9.3790   18.3690 C.3   542  NAP542      0.1820
      7  O4B       -9.8570   -9.0560   19.2490 O.3   542  NAP542     -0.3136
      8  C3B      -11.9840  -10.0660   19.2250 C.3   542  NAP542      0.2157
      9  O3B      -11.9500  -11.4800   19.0300 O.3   542  NAP542     -0.2175
     10  C2B      -11.6080   -9.6330   20.6370 C.3   542  NAP542      0.2314
     11  O2B      -11.9770  -10.5470   21.6330 O.3   542  NAP542     -0.2630
     12  C1B      -10.1000   -9.5540   20.5560 C.3   542  NAP542      0.3158
     13  N9A       -9.4940   -8.7340   21.6330 N.pl3 542  NAP542     -0.1439
     14  C8A       -9.7680   -7.4280   21.9640 C.3   542  NAP542      0.3377
     15  N7A       -9.0080   -7.0490   23.0230 N.2   542  NAP542     -0.2095
     16  C5A       -8.2240   -8.0980   23.3700 C.2   542  NAP542      0.2526
     17  C6A       -7.2720   -8.2920   24.3720 C.2   542  NAP542      0.4393
     18  N6A       -6.9470   -7.3310   25.2150 N.pl3 542  NAP542      0.2180
     19  N1A       -6.6270   -9.5040   24.4880 N.2   542  NAP542      0.0021
     20  C2A       -6.9510  -10.5290   23.6350 C.3   542  NAP542      0.5254
     21  N3A       -7.9030  -10.3510   22.6580 N.2   542  NAP542     -0.0055
     22  C4A       -8.5330   -9.1590   22.5130 C.2   542  NAP542      0.3518
     23  O3       -12.3990   -6.3070   15.3780 O.3   542  NAP542     -0.2703
     24  PN       -12.2500   -6.7890   13.8400 P.3   542  NAP542      0.2189
     25  O1N      -12.1460   -8.2640   13.7780 O.3   542  NAP542     -0.4371
     26  O2N      -11.2130   -5.9860   13.1640 O.2   542  NAP542     -0.5170
     27  O5D      -13.6560   -6.3450   13.2530 O.3   542  NAP542     -0.3112
     28  C5D      -14.2400   -5.0910   13.5500 C.3   542  NAP542      0.1813
     29  C4D      -15.3020   -4.8020   12.5020 C.3   542  NAP542      0.1799
     30  O4D      -14.6430   -4.3980   11.3200 O.3   542  NAP542     -0.3327
     31  C3D      -16.0790   -6.0280   12.0990 C.3   542  NAP542      0.2158
     32  O3D      -17.1440   -6.3100   12.9740 O.3   542  NAP542     -0.2175
     33  C2D      -16.5490   -5.6520   10.7140 C.3   542  NAP542      0.2309
     34  O2D      -17.7490   -4.9180   10.7520 O.3   542  NAP542     -0.2158
     35  C1D      -15.3860   -4.8220   10.1930 C.3   542  NAP542      0.2263
     36  N1N      -14.6260   -5.7700    9.3600 N.pl3 542  NAP542     -0.2787
     37  C2N      -15.2820   -6.2990    8.2690 C.3   542  NAP542      0.1244
     38  C3N      -14.6370   -7.2140    7.4540 C.2   542  NAP542      0.0544
     39  C7N      -15.3150   -7.7890    6.2390 C.2   542  NAP542      0.2818
     40  O7N      -14.6940   -8.8840    5.6300 O.2   542  NAP542     -0.2670
     41  N7N      -16.4520   -7.2900    5.7450 N.am  542  NAP542     -0.0839
     42  C4N      -13.3290   -7.6000    7.7720 C.2   542  NAP542      0.0033
     43  C5N      -12.6830   -7.0640    8.8860 C.2   542  NAP542      0.0157
     44  C6N      -13.3490   -6.1430    9.6880 C.2   542  NAP542      0.0633
     45  P2B      -13.3780  -10.4560   22.4240 P.3   542  NAP542      0.5328
     46  O1X      -14.4870  -10.8380   21.4730 O.2   542  NAP542     -0.2224
     47  O2X      -13.2100  -11.4580   23.5580 O.3   542  NAP542     -0.1145
     48  O3X      -13.7250   -9.1180   22.9900 O.3   542  NAP542     -0.1145
@<TRIPOS>BOND
     1    40    39    2
     2    41    39   am
     3    39    38    1
     4    38    42    2
     5    38    37    1
     6    42    43    1
     7    37    36    1
     8    43    44    2
     9    36    44    1
    10    36    35    1
    11    35    33    1
    12    35    30    1
    13    33    34    1
    14    33    31    1
    15    30    29    1
    16    31    29    1
    17    31    32    1
    18    29    28    1
    19    26    24    2
    20    27    28    1
    21    27    24    1
    22    25    24    1
    23    24    23    1
    24    23     1    1
    25     3     1    2
    26     1     4    1
    27     1     2    1
    28     4     5    1
    29     5     6    1
    30     6     8    1
    31     6     7    1
    32     9     8    1
    33     8    10    1
    34     7    12    1
    35    12    10    1
    36    12    13    1
    37    10    11    1
    38    46    45    2
    39    13    14    1
    40    13    22    1
    41    11    45    1
    42    14    15    1
    43    45    48    1
    44    45    47    1
    45    22    21    2
    46    22    16    1
    47    21    20    1
    48    15    16    2
    49    16    17    1
    50    20    19    1
    51    17    19    2
    52    17    18    1
