@<TRIPOS>MOLECULE
3gwf_NAP_A_1.pdb
 48 52 0 0 0
SMALL
GASTEIGER

@<TRIPOS>ATOM
      1  PA        -8.6350    1.4580    7.1910 P.3   542  NAP542      0.2189
      2  O1A       -9.8920    1.7590    6.4590 O.2   542  NAP542     -0.5170
      3  O2A       -8.2590    2.5250    8.1500 O.3   542  NAP542     -0.4371
      4  O5B       -7.4750    1.2210    6.1020 O.3   542  NAP542     -0.3112
      5  C5B       -7.7540    0.5410    4.9030 C.3   542  NAP542      0.1813
      6  C4B       -6.4940    0.5480    4.0350 C.3   542  NAP542      0.1820
      7  O4B       -6.7110   -0.2550    2.8960 O.3   542  NAP542     -0.3136
      8  C3B       -6.1680    1.9410    3.5220 C.3   542  NAP542      0.2157
      9  O3B       -4.7710    2.0180    3.3030 O.3   542  NAP542     -0.2175
     10  C2B       -6.8870    1.9510    2.2000 C.3   542  NAP542      0.2314
     11  O2B       -6.3280    2.9230    1.3490 O.3   542  NAP542     -0.2630
     12  C1B       -6.6750    0.5200    1.7150 C.3   542  NAP542      0.3158
     13  N9A       -7.6970    0.0010    0.7790 N.pl3 542  NAP542     -0.1439
     14  C8A       -9.0550   -0.1020    1.0010 C.3   542  NAP542      0.3377
     15  N7A       -9.6250   -0.6520   -0.0980 N.2   542  NAP542     -0.2095
     16  C5A       -8.6630   -0.9150   -1.0110 C.2   542  NAP542      0.2526
     17  C6A       -8.7040   -1.4680   -2.2950 C.2   542  NAP542      0.4393
     18  N6A       -9.8540   -1.8530   -2.8440 N.pl3 542  NAP542      0.2180
     19  N1A       -7.5310   -1.6120   -3.0030 N.2   542  NAP542      0.0021
     20  C2A       -6.3310   -1.2040   -2.4470 C.3   542  NAP542      0.5254
     21  N3A       -6.2950   -0.6610   -1.1760 N.2   542  NAP542     -0.0055
     22  C4A       -7.4430   -0.5140   -0.4700 C.2   542  NAP542      0.3518
     23  O3        -8.7640    0.0010    7.8970 O.3   542  NAP542     -0.2703
     24  PN        -7.9670   -0.5640    9.2050 P.3   542  NAP542      0.2189
     25  O1N       -6.6030   -0.0160    9.2830 O.3   542  NAP542     -0.4371
     26  O2N       -8.1610   -2.0420    9.1870 O.2   542  NAP542     -0.5170
     27  O5D       -8.8440   -0.0020   10.4360 O.3   542  NAP542     -0.3112
     28  C5D      -10.2290   -0.3210   10.4980 C.3   542  NAP542      0.1813
     29  C4D      -11.0220    0.7080   11.2910 C.3   542  NAP542      0.1799
     30  O4D      -10.7730    0.5240   12.6670 O.3   542  NAP542     -0.3327
     31  C3D      -10.6680    2.1490   10.9450 C.3   542  NAP542      0.2158
     32  O3D      -11.8690    2.8460   10.7040 O.3   542  NAP542     -0.2175
     33  C2D       -9.9560    2.7160   12.1610 C.3   542  NAP542      0.2309
     34  O2D      -10.4630    3.9830   12.5250 O.3   542  NAP542     -0.2158
     35  C1D      -10.2230    1.6930   13.2620 C.3   542  NAP542      0.2263
     36  N1N       -8.9830    1.3660   13.9970 N.pl3 542  NAP542     -0.2787
     37  C2N       -8.7020    2.0570   15.1390 C.3   542  NAP542      0.1244
     38  C3N       -7.5440    1.7710   15.8470 C.2   542  NAP542      0.0544
     39  C7N       -7.2510    2.5340   17.0940 C.2   542  NAP542      0.2818
     40  O7N       -5.9340    2.5070   17.5910 O.2   542  NAP542     -0.2670
     41  N7N       -8.2390    3.1950   17.6940 N.am  542  NAP542     -0.0839
     42  C4N       -6.6630    0.7830   15.4080 C.2   542  NAP542      0.0033
     43  C5N       -6.9610    0.0720   14.2520 C.2   542  NAP542      0.0157
     44  C6N       -8.1280    0.3800   13.5540 C.2   542  NAP542      0.0633
     45  P2B       -7.0870    4.3350    1.1520 P.3   542  NAP542      0.5328
     46  O1X       -6.6670    5.2580    2.2710 O.3   542  NAP542     -0.1145
     47  O2X       -6.7280    4.8850   -0.2070 O.2   542  NAP542     -0.2224
     48  O3X       -8.5760    4.1200    1.2360 O.3   542  NAP542     -0.1145
@<TRIPOS>BOND
     1    19    20    1
     2    19    17    2
     3    18    17    1
     4    20    21    1
     5    17    16    1
     6    21    22    2
     7    16    22    1
     8    16    15    2
     9    22    13    1
    10    47    45    2
    11    15    14    1
    12    13    14    1
    13    13    12    1
    14    45    48    1
    15    45    11    1
    16    45    46    1
    17    11    10    1
    18    12    10    1
    19    12     7    1
    20    10     8    1
    21     7     6    1
    22     9     8    1
    23     8     6    1
    24     6     5    1
    25     5     4    1
    26     4     1    1
    27     2     1    2
    28     1    23    1
    29     1     3    1
    30    23    24    1
    31    26    24    2
    32    24    25    1
    33    24    27    1
    34    27    28    1
    35    28    29    1
    36    32    31    1
    37    31    29    1
    38    31    33    1
    39    29    30    1
    40    33    34    1
    41    33    35    1
    42    30    35    1
    43    35    36    1
    44    44    36    1
    45    44    43    2
    46    36    37    1
    47    43    42    1
    48    37    38    1
    49    42    38    2
    50    38    39    1
    51    39    40    2
    52    39    41   am
