@<TRIPOS>MOLECULE
3gwj_GLC_A_1.pdb
 11 11 0 0 0
SMALL
GASTEIGER

@<TRIPOS>ATOM
      1  C1        -1.3570   -1.9690    6.8380 C.3   807  GLC807      0.1777
      2  C2         0.0910   -2.1080    7.3430 C.3   807  GLC807      0.2141
      3  C3         0.1830   -1.6780    8.7960 C.3   807  GLC807      0.2173
      4  C4        -0.1940   -0.2080    8.8970 C.3   807  GLC807      0.2142
      5  C5        -1.5420    0.0710    8.2300 C.3   807  GLC807      0.1810
      6  C6        -1.5490    1.1210    7.1480 C.3   807  GLC807      0.2141
      7  O2         0.5230   -3.4600    7.2220 O.3   807  GLC807     -0.2176
      8  O3         1.5070   -1.8770    9.2790 O.3   807  GLC807     -0.2175
      9  O4        -0.2750    0.1610   10.2640 O.3   807  GLC807     -0.2176
     10  O5        -2.1470   -1.1320    7.6930 O.3   807  GLC807     -0.3481
     11  O6        -2.7930    1.8090    7.1360 O.3   807  GLC807     -0.2176
@<TRIPOS>BOND
     1     1     2    1
     2     1    10    1
     3    11     6    1
     4     6     5    1
     5     7     2    1
     6     2     3    1
     7    10     5    1
     8     5     4    1
     9     3     4    1
    10     3     8    1
    11     4     9    1
