@<TRIPOS>MOLECULE
3gwj_MAN_A_1.pdb
 11 11 0 0 0
SMALL
GASTEIGER

@<TRIPOS>ATOM
      1  C1        -9.5310   -4.9150    1.9260 C.3   804  MAN804      0.1777
      2  C2        -9.7450   -4.0370    3.1590 C.3   804  MAN804      0.2141
      3  C3       -11.1430   -3.4280    3.1320 C.3   804  MAN804      0.2173
      4  C4       -11.3190   -2.6360    1.8420 C.3   804  MAN804      0.2142
      5  C5       -11.0840   -3.5580    0.6410 C.3   804  MAN804      0.1810
      6  C6       -11.1350   -2.8100   -0.6790 C.3   804  MAN804      0.2141
      7  O2        -8.7800   -2.9740    3.1580 O.3   804  MAN804     -0.2176
      8  O3       -11.3080   -2.5650    4.2470 O.3   804  MAN804     -0.2175
      9  O4       -12.6240   -2.0840    1.7900 O.3   804  MAN804     -0.2176
     10  O5        -9.7740   -4.1660    0.7320 O.3   804  MAN804     -0.3481
     11  O6       -10.7530   -3.6520   -1.7550 O.3   804  MAN804     -0.2176
@<TRIPOS>BOND
     1    11     6    1
     2     6     5    1
     3     5    10    1
     4     5     4    1
     5    10     1    1
     6     9     4    1
     7     4     3    1
     8     1     2    1
     9     3     2    1
    10     3     8    1
    11     7     2    1
