@<TRIPOS>MOLECULE
3gwo_JEF_A_1.pdb
 21 20 0 0 0
SMALL
GASTEIGER

@<TRIPOS>ATOM
      1  C19       15.9910   -6.9940    9.7380 C.3    55  JEF55       0.0346
      2  C20       16.4690   -6.9070    8.3050 C.3    55  JEF55       0.1422
      3  O         16.6440   -5.5800    7.8350 O.3    55  JEF55      -0.3537
      4  C         17.8630   -5.4430    7.1300 C.3    55  JEF55       0.1448
      5  C18       18.1930   -6.7040    6.3510 C.3    55  JEF55       0.0347
      6  C17       18.0080   -4.1380    6.3270 C.3    55  JEF55       0.1715
      7  OH        16.9880   -3.2220    6.6860 O.3    55  JEF55      -0.3511
      8  C2        17.3520   -1.8330    6.6000 C.3    55  JEF55       0.1449
      9  C1        17.8430   -1.6590    5.1560 C.3    55  JEF55       0.0347
     10  C3        16.1220   -0.9810    7.0090 C.3    55  JEF55       0.1715
     11  O2        16.4870    0.2670    7.6580 O.3    55  JEF55      -0.3511
     12  C5        15.6320    1.0030    8.5480 C.3    55  JEF55       0.1449
     13  C6        15.1530    0.1000    9.6890 C.3    55  JEF55       0.0347
     14  C4        14.5020    1.7160    7.7800 C.3    55  JEF55       0.1715
     15  O3        15.0030    2.4740    6.6640 O.3    55  JEF55      -0.3511
     16  C7        14.0670    3.1570    5.8640 C.3    55  JEF55       0.1449
     17  C9        13.0710    3.8290    6.7850 C.3    55  JEF55       0.0347
     18  C8        14.7570    4.2690    5.0970 C.3    55  JEF55       0.1715
     19  O4        15.3510    3.7710    3.9100 O.3    55  JEF55      -0.3512
     20  C11       16.1640    4.7820    3.2700 C.3    55  JEF55       0.1424
     21  C12       17.0280    5.3100    4.4020 C.3    55  JEF55       0.0346
@<TRIPOS>BOND
     1    20    19    1
     2    20    21    1
     3    19    18    1
     4    18    16    1
     5     9     8    1
     6    16    15    1
     7    16    17    1
     8     6     7    1
     9     6     4    1
    10     5     4    1
    11     8     7    1
    12     8    10    1
    13    15    14    1
    14    10    11    1
    15     4     3    1
    16    11    12    1
    17    14    12    1
    18     3     2    1
    19     2     1    1
    20    12    13    1
