@<TRIPOS>MOLECULE
3gws_T3_X_1.pdb
 23 24 0 0 0
SMALL
GASTEIGER

@<TRIPOS>ATOM
      1  C1         6.7540   20.8300   27.5330 C.ar  500  T3500      -0.0191
      2  C2         3.4700   18.0600   30.0340 C.ar  500  T3500       0.1460
      3  C3         7.0140   20.4060   28.9320 C.ar  500  T3500       0.0047
      4  C4         3.0840   17.1850   31.1010 C.ar  500  T3500       0.0465
      5  C5         6.2920   19.3900   29.4820 C.ar  500  T3500       0.0647
      6  C6         1.9570   17.4760   31.8880 C.ar  500  T3500       0.0720
      7  C7         5.2900   18.7570   28.7180 C.ar  500  T3500       0.1558
      8  C8         1.2190   18.5980   31.6290 C.ar  500  T3500       0.2012
      9  C9         5.0450   19.1580   27.3620 C.ar  500  T3500       0.0647
     10  C10        1.6140   19.4970   30.5220 C.ar  500  T3500       0.0456
     11  C11        5.7930   20.2090   26.7870 C.ar  500  T3500       0.0047
     12  C12        2.7070   19.2150   29.7580 C.ar  500  T3500       0.0408
     13  C13        7.5750   21.9560   26.9160 C.3   500  T3500       0.0570
     14  C15        8.2510   21.6500   25.5790 C.3   500  T3500       0.1986
     15  C17        9.2900   22.6910   25.2040 C.2   500  T3500       0.3822
     16  I1         6.6770   18.7820   31.4690 I     500  T3500      -0.0393
     17  I2         1.4590   16.1470   33.4570 I     500  T3500      -0.0391
     18  I3         3.5680   18.1570   26.2350 I     500  T3500      -0.0393
     19  N1         8.7460   20.2940   25.4590 N.3   500  T3500      -0.1205
     20  O1         0.0790   18.8970   32.3880 O.3   500  T3500      -0.2861
     21  O2         4.5660   17.6890   29.2450 O.3   500  T3500      -0.4526
     22  O3        10.2350   22.3770   24.5640 O.co2 500  T3500      -0.2440
     23  O4         9.0920   24.0140   25.6110 O.co2 500  T3500      -0.2440
@<TRIPOS>BOND
     1    22    15   ar
     2    15    14    1
     3    15    23   ar
     4    19    14    1
     5    14    13    1
     6    18     9    1
     7    11     9   ar
     8    11     1   ar
     9    13     1    1
    10     9     7   ar
    11     1     3   ar
    12     7    21    1
    13     7     5   ar
    14     3     5   ar
    15    21     2    1
    16     5    16    1
    17    12     2   ar
    18    12    10   ar
    19     2     4   ar
    20    10     8   ar
    21     4     6   ar
    22     8     6   ar
    23     8    20    1
    24     6    17    1
