@<TRIPOS>MOLECULE
3gwt_066_A_1.pdb
 37 40 0 0 0
SMALL
GASTEIGER

@<TRIPOS>ATOM
      1  O5        44.0530   46.0630   61.6620 O.2     1  0661       -0.2666
      2  C26       43.6220   45.8360   62.7810 C.2     1  0661        0.2870
      3  N4        42.4210   45.2780   62.9690 N.am    1  0661       -0.0836
      4  C8        44.4500   46.2530   63.9850 C.ar    1  0661        0.0910
      5  C9        43.8350   46.2940   65.2340 C.ar    1  0661        0.1047
      6  N2        44.4700   46.7120   66.3520 N.ar    1  0661       -0.2439
      7  C10       45.7380   47.1390   66.2630 C.ar    1  0661        0.0787
      8  C16       46.4130   47.1630   65.0420 C.ar    1  0661        0.0341
      9  C15       47.7360   47.6170   64.9820 C.ar    1  0661        0.0215
     10  C14       48.3750   48.0540   66.1460 C.ar    1  0661        0.1101
     11  S         50.0300   48.6840   66.0440 S.O2    1  0661        0.0274
     12  O3        50.4000   48.6620   64.6550 O.2     1  0661       -0.1642
     13  C17       51.1110   47.6430   66.9220 C.ar    1  0661        0.1104
     14  C22       51.4520   46.4770   66.3150 C.ar    1  0661        0.0233
     15  C21       52.3090   45.6140   66.9360 C.ar    1  0661        0.0549
     16  C23       52.5960   44.3780   66.1690 C.2     1  0661        0.2492
     17  N3        52.9680   44.5120   64.8880 N.am    1  0661       -0.2726
     18  C25       53.4160   43.3940   64.1040 C.3     1  0661        0.1152
     19  C24       52.9620   45.7780   64.1520 C.3     1  0661        0.1152
     20  O4        52.4410   43.3100   66.7300 O.2     1  0661       -0.2699
     21  C20       52.8340   45.9010   68.1910 C.ar    1  0661        0.0046
     22  C19       52.4970   47.1020   68.8110 C.ar    1  0661        0.0015
     23  C18       51.6290   47.9830   68.1690 C.ar    1  0661        0.0188
     24  O2        50.0920   49.9530   66.7220 O.2     1  0661       -0.1642
     25  C13       47.6860   48.0290   67.3590 C.ar    1  0661        0.0160
     26  C11       46.3720   47.5720   67.4230 C.ar    1  0661       -0.0029
     27  C12       45.6210   47.5380   68.7240 C.3     1  0661        0.0326
     28  C7        45.7650   46.7210   63.8780 C.ar    1  0661        0.0779
     29  N1        46.4540   46.7160   62.6990 N.pl3   1  0661       -0.2121
     30  C6        47.6140   45.9730   62.6520 C.ar    1  0661        0.0735
     31  C27       48.4850   46.0740   61.5800 C.ar    1  0661        0.0534
     32  C5        47.9690   45.0810   63.6680 C.ar    1  0661        0.0167
     33  C4        49.1540   44.3060   63.6060 C.ar    1  0661        0.0044
     34  C3        50.0240   44.4320   62.5280 C.ar    1  0661        0.0370
     35  C2        49.6630   45.3230   61.5150 C.ar    1  0661        0.1400
     36  O1        50.4770   45.4850   60.4310 O.3     1  0661       -0.4714
     37  C1        50.0800   46.3110   59.3470 C.3     1  0661        0.2525
@<TRIPOS>BOND
     1    37    36    1
     2    36    35    1
     3    35    31   ar
     4    35    34   ar
     5    31    30   ar
     6     1     2    2
     7    34    33   ar
     8    30    29    1
     9    30    32   ar
    10    29    28    1
    11     2     3   am
    12     2     4    1
    13    33    32   ar
    14    28     4   ar
    15    28     8   ar
    16     4     5   ar
    17    18    17    1
    18    19    17    1
    19    12    11    2
    20    17    16   am
    21     9     8   ar
    22     9    10   ar
    23     8     7   ar
    24     5     6   ar
    25    11    10    1
    26    11    24    2
    27    11    13    1
    28    10    25   ar
    29    16    20    2
    30    16    15    1
    31     7     6   ar
    32     7    26   ar
    33    14    13   ar
    34    14    15   ar
    35    13    23   ar
    36    15    21   ar
    37    25    26   ar
    38    26    27    1
    39    23    22   ar
    40    21    22   ar
