@<TRIPOS>MOLECULE
3gwu_SRE_A_1.pdb
 20 22 0 0 0
SMALL
GASTEIGER

@<TRIPOS>ATOM
      1 CL19       29.1850   25.6670   20.9190 Cl    801  SRE801     -0.0814
      2  C16       28.3210   24.3370   21.7520 C.ar  801  SRE801      0.0682
      3  C15       27.9210   23.2600   20.9910 C.ar  801  SRE801      0.0679
      4 CL20       28.3030   23.2900   19.2480 Cl    801  SRE801     -0.0814
      5  C17       28.0540   24.3680   23.1210 C.ar  801  SRE801      0.0119
      6  C18       27.3770   23.2940   23.7040 C.ar  801  SRE801     -0.0030
      7  C13       26.9760   22.1970   22.9280 C.ar  801  SRE801     -0.0175
      8  C14       27.2470   22.1830   21.5630 C.ar  801  SRE801      0.0083
      9  C4        26.2490   21.0360   23.5120 C.3   801  SRE801      0.0444
     10  C5        27.0520   20.2860   24.5290 C.ar  801  SRE801     -0.0211
     11  C6        28.4180   20.0890   24.2980 C.ar  801  SRE801     -0.0042
     12  C7        29.2060   19.3810   25.2020 C.ar  801  SRE801     -0.0003
     13  C8        28.6320   18.8660   26.3580 C.ar  801  SRE801     -0.0003
     14  C9        27.2720   19.0520   26.5970 C.ar  801  SRE801     -0.0032
     15  C10       26.4740   19.7550   25.6930 C.ar  801  SRE801     -0.0101
     16  C1        25.0260   19.9110   26.0190 C.3   801  SRE801      0.0947
     17  N11       24.8540   20.8810   27.0950 N.3   801  SRE801     -0.2135
     18  C12       23.5360   21.1370   27.6580 C.3   801  SRE801      0.1078
     19  C2        24.2260   20.3160   24.7800 C.3   801  SRE801      0.0225
     20  C3        24.8970   21.4840   24.0700 C.3   801  SRE801      0.0105
@<TRIPOS>BOND
     1     4     3    1
     2     1     2    1
     3     3     8   ar
     4     3     2   ar
     5     8     7   ar
     6     2     5   ar
     7     7     9    1
     8     7     6   ar
     9     5     6   ar
    10     9    20    1
    11     9    10    1
    12    20    19    1
    13    11    10   ar
    14    11    12   ar
    15    10    15   ar
    16    19    16    1
    17    12    13   ar
    18    15    16    1
    19    15    14   ar
    20    16    17    1
    21    13    14   ar
    22    17    18    1
