@<TRIPOS>MOLECULE
3gwv_RFX_A_1.pdb
 22 23 0 0 0
SMALL
GASTEIGER

@<TRIPOS>ATOM
      1  F14       27.2850   25.1570   19.2720 F     801  RFX801     -0.1659
      2  C12       28.3210   24.7390   19.9700 C.3   801  RFX801      0.4186
      3  F15       28.9740   25.8030   20.3920 F     801  RFX801     -0.1659
      4  F13       29.1130   24.0210   19.2000 F     801  RFX801     -0.1659
      5  C9        27.8530   23.9030   21.1340 C.ar  801  RFX801      0.0716
      6  C10       28.2450   24.2330   22.4320 C.ar  801  RFX801      0.0070
      7  C11       27.8170   23.4620   23.5130 C.ar  801  RFX801      0.0369
      8  C6        26.9950   22.3520   23.3130 C.ar  801  RFX801      0.1388
      9  C7        26.5940   22.0220   22.0120 C.ar  801  RFX801      0.0369
     10  C8        27.0280   22.7940   20.9270 C.ar  801  RFX801      0.0070
     11  O5        26.5880   21.6380   24.4210 O.3   801  RFX801     -0.4747
     12  C3        26.3090   20.2340   24.4430 C.3   801  RFX801      0.1896
     13  C2        25.2390   19.9490   25.4940 C.3   801  RFX801      0.0670
     14  C1        23.9160   19.5580   24.8450 C.3   801  RFX801      0.0928
     15  N4        22.9530   20.6440   24.8690 N.3   801  RFX801     -0.2164
     16  C22       21.7900   20.5640   25.7350 C.3   801  RFX801      0.1075
     17  C16       27.5450   19.4840   24.7680 C.ar  801  RFX801      0.0172
     18  C21       27.6800   18.1590   24.3590 C.ar  801  RFX801     -0.0008
     19  C20       28.8350   17.4370   24.6450 C.ar  801  RFX801     -0.0002
     20  C19       29.8650   18.0470   25.3510 C.ar  801  RFX801     -0.0000
     21  C18       29.7330   19.3720   25.7640 C.ar  801  RFX801     -0.0002
     22  C17       28.5790   20.0950   25.4760 C.ar  801  RFX801     -0.0008
@<TRIPOS>BOND
     1     4     2    1
     2     1     2    1
     3     2     3    1
     4     2     5    1
     5    10     5   ar
     6    10     9   ar
     7     5     6   ar
     8     9     8   ar
     9     6     7   ar
    10     8     7   ar
    11     8    11    1
    12    18    19   ar
    13    18    17   ar
    14    11    12    1
    15    12    17    1
    16    12    13    1
    17    19    20   ar
    18    17    22   ar
    19    14    15    1
    20    14    13    1
    21    15    16    1
    22    20    21   ar
    23    22    21   ar
