@<TRIPOS>MOLECULE
3gww_SFX_A_1.pdb
 22 23 0 0 0
SMALL
GASTEIGER

@<TRIPOS>ATOM
      1  F15       28.6310   24.0470   19.2590 F     801  SFX801     -0.1659
      2  C12       27.8130   24.5380   20.1680 C.3   801  SFX801      0.4186
      3  F13       26.6790   24.9030   19.5960 F     801  SFX801     -0.1659
      4  F14       28.3760   25.5930   20.7270 F     801  SFX801     -0.1659
      5  C9        27.5440   23.4780   21.1970 C.ar  801  SFX801      0.0716
      6  C8        27.9580   23.6640   22.5170 C.ar  801  SFX801      0.0070
      7  C7        27.7110   22.6790   23.4710 C.ar  801  SFX801      0.0369
      8  C6        27.0500   21.5070   23.1090 C.ar  801  SFX801      0.1388
      9  C11       26.6370   21.3170   21.7840 C.ar  801  SFX801      0.0369
     10  C10       26.8840   22.3020   20.8290 C.ar  801  SFX801      0.0070
     11  O5        26.8260   20.5660   24.0840 O.3   801  SFX801     -0.4747
     12  C3        26.0580   19.3770   23.8770 C.3   801  SFX801      0.1896
     13  C2        26.4320   18.3540   24.9520 C.3   801  SFX801      0.0670
     14  C1        27.9530   18.2080   25.0380 C.3   801  SFX801      0.0928
     15  N4        28.4010   16.8520   25.3040 N.3   801  SFX801     -0.2164
     16  C22       28.9220   16.0250   24.2290 C.3   801  SFX801      0.1075
     17  C16       24.5980   19.6850   23.8680 C.ar  801  SFX801      0.0172
     18  C17       23.7960   19.1640   22.8490 C.ar  801  SFX801     -0.0008
     19  C18       22.4280   19.4410   22.8160 C.ar  801  SFX801     -0.0002
     20  C19       21.8540   20.2480   23.7990 C.ar  801  SFX801     -0.0000
     21  C20       22.6510   20.7740   24.8160 C.ar  801  SFX801     -0.0002
     22  C21       24.0190   20.4980   24.8500 C.ar  801  SFX801     -0.0008
@<TRIPOS>BOND
     1     1     2    1
     2     3     2    1
     3     2     4    1
     4     2     5    1
     5    10     5   ar
     6    10     9   ar
     7     5     6   ar
     8     9     8   ar
     9     6     7   ar
    10    19    18   ar
    11    19    20   ar
    12    18    17   ar
    13     8     7   ar
    14     8    11    1
    15    20    21   ar
    16    17    12    1
    17    17    22   ar
    18    12    11    1
    19    12    13    1
    20    16    15    1
    21    21    22   ar
    22    13    14    1
    23    14    15    1
