@<TRIPOS>MOLECULE
3gwx_EPA_A_1.pdb
 22 21 0 0 0
SMALL
GASTEIGER

@<TRIPOS>ATOM
      1  C1        35.2730   12.1360   61.7350 C.2     1  EPA1        0.3649
      2  OA        34.4850   13.0750   61.9770 O.co2   1  EPA1       -0.2457
      3  OB        36.2310   11.8620   62.5240 O.co2   1  EPA1       -0.2457
      4  C2        35.0620   11.3240   60.4380 C.3     1  EPA1        0.1144
      5  C3        35.2530    9.8000   60.6270 C.3     1  EPA1        0.0165
      6  C4        35.0240    9.1900   59.2230 C.3     1  EPA1        0.0263
      7  C5        35.2220    7.6510   59.1200 C.2     1  EPA1       -0.0304
      8  C6        34.2240    6.7670   59.2710 C.2     1  EPA1       -0.0260
      9  C7        32.8570    7.2170   59.5780 C.3     1  EPA1        0.0513
     10  C8        31.8960    6.9060   58.4600 C.2     1  EPA1       -0.0257
     11  C9        30.5870    7.0900   58.6680 C.2     1  EPA1       -0.0257
     12  C10       30.0590    7.6010   59.9920 C.3     1  EPA1        0.0513
     13  C11       29.1350    8.7640   59.7240 C.2     1  EPA1       -0.0257
     14  C12       27.8580    8.7800   60.1850 C.2     1  EPA1       -0.0257
     15  C13       27.2020    7.6620   60.9890 C.3     1  EPA1        0.0513
     16  C14       26.4500    8.2610   62.1380 C.2     1  EPA1       -0.0257
     17  C15       25.1970    8.0900   62.5490 C.2     1  EPA1       -0.0257
     18  C16       24.0940    7.2290   61.9490 C.3     1  EPA1        0.0513
     19  C17       22.7550    7.9330   61.8760 C.2     1  EPA1       -0.0260
     20  C18       22.4130    9.0390   61.1600 C.2     1  EPA1       -0.0304
     21  C19       23.2550    9.9010   60.2500 C.3     1  EPA1        0.0257
     22  C20       22.9110    9.4190   58.8640 C.3     1  EPA1        0.0050
@<TRIPOS>BOND
     1    10    11    2
     2    10     9    1
     3    11    12    1
     4    22    21    1
     5     7     6    1
     6     7     8    2
     7     6     5    1
     8     8     9    1
     9    13    12    1
    10    13    14    2
    11    14    15    1
    12    21    20    1
    13     4     5    1
    14     4     1    1
    15    15    16    1
    16    20    19    2
    17     1     2   ar
    18     1     3   ar
    19    19    18    1
    20    18    17    1
    21    16    17    2
