@<TRIPOS>MOLECULE
3gwz_SAH_A_1.pdb
 26 28 0 0 0
SMALL
GASTEIGER

@<TRIPOS>ATOM
      1  N         13.6290   87.9980   -2.6190 N.3   352  SAH352     -0.1208
      2  CA        14.1120   88.8530   -1.4810 C.3   352  SAH352      0.1952
      3  CB        15.0890   89.9670   -1.9070 C.3   352  SAH352      0.0422
      4  CG        14.5650   90.9820   -2.9410 C.3   352  SAH352      0.0597
      5  SD        15.7500   92.2870   -3.2440 S.3   352  SAH352     -0.1375
      6  C         12.9300   89.4640   -0.7830 C.2   352  SAH352      0.3819
      7  O         13.0670   89.9410    0.3480 O.co2 352  SAH352     -0.2441
      8  OXT       11.8140   89.4880   -1.3200 O.co2 352  SAH352     -0.2441
      9  C5'       16.5030   91.6710   -4.7370 C.3   352  SAH352      0.0899
     10  C4'       17.6240   90.6400   -4.4910 C.3   352  SAH352      0.1630
     11  O4'       18.2670   90.2080   -5.7130 O.3   352  SAH352     -0.3153
     12  C3'       18.7680   91.0840   -3.5730 C.3   352  SAH352      0.2168
     13  O3'       18.7440   90.2860   -2.3790 O.3   352  SAH352     -0.2175
     14  C2'       20.0600   90.8130   -4.3480 C.3   352  SAH352      0.2569
     15  O2'       21.0930   90.2080   -3.5600 O.3   352  SAH352     -0.2130
     16  C1'       19.6130   89.8060   -5.3820 C.3   352  SAH352      0.3185
     17  N9        20.3970   89.8110   -6.6370 N.pl3 352  SAH352     -0.1439
     18  C8        20.6960   90.8910   -7.3940 C.3   352  SAH352      0.3377
     19  N7        21.3980   90.5200   -8.4950 N.2   352  SAH352     -0.2095
     20  C5        21.5350   89.1730   -8.4450 C.2   352  SAH352      0.2526
     21  C6        22.1530   88.1370   -9.2950 C.2   352  SAH352      0.4393
     22  N6        22.7730   88.5140  -10.4390 N.pl3 352  SAH352      0.2180
     23  N1        22.0820   86.8410   -8.8860 N.2   352  SAH352      0.0021
     24  C2        21.4630   86.4940   -7.7480 C.3   352  SAH352      0.5254
     25  N3        20.8730   87.3870   -6.9250 N.2   352  SAH352     -0.0055
     26  C4        20.8770   88.7110   -7.2210 C.2   352  SAH352      0.3518
@<TRIPOS>BOND
     1    22    21    1
     2    21    23    2
     3    21    20    1
     4    23    24    1
     5    19    20    2
     6    19    18    1
     7    20    26    1
     8    24    25    1
     9    18    17    1
    10    26    25    2
    11    26    17    1
    12    17    16    1
    13    11    16    1
    14    11    10    1
    15    16    14    1
    16     9    10    1
    17     9     5    1
    18    10    12    1
    19    14    12    1
    20    14    15    1
    21    12    13    1
    22     5     4    1
    23     4     3    1
    24     1     2    1
    25     3     2    1
    26     2     6    1
    27     8     6   ar
    28     6     7   ar
