@<TRIPOS>MOLECULE
3gx0_GDS_A_1.pdb
 40 39 0 0 0
SMALL
GASTEIGER

@<TRIPOS>ATOM
      1  N1        28.5050   43.3690   52.6740 N.3   301  GDS301     -0.1208
      2  CA1       29.1170   42.6390   51.5640 C.3   301  GDS301      0.1948
      3  C1        30.6390   42.7150   51.7130 C.2   301  GDS301      0.3819
      4  OE1       31.1300   43.8220   52.0710 O.co2 301  GDS301     -0.2441
      5  OE2       31.2850   41.6510   51.4660 O.co2 301  GDS301     -0.2441
      6  CB1       28.6430   43.1670   50.1740 C.3   301  GDS301      0.0402
      7  CG1       28.9750   42.1580   49.0490 C.3   301  GDS301      0.0889
      8  CD1       28.1870   40.8130   49.1730 C.2   301  GDS301      0.2418
      9  O1        26.9970   40.8010   49.5300 O.2   301  GDS301     -0.2733
     10  N2        28.9030   39.7120   48.8760 N.am  301  GDS301     -0.1968
     11  CA2       28.3560   38.3280   48.9200 C.3   301  GDS301      0.1843
     12  C2        29.2770   37.4440   49.7480 C.2   301  GDS301      0.2627
     13  O2        30.4790   37.7260   49.8340 O.2   301  GDS301     -0.2714
     14  CB2       28.3020   37.7470   47.5070 C.3   301  GDS301      0.0997
     15  SG2       26.9750   38.4120   46.4380 S.3   301  GDS301     -0.0797
     16  N3        28.7060   36.3740   50.3280 N.am  301  GDS301     -0.1917
     17  CA3       29.4900   35.4180   51.1330 C.3   301  GDS301      0.2285
     18  C3        28.7720   34.0640   51.2530 C.2   301  GDS301      0.3865
     19  OE3       28.9360   33.4560   52.3550 O.co2 301  GDS301     -0.2437
     20  OE4       28.0600   33.6650   50.2840 O.co2 301  GDS301     -0.2437
     21  N4        24.2610   41.1860   50.6440 N.am  301  GDS301     -0.1917
     22  CA4       23.5070   42.3500   51.2010 C.3   301  GDS301      0.2285
     23  C4        24.4160   43.1380   52.1650 C.2   301  GDS301      0.3865
     24  OE5       25.5730   42.6700   52.3400 O.co2 301  GDS301     -0.2437
     25  OE6       23.9320   44.1750   52.7010 O.co2 301  GDS301     -0.2437
     26  C5        23.5870   40.1340   50.1530 C.2   301  GDS301      0.2627
     27  O5        22.3440   40.0470   50.1090 O.2   301  GDS301     -0.2714
     28  CA5       24.4640   39.0110   49.5970 C.3   301  GDS301      0.1843
     29  N5        23.9530   37.7400   50.1660 N.am  301  GDS301     -0.1968
     30  CB5       24.4070   39.0950   48.0570 C.3   301  GDS301      0.0997
     31  SG5       25.2090   37.6800   47.2480 S.3   301  GDS301     -0.0797
     32  CA6       24.1470   33.6470   52.8660 C.3   301  GDS301      0.1948
     33  C6        23.4210   32.7160   51.8780 C.2   301  GDS301      0.3819
     34  OE7       22.2830   33.0980   51.5270 O.co2 301  GDS301     -0.2441
     35  OE8       23.9860   31.6500   51.5000 O.co2 301  GDS301     -0.2441
     36  N6        25.1010   32.9150   53.7340 N.3   301  GDS301     -0.1208
     37  CB6       24.8910   34.7500   52.1250 C.3   301  GDS301      0.0402
     38  CG6       23.9520   35.6380   51.3420 C.3   301  GDS301      0.0889
     39  CD6       24.7220   36.8400   50.7820 C.2   301  GDS301      0.2418
     40  O6        25.9490   36.9120   50.8970 O.2   301  GDS301     -0.2733
@<TRIPOS>BOND
     1    15    31    1
     2    15    14    1
     3    31    30    1
     4    14    11    1
     5    30    28    1
     6    10    11    1
     7    10     8   am
     8    11    12    1
     9     7     8    1
    10     7     6    1
    11     8     9    2
    12    28    26    1
    13    28    29    1
    14    12    13    2
    15    12    16   am
    16    27    26    2
    17    26    21   am
    18    29    39   am
    19     6     2    1
    20    20    18   ar
    21    16    17    1
    22    21    22    1
    23    39    40    2
    24    39    38    1
    25    17    18    1
    26    22    23    1
    27    18    19   ar
    28    38    37    1
    29     5     3   ar
    30    35    33   ar
    31    34    33   ar
    32     2     3    1
    33     2     1    1
    34     3     4   ar
    35    33    32    1
    36    37    32    1
    37    23    24   ar
    38    23    25   ar
    39    32    36    1
