@<TRIPOS>MOLECULE
3gx9_FMN_A_1.pdb
 31 33 0 0 0
SMALL
GASTEIGER

@<TRIPOS>ATOM
      1  N1        14.7030   51.2830   24.3310 N.2   400  FMN400     -0.2887
      2  C2        15.5830   52.3210   24.0610 C.1   400  FMN400      0.3669
      3  O2        16.8040   52.1750   24.2000 O.2   400  FMN400     -0.1744
      4  N3        15.1010   53.5410   23.6280 N.2   400  FMN400     -0.2300
      5  C4        13.7690   53.7720   23.4520 C.1   400  FMN400      0.2513
      6  O4        13.3740   54.9330   23.3450 O.2   400  FMN400     -0.2057
      7  C4A       12.8660   52.7490   23.7100 C.2   400  FMN400      0.2706
      8  N5        11.4900   52.9870   23.5580 N.2   400  FMN400     -0.3841
      9  C5A       10.6360   51.9500   23.8960 C.2   400  FMN400      0.1452
     10  C6         9.2830   52.1470   23.7590 C.2   400  FMN400      0.0252
     11  C7         8.3880   51.1430   24.1210 C.2   400  FMN400     -0.0375
     12  C7M        6.9570   51.5650   24.3870 C.3   400  FMN400      0.0268
     13  C8         8.8820   49.9080   24.5480 C.3   400  FMN400      0.0417
     14  C8M        7.9850   48.8670   25.1410 C.3   400  FMN400      0.0091
     15  C9        10.2590   49.6970   24.6780 C.2   400  FMN400     -0.0049
     16  C9A       11.1360   50.7030   24.3430 C.2   400  FMN400      0.0795
     17  N10       12.5000   50.4910   24.4750 N.pl3 400  FMN400     -0.2545
     18  C10       13.3580   51.5110   24.1650 C.2   400  FMN400      0.2449
     19  C1'       13.0500   49.2910   25.1500 C.3   400  FMN400      0.1336
     20  C2'       12.8780   49.5890   26.6690 C.3   400  FMN400      0.2048
     21  O2'       13.8070   50.6060   27.0750 O.3   400  FMN400     -0.2185
     22  C3'       12.9810   48.2810   27.4690 C.3   400  FMN400      0.2165
     23  O3'       14.3380   47.8930   27.3280 O.3   400  FMN400     -0.2175
     24  C4'       12.0300   47.1240   26.9640 C.3   400  FMN400      0.2147
     25  O4'       10.6800   47.4550   27.1830 O.3   400  FMN400     -0.2176
     26  C5'       12.2210   45.8060   27.7280 C.3   400  FMN400      0.1892
     27  O5'       12.0520   45.9920   29.1490 O.3   400  FMN400     -0.2674
     28  P         10.6480   45.7580   29.8740 P.3   400  FMN400      0.5327
     29  O1P        9.6190   46.7420   29.2460 O.2   400  FMN400     -0.2224
     30  O2P       10.3670   44.2990   29.7070 O.3   400  FMN400     -0.1145
     31  O3P       10.7160   45.9210   31.3920 O.3   400  FMN400     -0.1145
@<TRIPOS>BOND
     1     6     5    2
     2     5     4    2
     3     5     7    1
     4     8     7    2
     5     8     9    2
     6     4     2    2
     7     7    18    1
     8    10     9    1
     9    10    11    2
    10     9    16    1
    11     2     3    2
    12     2     1    2
    13    11    12    1
    14    11    13    1
    15    18     1    2
    16    18    17    1
    17    16    17    1
    18    16    15    2
    19    17    19    1
    20    13    15    1
    21    13    14    1
    22    19    20    1
    23    20    21    1
    24    20    22    1
    25    24    25    1
    26    24    22    1
    27    24    26    1
    28    23    22    1
    29    26    27    1
    30    27    28    1
    31    29    28    2
    32    30    28    1
    33    28    31    1
