@<TRIPOS>MOLECULE
3gx9_TXD_A_1.pdb
 26 28 0 0 0
SMALL
GASTEIGER

@<TRIPOS>ATOM
      1  PN         6.3930   47.5900   18.9770 P.3   600  TXD600      0.3991
      2  O1N        5.2380   46.7250   18.4800 O.3   600  TXD600     -0.1422
      3  O2N        7.7950   47.2200   18.5410 O.3   600  TXD600     -0.1422
      4  O3         6.2020   49.0640   18.3960 O.3   600  TXD600     -0.2513
      5  PA         5.6940   49.3500   16.9050 P.3   600  TXD600      0.2204
      6  O2P        6.4930   48.4170   16.0250 O.2   600  TXD600     -0.5170
      7  O1P        4.1990   49.5100   16.8820 O.3   600  TXD600     -0.4371
      8  O5'        6.2150   50.8290   16.6360 O.3   600  TXD600     -0.3112
      9  C5'        7.6200   51.0790   16.5770 C.3   600  TXD600      0.1813
     10  C4'        7.8060   52.6030   16.5890 C.3   600  TXD600      0.1821
     11  C3'        7.5120   53.2490   17.9430 C.3   600  TXD600      0.2184
     12  O3'        8.5640   53.1850   18.9010 O.3   600  TXD600     -0.2174
     13  C2'        7.0220   54.6490   17.6130 C.3   600  TXD600      0.2570
     14  O2'        8.0940   55.5900   17.4600 O.3   600  TXD600     -0.2130
     15  C1'        6.2970   54.4060   16.2770 C.3   600  TXD600      0.3186
     16  O4'        6.8150   53.1900   15.7290 O.3   600  TXD600     -0.3135
     17  N9A        4.8070   54.2780   16.4000 N.pl3 600  TXD600     -0.1439
     18  C4A        4.0090   55.3210   16.6190 C.2   600  TXD600      0.3518
     19  N3A        4.3130   56.6360   16.7770 N.2   600  TXD600     -0.0055
     20  C2A        3.3390   57.5460   16.9830 C.3   600  TXD600      0.5254
     21  N1A        2.0390   57.1580   17.0380 N.2   600  TXD600      0.0021
     22  C6A        1.6530   55.8460   16.8830 C.2   600  TXD600      0.4393
     23  N6A        0.3120   55.5720   16.9580 N.pl3 600  TXD600      0.2180
     24  C5A        2.6720   54.8650   16.6540 C.2   600  TXD600      0.2526
     25  N7A        2.7190   53.4990   16.4660 N.2   600  TXD600     -0.2095
     26  C8A        4.0330   53.1600   16.3000 C.3   600  TXD600      0.3377
@<TRIPOS>BOND
     1    16    15    1
     2    16    10    1
     3     6     5    2
     4    15    17    1
     5    15    13    1
     6    26    17    1
     7    26    25    1
     8    17    18    1
     9    25    24    2
    10     9    10    1
    11     9     8    1
    12    10    11    1
    13    18    24    1
    14    18    19    2
    15     8     5    1
    16    24    22    1
    17    19    20    1
    18     7     5    1
    19    22    23    1
    20    22    21    2
    21     5     4    1
    22    20    21    1
    23    14    13    1
    24    13    11    1
    25    11    12    1
    26     4     1    1
    27     2     1    1
    28     3     1    1
