@<TRIPOS>MOLECULE
3gxd_NAG_A_1.pdb
 14 14 0 0 0
SMALL
GASTEIGER

@<TRIPOS>ATOM
      1  C1       -23.7770  -19.3830   69.5740 C.3   513  NAG513      0.1665
      2  C2       -23.8980  -20.8180   70.1130 C.3   513  NAG513      0.1576
      3  C3       -23.9080  -20.9110   71.6490 C.3   513  NAG513      0.2069
      4  C4       -22.9060  -19.9800   72.3580 C.3   513  NAG513      0.2134
      5  C5       -22.7400  -18.6350   71.6300 C.3   513  NAG513      0.1809
      6  C6       -21.4370  -17.9960   72.1140 C.3   513  NAG513      0.2141
      7  C7       -25.0110  -22.7080   68.9370 C.2   513  NAG513      0.2420
      8  C8       -26.3390  -23.1890   68.3720 C.3   513  NAG513      0.0964
      9  N2       -25.0720  -21.5150   69.5710 N.am  513  NAG513     -0.2019
     10  O3       -23.5400  -22.2350   71.9850 O.3   513  NAG513     -0.2184
     11  O4       -23.1790  -19.8730   73.7670 O.3   513  NAG513     -0.2176
     12  O5       -22.6740  -18.7650   70.2010 O.3   513  NAG513     -0.3489
     13  O6       -20.2770  -18.5640   71.5330 O.3   513  NAG513     -0.2176
     14  O7       -23.9640  -23.3830   68.8110 O.2   513  NAG513     -0.2733
@<TRIPOS>BOND
     1     8     7    1
     2    14     7    2
     3     7     9   am
     4     9     2    1
     5     1     2    1
     6     1    12    1
     7     2     3    1
     8    12     5    1
     9    13     6    1
    10     5     6    1
    11     5     4    1
    12     3    10    1
    13     3     4    1
    14     4    11    1
