@<TRIPOS>MOLECULE
3gxe_III_E_1.pdb
 12 11 0 0 0
SMALL
GASTEIGER

@<TRIPOS>ATOM
      1  N         52.8590    0.8910  -28.6270 N.3   254  GLY254     -0.1210
      2  CA        52.6520    0.5920  -27.2220 C.3   254  GLY254      0.1956
      3  C         52.3560   -0.8740  -26.9810 C.2   254  GLY254      0.2611
      4  O         53.2660   -1.6680  -26.7410 O.2   254  GLY254     -0.2717
      5  N         51.0790   -1.2360  -27.0430 N.am  255  LEU255     -0.1979
      6  CA        50.6720   -2.6250  -26.8580 C.3   255  LEU255      0.1596
      7  C         49.2180   -2.8360  -27.2770 C.2   255  LEU255      0.2287
      8  O         48.8600   -3.8850  -27.8150 O.2   255  LEU255     -0.2864
      9  CB        50.8720   -3.0580  -25.4020 C.3   255  LEU255      0.0297
     10  CG        49.7450   -2.7790  -24.4020 C.3   255  LEU255      0.0022
     11  CD1       50.1400   -3.2510  -23.0110 C.3   255  LEU255      0.0001
     12  CD2       49.3580   -1.3080  -24.3770 C.3   255  LEU255      0.0001
@<TRIPOS>BOND
     1     1     2    1
     2     8     7    2
     3     7     6    1
     4     2     3    1
     5     5     3   am
     6     5     6    1
     7     3     4    2
     8     6     9    1
     9     9    10    1
    10    10    12    1
    11    10    11    1
