@<TRIPOS>MOLECULE
3gxf_IFM_B_1.pdb
 10 10 0 0 0
SMALL
GASTEIGER

@<TRIPOS>ATOM
      1  O4        11.1070  -12.4050   39.4880 O.3   517  IFM517     -0.2202
      2  C4        10.9750  -11.2850   40.3430 C.3   517  IFM517      0.1874
      3  C3        12.3370  -10.6670   40.7010 C.3   517  IFM517      0.1995
      4  O3        13.1190  -11.4260   41.6310 O.3   517  IFM517     -0.2189
      5  C2        12.3410   -9.2470   41.2480 C.3   517  IFM517      0.1241
      6  N         11.3250   -8.3990   40.6640 N.3   517  IFM517     -0.2151
      7  C1        10.0530   -8.9350   40.1430 C.3   517  IFM517      0.0940
      8  C5        10.1550  -10.3350   39.4850 C.3   517  IFM517      0.0834
      9  C6         8.7500  -10.9220   39.1180 C.3   517  IFM517      0.1861
     10  O6         7.7810  -11.0090   40.2050 O.3   517  IFM517     -0.2203
@<TRIPOS>BOND
     1     9     8    1
     2     9    10    1
     3     8     7    1
     4     8     2    1
     5     1     2    1
     6     7     6    1
     7     2     3    1
     8     6     5    1
     9     3     5    1
    10     3     4    1
