@<TRIPOS>MOLECULE
3gxf_NAG_B_1.pdb
 14 14 0 0 0
SMALL
GASTEIGER

@<TRIPOS>ATOM
      1  C1        16.3420  -27.3910   12.5690 C.3   516  NAG516      0.1665
      2  C2        15.9510  -28.8340   12.2030 C.3   516  NAG516      0.1576
      3  C3        15.6660  -29.1220   10.7010 C.3   516  NAG516      0.2069
      4  C4        15.0390  -27.9700    9.9000 C.3   516  NAG516      0.2134
      5  C5        15.5270  -26.6010   10.4240 C.3   516  NAG516      0.1809
      6  C6        14.7060  -25.4360    9.8840 C.3   516  NAG516      0.2141
      7  C7        16.5240  -30.5880   13.7060 C.2   516  NAG516      0.2420
      8  C8        17.5800  -31.4350   14.3750 C.3   516  NAG516      0.0964
      9  N2        16.9310  -29.7750   12.7350 N.am  516  NAG516     -0.2019
     10  O3        14.7180  -30.1760   10.6320 O.3   516  NAG516     -0.2184
     11  O4        15.1680  -28.1770    8.4860 O.3   516  NAG516     -0.2176
     12  O5        15.4570  -26.5260   11.8470 O.3   516  NAG516     -0.3489
     13  O6        13.3120  -25.6120   10.0230 O.3   516  NAG516     -0.2176
     14  O7        15.3330  -30.6310   14.0430 O.2   516  NAG516     -0.2733
@<TRIPOS>BOND
     1    11     4    1
     2     6    13    1
     3     6     5    1
     4     4     5    1
     5     4     3    1
     6     5    12    1
     7    10     3    1
     8     3     2    1
     9    12     1    1
    10     2     1    1
    11     2     9    1
    12     9     7   am
    13     7    14    2
    14     7     8    1
