@<TRIPOS>MOLECULE
3gxi_NAG_B_1.pdb
 14 14 0 0 0
SMALL
GASTEIGER

@<TRIPOS>ATOM
      1  C1        16.6560  -27.5290   12.9270 C.3   498  NAG498      0.1665
      2  C2        16.3080  -28.9410   12.4500 C.3   498  NAG498      0.1576
      3  C3        16.3660  -29.0860   10.9210 C.3   498  NAG498      0.2069
      4  C4        15.4390  -28.0810   10.2690 C.3   498  NAG498      0.2134
      5  C5        15.5860  -26.6780   10.8590 C.3   498  NAG498      0.1809
      6  C6        14.1750  -26.1410   10.7150 C.3   498  NAG498      0.2141
      7  C7        16.7040  -30.7450   14.0120 C.2   498  NAG498      0.2420
      8  C8        17.7170  -31.6350   14.6450 C.3   498  NAG498      0.0964
      9  N2        17.1710  -29.9120   13.0930 N.am  498  NAG498     -0.2019
     10  O3        15.8800  -30.3630   10.5320 O.3   498  NAG498     -0.2184
     11  O4        15.5350  -28.0530    8.8440 O.3   498  NAG498     -0.2176
     12  O5        15.8190  -26.6140   12.2640 O.3   498  NAG498     -0.3489
     13  O6        14.3080  -25.0260    9.9590 O.3   498  NAG498     -0.2176
     14  O7        15.5170  -30.8120   14.3480 O.2   498  NAG498     -0.2733
@<TRIPOS>BOND
     1    11     4    1
     2    13     6    1
     3     4     5    1
     4     4     3    1
     5    10     3    1
     6     6     5    1
     7     5    12    1
     8     3     2    1
     9    12     1    1
    10     2     1    1
    11     2     9    1
    12     9     7   am
    13     7    14    2
    14     7     8    1
