@<TRIPOS>MOLECULE
3gxl_QIG_A_1.pdb
 27 31 0 0 0
SMALL
GASTEIGER

@<TRIPOS>ATOM
      1  C1        10.5430   63.4270    5.7160 C.3   999  QIG999      0.0619
      2  C2        11.9710   63.6300    5.2890 C.2   999  QIG999      0.0924
      3  C3        12.4230   63.1370    4.0410 C.3   999  QIG999      0.0805
      4  C4        13.7740   63.3590    3.6870 C.2   999  QIG999     -0.0156
      5  C5        14.6400   64.0490    4.5510 C.2   999  QIG999      0.0404
      6  C6        14.1390   64.5220    5.7880 C.2   999  QIG999      0.2147
      7  N7        12.8130   64.3140    6.1560 N.2   999  QIG999     -0.3981
      8  C8        15.0010   65.2550    6.7440 C.1   999  QIG999      0.1695
      9  N9        16.0450   65.9520    6.2370 N.2   999  QIG999     -0.3246
     10  C10       16.8690   66.6410    7.0800 C.2   999  QIG999      0.2030
     11  N11       17.9370   67.3340    6.4620 N.pl3 999  QIG999     -0.1862
     12  C12       18.1890   67.7830    5.1390 C.2   999  QIG999      0.0690
     13  C13       19.5150   68.2030    4.7920 C.2   999  QIG999     -0.0032
     14  C14       19.8420   68.6760    3.4870 C.3   999  QIG999      0.0750
     15  C15       18.7840   68.7140    2.5300 C.2   999  QIG999      0.0865
     16  N16       18.7540   69.1080    1.2150 N.2   999  QIG999     -0.1520
     17  N18       17.5260   68.9890    0.6340 N.2   999  QIG999     -0.1467
     18  C19       16.7490   68.5010    1.6190 C.2   999  QIG999      0.1234
     19  C20       17.4620   68.3060    2.8250 C.2   999  QIG999      0.0378
     20  C21       17.1590   67.8350    4.1460 C.2   999  QIG999      0.0191
     21  C22       16.6650   66.6530    8.4910 C.3   999  QIG999      0.1446
     22  C23       17.4710   67.3440    9.4690 C.2   999  QIG999     -0.0109
     23  C24       17.1590   67.2720   10.8450 C.2   999  QIG999     -0.0036
     24  C25       16.0440   66.5100   11.2690 C.2   999  QIG999      0.0020
     25  C26       15.2340   65.8140   10.3020 C.2   999  QIG999      0.0293
     26  C27       15.5260   65.8760    8.9280 C.2   999  QIG999      0.1333
     27  N28       14.7140   65.1940    8.0750 N.2   999  QIG999     -0.3415
@<TRIPOS>BOND
     1    17    16    1
     2    17    18    2
     3    16    15    2
     4    18    19    1
     5    15    19    1
     6    15    14    1
     7    19    20    2
     8    14    13    1
     9     4     3    1
    10     4     5    2
    11     3     2    1
    12    20    12    1
    13     5     6    1
    14    13    12    2
    15    12    11    1
    16     2     1    1
    17     2     7    2
    18     6     7    2
    19     6     8    1
    20     9     8    2
    21     9    10    2
    22    11    10    1
    23     8    27    2
    24    10    21    1
    25    27    26    2
    26    21    26    1
    27    21    22    1
    28    26    25    1
    29    22    23    2
    30    25    24    2
    31    23    24    1
