@<TRIPOS>MOLECULE
3gxm_NAG_B_1.pdb
 14 14 0 0 0
SMALL
GASTEIGER

@<TRIPOS>ATOM
      1  C1        16.3230  -27.5280   12.8630 C.3   498  NAG498      0.1665
      2  C2        16.0180  -28.9570   12.3790 C.3   498  NAG498      0.1576
      3  C3        16.1300  -29.1060   10.8420 C.3   498  NAG498      0.2069
      4  C4        15.2560  -28.0560   10.1430 C.3   498  NAG498      0.2134
      5  C5        15.7510  -26.6970   10.6640 C.3   498  NAG498      0.1809
      6  C6        15.0470  -25.5140   10.0240 C.3   498  NAG498      0.2141
      7  C7        16.5280  -30.6210   14.1090 C.2   498  NAG498      0.2420
      8  C8        17.6460  -31.4070   14.7130 C.3   498  NAG498      0.0964
      9  N2        16.8960  -29.8980   13.0590 N.am  498  NAG498     -0.2019
     10  O3        15.7750  -30.4060   10.4100 O.3   498  NAG498     -0.2184
     11  O4        15.2030  -28.1890    8.7150 O.3   498  NAG498     -0.2176
     12  O5        15.5060  -26.6550   12.0710 O.3   498  NAG498     -0.3489
     13  O6        13.6610  -25.5740   10.3030 O.3   498  NAG498     -0.2176
     14  O7        15.3800  -30.6610   14.5710 O.2   498  NAG498     -0.2733
@<TRIPOS>BOND
     1    11     4    1
     2     6    13    1
     3     6     5    1
     4     4     5    1
     5     4     3    1
     6    10     3    1
     7     5    12    1
     8     3     2    1
     9    12     1    1
    10     2     1    1
    11     2     9    1
    12     9     7   am
    13     7    14    2
    14     7     8    1
