@<TRIPOS>MOLECULE
3gxn_NAG_A_1.pdb
 14 14 0 0 0
SMALL
GASTEIGER

@<TRIPOS>ATOM
      1  C1        36.5740   -4.1010  -21.0510 C.3   692  NAG692      0.1665
      2  C2        37.9120   -4.1950  -20.3500 C.3   692  NAG692      0.1576
      3  C3        39.0280   -4.4170  -21.3840 C.3   692  NAG692      0.2069
      4  C4        38.7100   -5.6620  -22.2290 C.3   692  NAG692      0.2134
      5  C5        37.2230   -5.7490  -22.5970 C.3   692  NAG692      0.1809
      6  C6        36.9410   -7.1230  -23.2110 C.3   692  NAG692      0.2141
      7  C7        37.2190   -3.0430  -18.4040 C.2   692  NAG692      0.2420
      8  C8        36.6520   -1.7210  -18.0000 C.3   692  NAG692      0.0964
      9  N2        38.0460   -3.0670  -19.4500 N.am  692  NAG692     -0.2019
     10  O3        40.2820   -4.6240  -20.7570 O.3   692  NAG692     -0.2184
     11  O4        39.4710   -5.7040  -23.4210 O.3   692  NAG692     -0.2176
     12  O5        36.3410   -5.4060  -21.5090 O.3   692  NAG692     -0.3489
     13  O6        35.7500   -7.6420  -22.6910 O.3   692  NAG692     -0.2176
     14  O7        36.9000   -4.0610  -17.7950 O.2   692  NAG692     -0.2733
@<TRIPOS>BOND
     1    11     4    1
     2     6    13    1
     3     6     5    1
     4     5     4    1
     5     5    12    1
     6     4     3    1
     7    12     1    1
     8     3    10    1
     9     3     2    1
    10     1     2    1
    11     2     9    1
    12     9     7   am
    13     7     8    1
    14     7    14    2
