@<TRIPOS>MOLECULE
3gxo_MQA_A_1.pdb
 25 28 0 0 0
SMALL
GASTEIGER

@<TRIPOS>ATOM
      1  C1        32.3940    0.5130    1.0210 C.3   351  MQA351      0.1333
      2  C2        31.0780   -0.0340    1.5800 C.3   351  MQA351      0.1126
      3  C3        30.2510   -0.5730    0.4210 C.3   351  MQA351      0.1118
      4  C5        29.2960    0.1710   -2.4980 C.2   351  MQA351      0.2077
      5  C6        29.0220    1.1300   -3.6130 C.2   351  MQA351      0.0554
      6  C7        30.0620    2.1110   -4.0090 C.2   351  MQA351      0.1762
      7  C8        31.3790    2.1780   -3.3330 C.2   351  MQA351      0.2266
      8  C9        32.8320    1.0890   -1.4470 C.3   351  MQA351      0.1148
      9  C10       33.0930    2.4840   -0.8980 C.3   351  MQA351      0.2187
     10  C11       35.5530    2.4290   -1.0970 C.2   351  MQA351      0.4411
     11  O5        28.4460   -0.6720   -2.1400 O.2   351  MQA351     -0.2855
     12  CM6       27.7140    1.1510   -4.3630 C.3   351  MQA351      0.0377
     13  O7        29.7950    3.0110   -4.9840 O.2   351  MQA351     -0.4684
     14  C24       29.5870    4.3370   -4.5010 C.3   351  MQA351      0.2526
     15  O8        32.2410    3.0230   -3.6860 O.2   351  MQA351     -0.2836
     16  C4A       30.6210    0.2390   -1.8240 C.2   351  MQA351      0.0881
     17  C8A       31.6210    1.2100   -2.2450 C.2   351  MQA351      0.0436
     18  N4        31.1140   -0.5600   -0.7750 N.pl3 351  MQA351     -0.2839
     19  C9A       32.4480    0.0070   -0.4200 C.3   351  MQA351      0.1767
     20  O24       33.4130   -1.0370   -0.4980 O.3   351  MQA351     -0.3372
     21  C25       34.7980   -0.7060   -0.4240 C.3   351  MQA351      0.1760
     22  N2        31.2670    1.4030    1.3400 N.3   351  MQA351     -0.2119
     23  O10       34.3650    2.5370   -0.2830 O.3   351  MQA351     -0.4319
     24  O11       36.5940    2.1100   -0.5400 O.2   351  MQA351     -0.2228
     25  N12       35.4740    2.7230   -2.3890 N.am  351  MQA351     -0.0475
@<TRIPOS>BOND
     1    13    14    1
     2    13     6    1
     3    12     5    1
     4     6     5    2
     5     6     7    1
     6    15     7    2
     7     5     4    1
     8     7    17    1
     9     4    11    2
    10     4    16    1
    11    25    10   am
    12    17    16    2
    13    17     8    1
    14    16    18    1
    15     8     9    1
    16     8    19    1
    17    10    24    2
    18    10    23    1
    19     9    23    1
    20    18    19    1
    21    18     3    1
    22    20    21    1
    23    20    19    1
    24    19     1    1
    25     3     2    1
    26     1    22    1
    27     1     2    1
    28    22     2    1
