@<TRIPOS>MOLECULE
3gxo_SAH_A_1.pdb
 26 28 0 0 0
SMALL
GASTEIGER

@<TRIPOS>ATOM
      1  N         30.1400   10.9520   -2.5310 N.3   350  SAH350     -0.1208
      2  CA        29.6610   10.2450   -1.3000 C.3   350  SAH350      0.1952
      3  CB        28.6760    9.1220   -1.6170 C.3   350  SAH350      0.0422
      4  CG        29.2090    8.1150   -2.6440 C.3   350  SAH350      0.0597
      5  SD        27.8920    6.9910   -2.9810 S.3   350  SAH350     -0.1375
      6  C         30.8390    9.6570   -0.5820 C.2   350  SAH350      0.3819
      7  O         31.9140    9.5240   -1.1620 O.co2 350  SAH350     -0.2441
      8  OXT       30.7690    9.3000    0.6000 O.co2 350  SAH350     -0.2441
      9  C5'       27.3310    7.5410   -4.5570 C.3   350  SAH350      0.0899
     10  C4'       26.1540    8.4930   -4.3630 C.3   350  SAH350      0.1630
     11  O4'       25.5780    8.7980   -5.6390 O.3   350  SAH350     -0.3153
     12  C3'       25.0050    7.9580   -3.5000 C.3   350  SAH350      0.2168
     13  O3'       24.8920    8.6950   -2.2800 O.3   350  SAH350     -0.2175
     14  C2'       23.7560    8.1840   -4.3390 C.3   350  SAH350      0.2569
     15  O2'       22.6550    8.7320   -3.6130 O.3   350  SAH350     -0.2130
     16  C1'       24.2380    9.1770   -5.3660 C.3   350  SAH350      0.3185
     17  N9        23.4820    9.0890   -6.6090 N.pl3 350  SAH350     -0.1439
     18  C8        23.2530    7.9640   -7.3180 C.3   350  SAH350      0.3377
     19  N7        22.5250    8.2610   -8.4300 N.2   350  SAH350     -0.2095
     20  C5        22.3050    9.5890   -8.4330 C.2   350  SAH350      0.2526
     21  C6        21.6090   10.5570   -9.3140 C.2   350  SAH350      0.4393
     22  N6        20.9980   10.1210  -10.4350 N.pl3 350  SAH350      0.2180
     23  N1        21.6000   11.8720   -8.9470 N.2   350  SAH350      0.0021
     24  C2        22.2120   12.2980   -7.8190 C.3   350  SAH350      0.5254
     25  N3        22.8590   11.4650   -6.9670 N.2   350  SAH350     -0.0055
     26  C4        22.9270   10.1310   -7.2130 C.2   350  SAH350      0.3518
@<TRIPOS>BOND
     1    22    21    1
     2    21    23    2
     3    21    20    1
     4    23    24    1
     5    20    19    2
     6    20    26    1
     7    19    18    1
     8    24    25    1
     9    18    17    1
    10    26    25    2
    11    26    17    1
    12    17    16    1
    13    11    16    1
    14    11    10    1
    15    16    14    1
    16     9    10    1
    17     9     5    1
    18    10    12    1
    19    14    15    1
    20    14    12    1
    21    12    13    1
    22     5     4    1
    23     4     3    1
    24     1     2    1
    25     3     2    1
    26     2     6    1
    27     7     6   ar
    28     6     8   ar
