@<TRIPOS>MOLECULE
3gxp_GLA_A_1.pdb
 12 12 0 0 0
SMALL
GASTEIGER

@<TRIPOS>ATOM
      1  C1       -27.9580   15.2860    2.6060 C.3   3681  GLA3681     0.3024
      2  C2       -29.2620   15.5700    1.8350 C.3   3681  GLA3681     0.2434
      3  C3       -30.3970   15.5400    2.8720 C.3   3681  GLA3681     0.2199
      4  C4       -30.3420   14.1510    3.5110 C.3   3681  GLA3681     0.2144
      5  C5       -28.9860   13.8430    4.1510 C.3   3681  GLA3681     0.1836
      6  C6       -28.8030   12.3160    4.4180 C.3   3681  GLA3681     0.2142
      7  O1       -27.5900   16.1590    3.6480 O.3   3681  GLA3681    -0.1869
      8  O2       -29.0430   16.7870    1.0880 O.3   3681  GLA3681    -0.2148
      9  O3       -31.7220   15.7190    2.3560 O.3   3681  GLA3681    -0.2174
     10  O4       -30.6310   13.1320    2.5860 O.3   3681  GLA3681    -0.2176
     11  O5       -28.0200   14.0550    3.2380 O.3   3681  GLA3681    -0.3236
     12  O6       -27.5980   12.0320    5.1770 O.3   3681  GLA3681    -0.2176
@<TRIPOS>BOND
     1     8     2    1
     2     2     1    1
     3     2     3    1
     4     9     3    1
     5    10     4    1
     6     1    11    1
     7     1     7    1
     8     3     4    1
     9    11     5    1
    10     4     5    1
    11     5     6    1
    12     6    12    1
