@<TRIPOS>MOLECULE
3gxp_NAG_A_1.pdb
 14 14 0 0 0
SMALL
GASTEIGER

@<TRIPOS>ATOM
      1  C1       -35.8960    4.4650  -20.9600 C.3   692  NAG692      0.1665
      2  C2       -37.2630    4.3570  -20.2930 C.3   692  NAG692      0.1576
      3  C3       -38.4130    4.5960  -21.2540 C.3   692  NAG692      0.2069
      4  C4       -38.3010    5.8780  -22.0700 C.3   692  NAG692      0.2134
      5  C5       -36.9340    5.8780  -22.7400 C.3   692  NAG692      0.1809
      6  C6       -36.7420    7.1900  -23.4890 C.3   692  NAG692      0.2141
      7  C7       -37.5230    2.8830  -18.3200 C.2   692  NAG692      0.2420
      8  C8       -38.0540    1.5770  -17.7810 C.3   692  NAG692      0.0964
      9  N2       -37.4380    3.0330  -19.6780 N.am  692  NAG692     -0.2019
     10  O3       -39.6280    4.4830  -20.5510 O.3   692  NAG692     -0.2184
     11  O4       -39.2270    5.9180  -23.1360 O.3   692  NAG692     -0.2176
     12  O5       -35.8660    5.6230  -21.8080 O.3   692  NAG692     -0.3489
     13  O6       -35.6430    7.9200  -23.0000 O.3   692  NAG692     -0.2176
     14  O7       -37.2080    3.7850  -17.5180 O.2   692  NAG692     -0.2733
@<TRIPOS>BOND
     1     6    13    1
     2     6     5    1
     3    11     4    1
     4     5     4    1
     5     5    12    1
     6     4     3    1
     7    12     1    1
     8     3    10    1
     9     3     2    1
    10     1     2    1
    11     2     9    1
    12     9     7   am
    13     7     8    1
    14     7    14    2
