@<TRIPOS>MOLECULE
3gxt_NOJ_A_1.pdb
 11 11 0 0 0
SMALL
GASTEIGER

@<TRIPOS>ATOM
      1  C1       -17.1670   61.3430  105.6910 C.3   430  NOJ430      0.1243
      2  C2       -16.5510   60.2280  106.5580 C.3   430  NOJ430      0.2020
      3  O2       -15.2570   60.5800  107.0860 O.3   430  NOJ430     -0.2188
      4  C3       -16.5720   58.9340  105.7210 C.3   430  NOJ430      0.2151
      5  O3       -15.7340   57.8550  106.1940 O.3   430  NOJ430     -0.2176
      6  C4       -18.0540   58.6060  105.7750 C.3   430  NOJ430      0.2031
      7  O4       -18.2930   57.2700  105.3800 O.3   430  NOJ430     -0.2187
      8  C5       -18.6920   59.6290  104.8380 C.3   430  NOJ430      0.1386
      9  N5       -18.5550   60.9970  105.3720 N.3   430  NOJ430     -0.2113
     10  C6       -20.1520   59.3860  104.6420 C.3   430  NOJ430      0.2020
     11  O6       -20.5860   60.3980  103.7420 O.3   430  NOJ430     -0.2188
@<TRIPOS>BOND
     1    11    10    1
     2    10     8    1
     3     8     9    1
     4     8     6    1
     5     9     1    1
     6     7     6    1
     7     1     2    1
     8     4     6    1
     9     4     5    1
    10     4     2    1
    11     2     3    1
