@<TRIPOS>MOLECULE
3gxt_NAG_A_1.pdb
 14 14 0 0 0
SMALL
GASTEIGER

@<TRIPOS>ATOM
      1  C1       -31.6650   69.5120  112.2520 C.3   639  NAG639      0.1665
      2  C2       -31.1560   70.0300  113.6020 C.3   639  NAG639      0.1576
      3  C3       -32.3590   70.3590  114.4710 C.3   639  NAG639      0.2069
      4  C4       -33.0670   71.6010  113.8660 C.3   639  NAG639      0.2134
      5  C5       -33.4310   71.2960  112.3930 C.3   639  NAG639      0.1809
      6  C6       -33.8730   72.5620  111.6370 C.3   639  NAG639      0.2141
      7  C7       -28.9010   69.0830  114.0710 C.2   639  NAG639      0.2420
      8  C8       -28.1300   68.1640  114.9740 C.3   639  NAG639      0.0964
      9  N2       -30.2150   69.2010  114.3430 N.am  639  NAG639     -0.2019
     10  O3       -31.8880   70.4640  115.8040 O.3   639  NAG639     -0.2184
     11  O4       -34.1870   72.0710  114.6200 O.3   639  NAG639     -0.2176
     12  O5       -32.3530   70.6390  111.6810 O.3   639  NAG639     -0.3489
     13  O6       -35.0590   72.3640  110.8780 O.3   639  NAG639     -0.2176
     14  O7       -28.3260   69.6630  113.1370 O.2   639  NAG639     -0.2733
@<TRIPOS>BOND
     1    13     6    1
     2     6     5    1
     3    12     1    1
     4    12     5    1
     5     1     2    1
     6     5     4    1
     7    14     7    2
     8     2     9    1
     9     2     3    1
    10     4     3    1
    11     4    11    1
    12     7     9   am
    13     7     8    1
    14     3    10    1
