@<TRIPOS>MOLECULE
3gxy_OPM_B_1.pdb
 17 17 0 0 0
SMALL
GASTEIGER

@<TRIPOS>ATOM
      1  C3'       35.9040   17.9970  144.1060 C.3   603  OPM603      0.0026
      2  C4'       34.4200   18.3570  144.1760 C.3   603  OPM603      0.0001
      3  C5'       34.2320   19.8230  144.5150 C.3   603  OPM603      0.0000
      4  C1'       35.8340   17.0710  141.7690 C.3   603  OPM603      0.1449
      5  C2'       36.1850   16.7780  143.2260 C.3   603  OPM603      0.0322
      6  C2        36.5800   18.7040  139.1390 C.3   603  OPM603      0.2406
      7  O2        37.6470   19.5490  139.6020 O.3   603  OPM603     -0.2149
      8  C3        36.4050   18.8090  137.6230 C.3   603  OPM603      0.2198
      9  O3        36.3690   20.1840  137.2210 O.3   603  OPM603     -0.2174
     10  C4        37.4580   18.0280  136.8220 C.3   603  OPM603      0.2144
     11  O4        36.7720   17.1400  135.9380 O.3   603  OPM603     -0.2176
     12  C5        38.4100   17.1750  137.6580 C.3   603  OPM603      0.1835
     13  O5        37.7390   16.5050  138.7470 O.3   603  OPM603     -0.3256
     14  C6        39.5990   18.0060  138.1330 C.3   603  OPM603      0.2142
     15  O6        39.4840   19.3340  137.6000 O.3   603  OPM603     -0.2176
     16  O1        37.0230   17.1470  140.9750 O.3   603  OPM603     -0.3286
     17  C1        36.7610   17.2340  139.5540 C.3   603  OPM603      0.2695
@<TRIPOS>BOND
     1    11    10    1
     2    10     8    1
     3    10    12    1
     4     9     8    1
     5    15    14    1
     6     8     6    1
     7    12    14    1
     8    12    13    1
     9    13    17    1
    10     6    17    1
    11     6     7    1
    12    17    16    1
    13    16     4    1
    14     4     5    1
    15     5     1    1
    16     1     2    1
    17     2     3    1
