@<TRIPOS>MOLECULE
3gxy_MAN_A_1.pdb
 11 11 0 0 0
SMALL
GASTEIGER

@<TRIPOS>ATOM
      1  C1        22.7690   55.2750  134.2060 C.3   504  MAN504      0.1777
      2  C2        22.6150   53.8680  133.6600 C.3   504  MAN504      0.2141
      3  C3        22.6420   52.8970  134.8320 C.3   504  MAN504      0.2173
      4  C4        23.9460   53.0350  135.6000 C.3   504  MAN504      0.2142
      5  C5        24.1950   54.4980  135.9220 C.3   504  MAN504      0.1810
      6  C6        25.5900   54.6500  136.5030 C.3   504  MAN504      0.2141
      7  O2        23.7500   53.6430  132.8560 O.3   504  MAN504     -0.2176
      8  O3        22.5520   51.5610  134.4320 O.3   504  MAN504     -0.2175
      9  O4        23.8580   52.3110  136.8110 O.3   504  MAN504     -0.2176
     10  O5        24.0570   55.3480  134.7860 O.3   504  MAN504     -0.3481
     11  O6        25.8490   56.0380  136.5490 O.3   504  MAN504     -0.2176
@<TRIPOS>BOND
     1     7     2    1
     2     2     1    1
     3     2     3    1
     4     1    10    1
     5     8     3    1
     6    10     5    1
     7     3     4    1
     8     4     5    1
     9     4     9    1
    10     5     6    1
    11     6    11    1
