@<TRIPOS>MOLECULE
3gxz_MAN_A_1.pdb
 11 11 0 0 0
SMALL
GASTEIGER

@<TRIPOS>ATOM
      1  C1        23.1140   56.0760  134.2340 C.3   504  MAN504      0.1777
      2  C2        22.8630   54.6650  133.6730 C.3   504  MAN504      0.2141
      3  C3        22.7520   53.6820  134.8360 C.3   504  MAN504      0.2173
      4  C4        24.1280   53.6430  135.4720 C.3   504  MAN504      0.2142
      5  C5        24.5490   55.0470  135.8950 C.3   504  MAN504      0.1810
      6  C6        26.0230   54.9940  136.2740 C.3   504  MAN504      0.2141
      7  O2        24.0050   54.2530  132.9370 O.3   504  MAN504     -0.2176
      8  O3        22.4080   52.3660  134.4580 O.3   504  MAN504     -0.2175
      9  O4        24.1490   52.7490  136.5710 O.3   504  MAN504     -0.2176
     10  O5        24.3610   56.0570  134.9040 O.3   504  MAN504     -0.3481
     11  O6        26.3850   56.2600  136.7690 O.3   504  MAN504     -0.2176
@<TRIPOS>BOND
     1     7     2    1
     2     2     1    1
     3     2     3    1
     4     1    10    1
     5     8     3    1
     6     3     4    1
     7    10     5    1
     8     4     5    1
     9     4     9    1
    10     5     6    1
    11     6    11    1
