@<TRIPOS>MOLECULE
3gy0_NAP_A_1.pdb
 48 52 0 0 0
SMALL
GASTEIGER

@<TRIPOS>ATOM
      1  PA        36.0080   22.5200   -3.2710 P.3   500  NAP500      0.2189
      2  O1A       37.0390   21.5630   -3.7160 O.2   500  NAP500     -0.5170
      3  O2A       36.4130   23.4270   -2.1650 O.3   500  NAP500     -0.4371
      4  O5B       35.5700   23.3630   -4.5560 O.3   500  NAP500     -0.3112
      5  C5B       34.7240   24.5000   -4.4860 C.3   500  NAP500      0.1813
      6  C4B       34.8710   25.2600   -5.7980 C.3   500  NAP500      0.1820
      7  O4B       34.0200   26.4020   -5.6830 O.3   500  NAP500     -0.3136
      8  C3B       36.3000   25.7290   -6.0210 C.3   500  NAP500      0.2157
      9  O3B       36.6520   25.5470   -7.3720 O.3   500  NAP500     -0.2175
     10  C2B       36.1650   27.2340   -5.7970 C.3   500  NAP500      0.2314
     11  O2B       37.0030   27.9690   -6.6550 O.3   500  NAP500     -0.2630
     12  C1B       34.6830   27.5080   -6.1380 C.3   500  NAP500      0.3158
     13  N9A       34.3390   28.7360   -5.4100 N.pl3 500  NAP500     -0.1439
     14  C8A       34.2620   28.8950   -4.0340 C.3   500  NAP500      0.3377
     15  N7A       34.0270   30.2110   -3.8060 N.2   500  NAP500     -0.2095
     16  C5A       33.9920   30.8820   -4.9960 C.2   500  NAP500      0.2526
     17  C6A       33.8280   32.2260   -5.3420 C.2   500  NAP500      0.4393
     18  N6A       33.6680   33.1930   -4.4400 N.pl3 500  NAP500      0.2180
     19  N1A       33.8420   32.5890   -6.6720 N.2   500  NAP500      0.0021
     20  C2A       34.0290   31.6440   -7.6600 C.3   500  NAP500      0.5254
     21  N3A       34.1990   30.3260   -7.3190 N.2   500  NAP500     -0.0055
     22  C4A       34.1870   29.9490   -6.0080 C.2   500  NAP500      0.3518
     23  O3        34.6730   21.7820   -2.8270 O.3   500  NAP500     -0.2703
     24  PN        33.7410   20.6810   -3.5510 P.3   500  NAP500      0.2189
     25  O1N       34.3680   20.2490   -4.8080 O.2   500  NAP500     -0.5170
     26  O2N       33.4250   19.6740   -2.5140 O.3   500  NAP500     -0.4371
     27  O5D       32.4190   21.5270   -3.8360 O.3   500  NAP500     -0.3112
     28  C5D       31.7930   21.5160   -5.1190 C.3   500  NAP500      0.1813
     29  C4D       30.2760   21.5610   -4.9590 C.3   500  NAP500      0.1799
     30  O4D       29.8910   20.3180   -4.3930 O.3   500  NAP500     -0.3327
     31  C3D       29.8110   22.6780   -4.0180 C.3   500  NAP500      0.2158
     32  O3D       28.6620   23.2890   -4.5780 O.3   500  NAP500     -0.2175
     33  C2D       29.4610   21.8940   -2.7750 C.3   500  NAP500      0.2309
     34  O2D       28.4400   22.5510   -2.0360 O.3   500  NAP500     -0.2158
     35  C1D       28.9550   20.6040   -3.3770 C.3   500  NAP500      0.2263
     36  N1N       28.9410   19.4780   -2.4610 N.pl3 500  NAP500     -0.2787
     37  C2N       30.1130   18.9060   -2.0180 C.3   500  NAP500      0.1244
     38  C3N       30.0550   17.8170   -1.1550 C.2   500  NAP500      0.0544
     39  C7N       31.3130   17.1120   -0.7490 C.2   500  NAP500      0.2818
     40  O7N       31.1630   16.0970    0.1650 O.2   500  NAP500     -0.2670
     41  N7N       32.5160   17.4460   -1.2240 N.am  500  NAP500     -0.0839
     42  C4N       28.8140   17.3020   -0.7510 C.2   500  NAP500      0.0033
     43  C5N       27.6400   17.9040   -1.2070 C.2   500  NAP500      0.0157
     44  C6N       27.7090   19.0000   -2.0710 C.2   500  NAP500      0.0633
     45  P2B       38.4870   28.5220   -6.3020 P.3   500  NAP500      0.5328
     46  O1X       39.0270   29.0360   -7.6240 O.2   500  NAP500     -0.2224
     47  O2X       38.4420   29.5580   -5.1870 O.3   500  NAP500     -0.1145
     48  O3X       39.2580   27.3300   -5.8120 O.3   500  NAP500     -0.1145
@<TRIPOS>BOND
     1    20    21    1
     2    20    19    1
     3    46    45    2
     4     9     8    1
     5    21    22    2
     6    19    17    2
     7    11    45    1
     8    11    10    1
     9    45    48    1
    10    45    47    1
    11    12    10    1
    12    12     7    1
    13    12    13    1
    14     8     6    1
    15     8    10    1
    16    22    13    1
    17    22    16    1
    18     6     7    1
    19     6     5    1
    20    13    14    1
    21    17    16    1
    22    17    18    1
    23    28    29    1
    24    28    27    1
    25    16    15    2
    26    29    30    1
    27    29    31    1
    28    25    24    2
    29    32    31    1
    30     4     5    1
    31     4     1    1
    32    30    35    1
    33    14    15    1
    34    31    33    1
    35    27    24    1
    36     2     1    2
    37    24    23    1
    38    24    26    1
    39    35    33    1
    40    35    36    1
    41     1    23    1
    42     1     3    1
    43    33    34    1
    44    36    44    1
    45    36    37    1
    46    44    43    2
    47    37    38    1
    48    41    39   am
    49    43    42    1
    50    38    42    2
    51    38    39    1
    52    39    40    2
