@<TRIPOS>MOLECULE
3gy2_BRN_A_1.pdb
 21 22 0 0 0
SMALL
GASTEIGER

@<TRIPOS>ATOM
      1  C1        -1.3590   15.3070   18.1730 C.ar    1  BRN1        0.0870
      2  C2        -1.4670   13.9260   18.2200 C.ar    1  BRN1        0.0181
      3  C3        -1.7290   13.2440   17.0460 C.ar    1  BRN1        0.0094
      4  C4        -1.8850   13.9480   15.8520 C.ar    1  BRN1        0.0976
      5  C5        -1.7850   15.3400   15.8080 C.ar    1  BRN1        0.0094
      6  C6        -1.5080   16.0210   16.9890 C.ar    1  BRN1        0.0181
      7  C7        -2.1850   13.1850   14.6090 C.2     1  BRN1        0.4766
      8  NA        -2.8060   13.7420   13.6570 N.pl3   1  BRN1        0.2047
      9  NB        -1.8170   11.9080   14.5290 N.pl3   1  BRN1        0.2047
     10  N1        -1.1240   15.9530   19.3140 N.pl3   1  BRN1       -0.1277
     11  N         -0.1060   16.7440   19.4670 N.3     1  BRN1        0.0045
     12  N1'       -0.2690   17.6320   20.3050 N.pl3   1  BRN1       -0.1277
     13  C1'        0.7740   18.4940   20.5940 C.ar    1  BRN1        0.0870
     14  C2'        1.9990   18.3640   19.9350 C.ar    1  BRN1        0.0181
     15  C3'        3.0340   19.2290   20.2600 C.ar    1  BRN1        0.0094
     16  C4'        2.8190   20.1830   21.2550 C.ar    1  BRN1        0.0976
     17  C5'        1.5990   20.3020   21.9100 C.ar    1  BRN1        0.0094
     18  C6'        0.5640   19.4460   21.5840 C.ar    1  BRN1        0.0181
     19  C7'        3.9220   21.1130   21.6240 C.2     1  BRN1        0.4766
     20  NA'        4.7550   21.4260   20.7390 N.pl3   1  BRN1        0.2047
     21  NB'        4.0240   21.5830   22.8690 N.pl3   1  BRN1        0.2047
@<TRIPOS>BOND
     1     8     7    2
     2     9     7    1
     3     7     4    1
     4     5     4   ar
     5     5     6   ar
     6     4     3   ar
     7     6     1   ar
     8     3     2   ar
     9     1     2   ar
    10     1    10    1
    11    10    11    1
    12    11    12    1
    13    14    15   ar
    14    14    13   ar
    15    15    16   ar
    16    12    13    1
    17    13    18   ar
    18    20    19    2
    19    16    19    1
    20    16    17   ar
    21    18    17   ar
    22    19    21    1
