@<TRIPOS>MOLECULE
3gy3_PNT_A_1.pdb
 25 26 0 0 0
SMALL
GASTEIGER

@<TRIPOS>ATOM
      1  C1        -9.6230   21.1830   50.0110 C.ar  246  PNT246      0.1386
      2  C2        -9.6360   19.9500   49.3440 C.ar  246  PNT246      0.0372
      3  C3        -9.1680   18.8130   49.9850 C.ar  246  PNT246      0.0111
      4  C4        -8.6880   18.9130   51.2910 C.ar  246  PNT246      0.0977
      5  C5        -8.6590   20.1490   51.9470 C.ar  246  PNT246      0.0111
      6  C6        -9.1160   21.2900   51.3060 C.ar  246  PNT246      0.0372
      7  C7       -10.6310   22.3540   48.1270 C.3   246  PNT246      0.2054
      8  C8       -11.3130   23.7070   47.9560 C.3   246  PNT246      0.0475
      9  C9        -8.1870   17.7040   52.0120 C.2   246  PNT246      0.4766
     10  C10      -12.5790   23.8290   48.8010 C.3   246  PNT246      0.0077
     11  C1'      -13.3640   25.5950   51.6180 C.ar  246  PNT246      0.1386
     12  C2'      -14.5970   26.2610   51.5370 C.ar  246  PNT246      0.0372
     13  C3'      -15.6400   25.9190   52.3850 C.ar  246  PNT246      0.0111
     14  C4'      -15.4450   24.9150   53.3170 C.ar  246  PNT246      0.0977
     15  C5'      -14.2130   24.2490   53.4130 C.ar  246  PNT246      0.0111
     16  C6'      -13.1620   24.5850   52.5550 C.ar  246  PNT246      0.0372
     17  C7'      -12.5390   26.3230   49.4130 C.3   246  PNT246      0.2054
     18  C8'      -13.1980   25.2060   48.5920 C.3   246  PNT246      0.0475
     19  C9'      -16.5630   24.5160   54.2220 C.2   246  PNT246      0.4766
     20  O1       -10.0520   22.3380   49.4220 O.3   246  PNT246     -0.4755
     21  O1'      -12.3390   25.9400   50.7820 O.3   246  PNT246     -0.4755
     22  N1        -8.5890   16.5530   51.6950 N.pl3 246  PNT246      0.2047
     23  N2        -7.3320   17.8570   53.0220 N.pl3 246  PNT246      0.2047
     24  N1'      -17.3890   25.3750   54.6390 N.pl3 246  PNT246      0.2047
     25  N2'      -16.6890   23.2220   54.5320 N.pl3 246  PNT246      0.2047
@<TRIPOS>BOND
     1     8     7    1
     2     8    10    1
     3     7    20    1
     4    18    10    1
     5    18    17    1
     6     2     3   ar
     7     2     1   ar
     8    17    21    1
     9    20     1    1
    10     3     4   ar
    11     1     6   ar
    12    21    11    1
    13     4     5   ar
    14     4     9    1
    15     6     5   ar
    16    12    11   ar
    17    12    13   ar
    18    11    16   ar
    19    22     9    2
    20     9    23    1
    21    13    14   ar
    22    16    15   ar
    23    14    15   ar
    24    14    19    1
    25    19    25    2
    26    19    24    1
