@<TRIPOS>MOLECULE
3gy4_PBZ_A_1.pdb
 10 10 0 0 0
SMALL
GASTEIGER

@<TRIPOS>ATOM
      1  N2        -2.8520   13.9410   14.0880 N.pl3   1  PBZ1        0.2047
      2  N3        -1.7170   12.1590   14.9580 N.pl3   1  PBZ1        0.2047
      3  C7        -2.1180   13.4280   15.0660 C.2     1  PBZ1        0.4766
      4  C4        -1.7750   14.2680   16.2680 C.ar    1  PBZ1        0.0976
      5  C2        -1.0460   14.4040   18.5710 C.ar    1  PBZ1        0.0183
      6  C3        -1.3480   13.6480   17.4430 C.ar    1  PBZ1        0.0094
      7  C5        -1.8870   15.6600   16.2240 C.ar    1  PBZ1        0.0094
      8  C6        -1.5760   16.4150   17.3610 C.ar    1  PBZ1        0.0183
      9  C1        -1.1650   15.7870   18.5320 C.ar    1  PBZ1        0.0891
     10  N1        -0.8600   16.5180   19.6370 N.pl3   1  PBZ1       -0.1281
@<TRIPOS>BOND
     1     1     3    2
     2     2     3    1
     3     3     4    1
     4     7     4   ar
     5     7     8   ar
     6     4     6   ar
     7     8     9   ar
     8     6     5   ar
     9     9     5   ar
    10     9    10    1
