@<TRIPOS>MOLECULE
3gy5_BRN_A_1.pdb
 21 22 0 0 0
SMALL
GASTEIGER

@<TRIPOS>ATOM
      1  C1        -1.3000   15.2570   18.3000 C.ar  246  BRN246      0.0931
      2  C2        -1.3350   13.8680   18.3140 C.ar  246  BRN246      0.0186
      3  C3        -1.6100   13.1860   17.1360 C.ar  246  BRN246      0.0094
      4  C4        -1.8570   13.8840   15.9530 C.ar  246  BRN246      0.0976
      5  C5        -1.8290   15.2790   15.9420 C.ar  246  BRN246      0.0094
      6  C6        -1.5530   15.9580   17.1250 C.ar  246  BRN246      0.0186
      7  C7        -2.1570   13.1220   14.6960 C.2   246  BRN246      0.4766
      8  NA        -2.7220   13.6780   13.7090 N.pl3 246  BRN246      0.2047
      9  NB        -1.8280   11.8410   14.6250 N.pl3 246  BRN246      0.2047
     10  N1        -1.0530   15.9280   19.4360 N.pl3 246  BRN246     -0.0979
     11  N          0.0360   16.6290   19.6580 N.2   246  BRN246     -0.0535
     12  N1'       -0.0980   17.7490   20.1720 N.2   246  BRN246     -0.1308
     13  C1'        0.9950   18.5600   20.4990 C.ar  246  BRN246      0.1044
     14  C2'        2.2360   18.4070   19.8750 C.ar  246  BRN246      0.0212
     15  C3'        3.2940   19.2340   20.2530 C.ar  246  BRN246      0.0096
     16  C4'        3.1210   20.2040   21.2480 C.ar  246  BRN246      0.0976
     17  C5'        1.8780   20.3480   21.8680 C.ar  246  BRN246      0.0096
     18  C6'        0.8170   19.5270   21.4950 C.ar  246  BRN246      0.0212
     19  C7'        4.2600   21.0990   21.6650 C.2   246  BRN246      0.4766
     20  NA'        5.1240   21.5050   20.8320 N.pl3 246  BRN246      0.2047
     21  NB'        4.3670   21.4700   22.9440 N.pl3 246  BRN246      0.2047
@<TRIPOS>BOND
     1     8     7    2
     2     9     7    1
     3     7     4    1
     4     5     4   ar
     5     5     6   ar
     6     4     3   ar
     7     6     1   ar
     8     3     2   ar
     9     1     2   ar
    10     1    10    1
    11    10    11    1
    12    11    12    2
    13    14    15   ar
    14    14    13   ar
    15    12    13    1
    16    15    16   ar
    17    13    18   ar
    18    20    19    2
    19    16    19    1
    20    16    17   ar
    21    18    17   ar
    22    19    21    1
