@<TRIPOS>MOLECULE
3gy6_BRN_A_1.pdb
 21 22 0 0 0
SMALL
GASTEIGER

@<TRIPOS>ATOM
      1  C1        22.6510    3.0840    2.9820 C.ar    1  BRN1        0.0931
      2  C2        22.4660    3.6700    1.7450 C.ar    1  BRN1        0.0186
      3  C3        21.4490    3.2500    0.9190 C.ar    1  BRN1        0.0094
      4  C4        20.5950    2.2300    1.3260 C.ar    1  BRN1        0.0976
      5  C5        20.7660    1.6150    2.5800 C.ar    1  BRN1        0.0094
      6  C6        21.8040    2.0500    3.4250 C.ar    1  BRN1        0.0186
      7  C7        19.5460    1.8900    0.3090 C.2     1  BRN1        0.4766
      8  NA        19.4740    2.6390   -0.7010 N.pl3   1  BRN1        0.2047
      9  NB        18.7150    0.8710    0.4260 N.pl3   1  BRN1        0.2047
     10  N1        23.6880    3.6310    3.6590 N.pl3   1  BRN1       -0.0979
     11  N         24.1180    3.2020    4.8070 N.2     1  BRN1       -0.0535
     12  N1'       25.0550    3.7200    5.4450 N.2     1  BRN1       -0.1308
     13  C1'       25.8700    4.8430    5.1860 C.ar    1  BRN1        0.1044
     14  C2'       25.7630    5.6710    4.0660 C.ar    1  BRN1        0.0212
     15  C3'       26.6250    6.7660    3.9140 C.ar    1  BRN1        0.0096
     16  C4'       27.5900    7.0360    4.8910 C.ar    1  BRN1        0.0976
     17  C5'       27.6950    6.2110    6.0080 C.ar    1  BRN1        0.0096
     18  C6'       26.8400    5.1240    6.1530 C.ar    1  BRN1        0.0212
     19  C7'       28.5420    8.1950    4.7530 C.2     1  BRN1        0.4766
     20  NA'       29.7760    7.9630    4.8310 N.pl3   1  BRN1        0.2047
     21  NB'       28.1110    9.4440    4.5400 N.pl3   1  BRN1        0.2047
@<TRIPOS>BOND
     1     8     7    2
     2     7     9    1
     3     7     4    1
     4     3     4   ar
     5     3     2   ar
     6     4     5   ar
     7     2     1   ar
     8     5     6   ar
     9     1     6   ar
    10     1    10    1
    11    10    11    1
    12    15    14   ar
    13    15    16   ar
    14    14    13   ar
    15    21    19    2
    16    19    20    1
    17    19    16    1
    18    11    12    2
    19    16    17   ar
    20    13    12    1
    21    13    18   ar
    22    17    18   ar
