@<TRIPOS>MOLECULE
3gy8_BRN_A_1.pdb
 21 22 0 0 0
SMALL
GASTEIGER

@<TRIPOS>ATOM
      1  C1        22.6350    2.8010    3.0770 C.ar    1  BRN1        0.0931
      2  C2        22.5060    3.3660    1.8200 C.ar    1  BRN1        0.0186
      3  C3        21.4670    3.0110    0.9780 C.ar    1  BRN1        0.0094
      4  C4        20.5320    2.0700    1.3910 C.ar    1  BRN1        0.0976
      5  C5        20.6510    1.4810    2.6630 C.ar    1  BRN1        0.0094
      6  C6        21.7100    1.8400    3.5230 C.ar    1  BRN1        0.0186
      7  C7        19.4530    1.7560    0.3860 C.2     1  BRN1        0.4766
      8  NA        19.3140    2.4840   -0.6450 N.pl3   1  BRN1        0.2047
      9  NB        18.6530    0.7220    0.5250 N.pl3   1  BRN1        0.2047
     10  N1        23.7160    3.2630    3.7500 N.pl3   1  BRN1       -0.0979
     11  N         23.8630    3.1920    5.0340 N.2     1  BRN1       -0.0535
     12  N1'       24.6940    3.8310    5.7180 N.2     1  BRN1       -0.1308
     13  C1'       25.6510    4.8120    5.3800 C.ar    1  BRN1        0.1044
     14  C2'       25.5910    5.6500    4.2640 C.ar    1  BRN1        0.0212
     15  C3'       26.5850    6.6210    4.0630 C.ar    1  BRN1        0.0096
     16  C4'       27.6350    6.7500    4.9820 C.ar    1  BRN1        0.0976
     17  C5'       27.6810    5.9180    6.0940 C.ar    1  BRN1        0.0096
     18  C6'       26.6950    4.9600    6.2870 C.ar    1  BRN1        0.0212
     19  C7'       28.7360    7.7680    4.8150 C.2     1  BRN1        0.4766
     20  NA'       28.4690    8.9530    4.4660 N.pl3   1  BRN1        0.2047
     21  NB'       29.9920    7.4120    5.0550 N.pl3   1  BRN1        0.2047
@<TRIPOS>BOND
     1     8     7    2
     2     7     9    1
     3     7     4    1
     4     3     4   ar
     5     3     2   ar
     6     4     5   ar
     7     2     1   ar
     8     5     6   ar
     9     1     6   ar
    10     1    10    1
    11    10    11    1
    12    15    14   ar
    13    15    16   ar
    14    14    13   ar
    15    20    19    2
    16    19    16    1
    17    19    21    1
    18    16    17   ar
    19    11    12    2
    20    13    12    1
    21    13    18   ar
    22    17    18   ar
