@<TRIPOS>MOLECULE
3gy9_COA_A_1.pdb
 48 50 0 0 0
SMALL
GASTEIGER

@<TRIPOS>ATOM
      1  N1A       22.1900   15.1260   -0.1670 N.2   201  COA201      0.0021
      2  C2A       21.5730   16.3380    0.0810 C.3   201  COA201      0.5254
      3  N3A       20.1970   16.4520    0.0370 N.2   201  COA201     -0.0055
      4  C4A       19.4490   15.3570   -0.2490 C.2   201  COA201      0.3518
      5  C5A       20.0480   14.1260   -0.5040 C.2   201  COA201      0.2526
      6  C6A       21.4340   14.0140   -0.4610 C.2   201  COA201      0.4393
      7  N6A       22.0400   12.8850   -0.8030 N.pl3 201  COA201      0.2180
      8  N7A       19.0550   13.2380   -0.7600 N.2   201  COA201     -0.2095
      9  C8A       17.8640   13.8690   -0.6730 C.3   201  COA201      0.3377
     10  N9A       18.1040   15.1860   -0.3660 N.pl3 201  COA201     -0.1439
     11  C1B       17.1180   16.2600   -0.2120 C.3   201  COA201      0.3185
     12  C2B       16.0940   16.2580   -1.3370 C.3   201  COA201      0.2543
     13  O2B       15.7270   17.5890   -1.6440 O.3   201  COA201     -0.2131
     14  C3B       14.9260   15.5130   -0.7450 C.3   201  COA201      0.1928
     15  O3B       13.6820   15.8720   -1.2930 O.3   201  COA201     -0.2673
     16  P3B       12.9310   14.7870   -2.2120 P.3   201  COA201      0.5327
     17  O7A       11.6100   15.3490   -2.6820 O.3   201  COA201     -0.1145
     18  O8A       13.8420   14.4780   -3.3730 O.2   201  COA201     -0.2224
     19  O9A       12.6830   13.5190   -1.4290 O.3   201  COA201     -0.1145
     20  C4B       15.0140   15.9310    0.7060 C.3   201  COA201      0.1795
     21  O4B       16.3960   16.0480    0.9860 O.3   201  COA201     -0.3136
     22  C5B       14.3270   14.9520    1.6610 C.3   201  COA201      0.1812
     23  O5B       14.8880   13.6730    1.5130 O.3   201  COA201     -0.3112
     24  P1A       15.3820   12.7730    2.7690 P.3   201  COA201      0.2189
     25  O1A       14.4130   12.8320    3.9080 O.3   201  COA201     -0.4371
     26  O2A       15.6240   11.4180    2.1890 O.2   201  COA201     -0.5170
     27  O3A       16.7660   13.5040    3.0850 O.3   201  COA201     -0.2703
     28  P2A       18.0710   12.8950    3.7830 P.3   201  COA201      0.2188
     29  O4A       17.7540   11.7570    4.7370 O.3   201  COA201     -0.4371
     30  O5A       19.1030   12.6430    2.7460 O.2   201  COA201     -0.5170
     31  O6A       18.4950   14.1620    4.6700 O.3   201  COA201     -0.3138
     32  CBP       20.1610   15.9280    4.5830 C.3   201  COA201      0.0645
     33  CCP       18.8140   15.4150    4.0670 C.3   201  COA201      0.1519
     34  CDP       20.0430   16.2140    6.0770 C.3   201  COA201      0.0056
     35  CEP       20.4760   17.2390    3.8340 C.3   201  COA201      0.0056
     36  CAP       21.2500   14.8640    4.3410 C.3   201  COA201      0.2312
     37  OAP       21.2430   14.4890    2.9810 O.3   201  COA201     -0.2131
     38  C9P       22.6110   15.3910    4.7020 C.2   201  COA201      0.2719
     39  O9P       23.0820   15.3550    6.0220 O.2   201  COA201     -0.2706
     40  N8P       23.3030   15.8940    3.6850 N.am  201  COA201     -0.2028
     41  C7P       24.6450   16.4380    3.8540 C.3   201  COA201      0.1248
     42  C6P       24.8790   17.6370    2.9330 C.3   201  COA201      0.1102
     43  C5P       24.8960   17.1980    1.4860 C.2   201  COA201      0.2432
     44  O5P       24.4300   16.0930    1.1590 O.2   201  COA201     -0.2733
     45  N4P       25.4330   18.0480    0.6130 N.am  201  COA201     -0.2044
     46  C3P       25.2560   17.8950   -0.8150 C.3   201  COA201      0.1276
     47  C2P       26.0210   16.6950   -1.3720 C.3   201  COA201      0.0920
     48  S1P       27.7950   16.6900   -1.0100 S.3   201  COA201     -0.0802
@<TRIPOS>BOND
     1    18    16    2
     2    17    16    1
     3    16    19    1
     4    16    15    1
     5    13    12    1
     6    47    48    1
     7    47    46    1
     8    12    14    1
     9    12    11    1
    10    15    14    1
    11    46    45    1
    12     7     6    1
    13     8     9    1
    14     8     5    2
    15    14    20    1
    16     9    10    1
    17     5     6    1
    18     5     4    1
    19     6     1    2
    20    10     4    1
    21    10    11    1
    22     4     3    2
    23    11    21    1
    24     1     2    1
    25     3     2    1
    26    45    43   am
    27    20    21    1
    28    20    22    1
    29    44    43    2
    30    43    42    1
    31    23    22    1
    32    23    24    1
    33    26    24    2
    34    30    28    2
    35    24    27    1
    36    24    25    1
    37    42    41    1
    38    37    36    1
    39    27    28    1
    40    40    41    1
    41    40    38   am
    42    28    31    1
    43    28    29    1
    44    35    32    1
    45    33    32    1
    46    33    31    1
    47    36    32    1
    48    36    38    1
    49    32    34    1
    50    38    39    2
