@<TRIPOS>MOLECULE
3gya_COA_A_1.pdb
 48 50 0 0 0
SMALL
GASTEIGER

@<TRIPOS>ATOM
      1  N1A       22.1600   14.9550   -0.1770 N.2   150  COA150      0.0021
      2  C2A       21.5790   16.1780    0.0640 C.3   150  COA150      0.5254
      3  N3A       20.2140   16.3310    0.0360 N.2   150  COA150     -0.0055
      4  C4A       19.4200   15.2570   -0.2400 C.2   150  COA150      0.3518
      5  C5A       19.9790   14.0110   -0.4970 C.2   150  COA150      0.2526
      6  C6A       21.3740   13.8680   -0.4670 C.2   150  COA150      0.4393
      7  N6A       21.9880   12.7300   -0.7560 N.pl3 150  COA150      0.2180
      8  N7A       18.9450   13.1600   -0.7460 N.2   150  COA150     -0.2095
      9  C8A       17.7810   13.8390   -0.6410 C.3   150  COA150      0.3377
     10  N9A       18.0620   15.1480   -0.3340 N.pl3 150  COA150     -0.1439
     11  C1B       17.0750   16.2300   -0.1010 C.3   150  COA150      0.3185
     12  C2B       16.0690   16.3220   -1.2380 C.3   150  COA150      0.2543
     13  O2B       15.7020   17.6790   -1.4280 O.3   150  COA150     -0.2131
     14  C3B       14.8810   15.5320   -0.7420 C.3   150  COA150      0.1928
     15  O3B       13.6670   15.8750   -1.3780 O.3   150  COA150     -0.2673
     16  P3B       12.7970   14.7420   -2.1500 P.3   150  COA150      0.5327
     17  O7A       11.4060   15.2690   -2.4330 O.3   150  COA150     -0.1145
     18  O8A       13.5050   14.4130   -3.4390 O.2   150  COA150     -0.2224
     19  O9A       12.6380   13.4640   -1.3460 O.3   150  COA150     -0.1145
     20  C4B       14.9060   15.8950    0.7380 C.3   150  COA150      0.1795
     21  O4B       16.2800   16.0280    1.0750 O.3   150  COA150     -0.3136
     22  C5B       14.2330   14.8850    1.6850 C.3   150  COA150      0.1812
     23  O5B       14.8050   13.6160    1.4910 O.3   150  COA150     -0.3112
     24  P1A       15.3630   12.6630    2.7060 P.3   150  COA150      0.2189
     25  O1A       14.4620   12.8060    3.9040 O.3   150  COA150     -0.4371
     26  O2A       15.5990   11.3270    2.1200 O.2   150  COA150     -0.5170
     27  O3A       16.7400   13.4040    3.0200 O.3   150  COA150     -0.2703
     28  P2A       18.0410   12.8420    3.7800 P.3   150  COA150      0.2188
     29  O4A       17.7270   11.7060    4.7190 O.3   150  COA150     -0.4371
     30  O5A       19.0460   12.5400    2.7570 O.2   150  COA150     -0.5170
     31  O6A       18.4430   14.1190    4.6680 O.3   150  COA150     -0.3138
     32  CBP       20.1020   15.8650    4.5150 C.3   150  COA150      0.0645
     33  CCP       18.7670   15.3420    4.0100 C.3   150  COA150      0.1519
     34  CDP       20.0080   16.1220    6.0170 C.3   150  COA150      0.0056
     35  CEP       20.4410   17.1850    3.7770 C.3   150  COA150      0.0056
     36  CAP       21.1530   14.7630    4.2810 C.3   150  COA150      0.2312
     37  OAP       21.1710   14.2970    2.9490 O.3   150  COA150     -0.2131
     38  C9P       22.5360   15.2270    4.6520 C.2   150  COA150      0.2719
     39  O9P       22.9740   15.2510    5.9600 O.2   150  COA150     -0.2706
     40  N8P       23.3730   15.6000    3.6860 N.am  150  COA150     -0.2028
     41  C7P       24.6870   16.0870    4.0820 C.3   150  COA150      0.1248
     42  C6P       25.5400   16.4340    2.8730 C.3   150  COA150      0.1102
     43  C5P       24.8870   17.5740    2.1390 C.2   150  COA150      0.2432
     44  O5P       24.5990   18.5950    2.7740 O.2   150  COA150     -0.2733
     45  N4P       24.6560   17.3970    0.8290 N.am  150  COA150     -0.2044
     46  C3P       25.0490   18.3740   -0.1780 C.3   150  COA150      0.1276
     47  C2P       25.8070   17.7450   -1.3480 C.3   150  COA150      0.0920
     48  S1P       27.4000   16.9690   -0.9050 S.3   150  COA150     -0.0802
@<TRIPOS>BOND
     1    18    16    2
     2    17    16    1
     3    16    15    1
     4    16    19    1
     5    13    12    1
     6    15    14    1
     7    47    48    1
     8    47    46    1
     9    12    14    1
    10    12    11    1
    11     7     6    1
    12     8     9    1
    13     8     5    2
    14    14    20    1
    15     9    10    1
    16     5     6    1
    17     5     4    1
    18     6     1    2
    19    10     4    1
    20    10    11    1
    21     4     3    2
    22    46    45    1
    23     1     2    1
    24    11    21    1
    25     3     2    1
    26    20    21    1
    27    20    22    1
    28    45    43   am
    29    23    22    1
    30    23    24    1
    31    26    24    2
    32    43    44    2
    33    43    42    1
    34    24    27    1
    35    24    25    1
    36    30    28    2
    37    42    41    1
    38    37    36    1
    39    27    28    1
    40    40    41    1
    41    40    38   am
    42    35    32    1
    43    28    31    1
    44    28    29    1
    45    33    32    1
    46    33    31    1
    47    36    32    1
    48    36    38    1
    49    32    34    1
    50    38    39    2
