@<TRIPOS>MOLECULE
3gyd_CMP_A_1.pdb
 22 25 0 0 0
SMALL
GASTEIGER

@<TRIPOS>ATOM
      1  P         28.8990    3.1170   18.6700 P.3   300  CMP300      0.2141
      2  O1P       28.0140    2.0190   18.1960 O.2   300  CMP300     -0.5172
      3  O2P       28.7460    3.5110   20.0890 O.3   300  CMP300     -0.4373
      4  O5'       30.4080    2.6170   18.4760 O.3   300  CMP300     -0.3114
      5  C5'       30.8270    2.4170   17.1220 C.3   300  CMP300      0.1812
      6  C4'       30.6740    3.7240   16.4040 C.3   300  CMP300      0.1793
      7  O4'       30.9610    3.6980   15.0150 O.3   300  CMP300     -0.3136
      8  C3'       29.2370    4.2300   16.4040 C.3   300  CMP300      0.1884
      9  O3'       28.8060    4.4600   17.7300 O.3   300  CMP300     -0.3111
     10  C2'       29.3770    5.4130   15.4810 C.3   300  CMP300      0.2541
     11  O2'       29.8520    6.5510   16.2010 O.3   300  CMP300     -0.2131
     12  C1'       30.3880    4.8680   14.4600 C.3   300  CMP300      0.3185
     13  N9        29.7050    4.5420   13.2060 N.pl3 300  CMP300     -0.1439
     14  C8        28.9540    3.4760   12.9320 C.3   300  CMP300      0.3377
     15  N7        28.4900    3.5620   11.6610 N.2   300  CMP300     -0.2095
     16  C5        28.9540    4.6920   11.1310 C.2   300  CMP300      0.2526
     17  C6        28.8450    5.4090    9.8550 C.2   300  CMP300      0.4393
     18  N6        28.1260    4.9000    8.8450 N.pl3 300  CMP300      0.2180
     19  N1        29.5080    6.5500    9.6980 N.2   300  CMP300      0.0021
     20  C2        30.2310    7.0880   10.6950 C.3   300  CMP300      0.5254
     21  N3        30.3620    6.4940   11.8970 N.2   300  CMP300     -0.0055
     22  C4        29.7510    5.3220   12.1430 C.2   300  CMP300      0.3518
@<TRIPOS>BOND
     1    18    17    1
     2    19    17    2
     3    19    20    1
     4    17    16    1
     5    20    21    1
     6    16    15    2
     7    16    22    1
     8    15    14    1
     9    21    22    2
    10    22    13    1
    11    14    13    1
    12    13    12    1
    13    12     7    1
    14    12    10    1
    15     7     6    1
    16    10    11    1
    17    10     8    1
    18     8     6    1
    19     8     9    1
    20     6     5    1
    21     5     4    1
    22     9     1    1
    23     2     1    2
    24     4     1    1
    25     1     3    1
