@<TRIPOS>MOLECULE
3gye_FMN_A_1.pdb
 31 33 0 0 0
SMALL
GASTEIGER

@<TRIPOS>ATOM
      1  N1        54.3500  -17.6380  -15.2510 N.2   321  FMN321     -0.2887
      2  C2        55.4750  -17.6710  -16.0320 C.1   321  FMN321      0.3669
      3  O2        56.5170  -17.1790  -15.6030 O.2   321  FMN321     -0.1744
      4  N3        55.4280  -18.2600  -17.2910 N.2   321  FMN321     -0.2300
      5  C4        54.2690  -18.8120  -17.7850 C.1   321  FMN321      0.2513
      6  O4        54.1700  -19.0450  -19.0020 O.2   321  FMN321     -0.2057
      7  C4A       53.1290  -18.7660  -17.0020 C.2   321  FMN321      0.2703
      8  N5        51.9380  -19.3020  -17.4640 N.2   321  FMN321     -0.3882
      9  C5A       50.7890  -19.2180  -16.7040 C.2   321  FMN321      0.1277
     10  C6        49.5870  -19.7410  -17.1900 C.3   321  FMN321      0.0820
     11  C7        48.4260  -19.6640  -16.4120 C.2   321  FMN321     -0.0408
     12  C7M       47.1030  -19.8230  -17.1130 C.3   321  FMN321      0.0265
     13  C8        48.4770  -19.0490  -15.1430 C.2   321  FMN321     -0.0280
     14  C8M       47.2220  -18.5680  -14.4530 C.3   321  FMN321      0.0304
     15  C9        49.6860  -18.5380  -14.6700 C.2   321  FMN321      0.0123
     16  C9A       50.8410  -18.6150  -15.4370 C.2   321  FMN321      0.0793
     17  N10       52.0440  -18.1160  -14.9570 N.pl3 321  FMN321     -0.2545
     18  C10       53.1760  -18.1670  -15.7400 C.2   321  FMN321      0.2449
     19  C1'       52.1790  -17.5640  -13.5730 C.3   321  FMN321      0.1336
     20  C2'       51.7030  -16.1060  -13.6520 C.3   321  FMN321      0.2048
     21  O2'       52.5620  -15.3810  -14.5080 O.3   321  FMN321     -0.2185
     22  C3'       51.6900  -15.4380  -12.2800 C.3   321  FMN321      0.2165
     23  O3'       53.0090  -15.4600  -11.7600 O.3   321  FMN321     -0.2175
     24  C4'       50.7360  -16.1040  -11.2860 C.3   321  FMN321      0.2147
     25  O4'       49.5350  -16.4840  -11.9330 O.3   321  FMN321     -0.2176
     26  C5'       50.4100  -15.1830  -10.0980 C.3   321  FMN321      0.1892
     27  O5'       49.7290  -14.0200  -10.5590 O.3   321  FMN321     -0.2674
     28  P         48.1380  -13.8430  -10.3750 P.3   321  FMN321      0.5327
     29  O1P       47.7330  -13.9690   -8.9480 O.3   321  FMN321     -0.1145
     30  O2P       47.4660  -14.9580  -11.1550 O.2   321  FMN321     -0.2224
     31  O3P       47.8110  -12.4880  -10.9480 O.3   321  FMN321     -0.1145
@<TRIPOS>BOND
     1     6     5    2
     2     5     4    2
     3     5     7    1
     4     8     7    2
     5     8     9    2
     6     4     2    2
     7    10     9    1
     8    10    11    1
     9    12    11    1
    10     7    18    1
    11     9    16    1
    12    11    13    2
    13     2     3    2
    14     2     1    2
    15    18     1    2
    16    18    17    1
    17    16    17    1
    18    16    15    2
    19    13    15    1
    20    13    14    1
    21    17    19    1
    22    21    20    1
    23    20    19    1
    24    20    22    1
    25    22    23    1
    26    22    24    1
    27    25    24    1
    28    24    26    1
    29    30    28    2
    30    31    28    1
    31    27    28    1
    32    27    26    1
    33    28    29    1
