@<TRIPOS>MOLECULE
3gyf_NDP_A_1.pdb
 48 52 0 0 0
SMALL
GASTEIGER

@<TRIPOS>ATOM
      1  PA         1.0200    7.9880    1.8000 P.3   188  NDP188      0.2189
      2  O1A        1.1870    6.5250    1.4750 O.2   188  NDP188     -0.5170
      3  O2A       -0.1670    8.4480    2.5470 O.3   188  NDP188     -0.4371
      4  O5B        1.2130    8.7890    0.4270 O.3   188  NDP188     -0.3112
      5  C5B        0.9580   10.2330    0.3790 C.3   188  NDP188      0.1813
      6  C4B        0.6740   10.6140   -1.0480 C.3   188  NDP188      0.1820
      7  O4B       -0.3550    9.6680   -1.5970 O.3   188  NDP188     -0.3136
      8  C3B        0.1490   12.0730   -1.2970 C.3   188  NDP188      0.2157
      9  O3B        1.3780   12.7810   -1.5390 O.3   188  NDP188     -0.2175
     10  C2B       -0.4860   11.5250   -2.4830 C.3   188  NDP188      0.2314
     11  O2B        0.0120   11.5160   -3.7180 O.3   188  NDP188     -0.2630
     12  C1B       -1.4460   10.4070   -2.1070 C.3   188  NDP188      0.3158
     13  N9A       -2.5650   10.4610   -1.1150 N.pl3 188  NDP188     -0.1439
     14  C8A       -2.6030   10.1840    0.2100 C.3   188  NDP188      0.3377
     15  N7A       -3.8770   10.3410    0.6330 N.2   188  NDP188     -0.2095
     16  C5A       -4.6190   10.6700   -0.4250 C.2   188  NDP188      0.2526
     17  C6A       -5.9590   10.9500   -0.6340 C.2   188  NDP188      0.4393
     18  N6A       -6.8230   10.9090    0.3680 N.pl3 188  NDP188      0.2180
     19  N1A       -6.3560   11.2760   -1.8720 N.2   188  NDP188      0.0021
     20  C2A       -5.5110   11.3350   -2.9140 C.3   188  NDP188      0.5254
     21  N3A       -4.2140   11.0900   -2.7330 N.2   188  NDP188     -0.0055
     22  C4A       -3.7780   10.7680   -1.5150 C.2   188  NDP188      0.3518
     23  O3         2.3400    8.5410    2.6320 O.3   188  NDP188     -0.2703
     24  PN         2.9950    8.5180    4.1350 P.3   188  NDP188      0.2189
     25  O1N        1.9010    8.9030    5.0950 O.3   188  NDP188     -0.4371
     26  O2N        4.2570    9.3190    4.0400 O.2   188  NDP188     -0.5170
     27  O5D        3.2850    7.0020    4.3910 O.3   188  NDP188     -0.3112
     28  C5D        4.3620    6.3740    3.8480 C.3   188  NDP188      0.1813
     29  C4D        5.1960    5.9800    5.0500 C.3   188  NDP188      0.1799
     30  O4D        4.5100    5.2420    6.1200 O.3   188  NDP188     -0.3327
     31  C3D        6.3460    5.0750    4.5630 C.3   188  NDP188      0.2158
     32  O3D        7.4000    5.3100    5.4930 O.3   188  NDP188     -0.2175
     33  C2D        5.8110    3.6610    4.7630 C.3   188  NDP188      0.2309
     34  O2D        6.8540    2.7000    5.0360 O.3   188  NDP188     -0.2158
     35  C1D        5.0880    3.8730    6.1110 C.3   188  NDP188      0.2263
     36  N1N        3.8860    3.0550    6.2930 N.pl3 188  NDP188     -0.2787
     37  C2N        3.7820    2.3080    7.4560 C.3   188  NDP188      0.1244
     38  C3N        2.6740    1.5420    7.7880 C.2   188  NDP188      0.0544
     39  C7N        2.6410    0.7820    9.0940 C.2   188  NDP188      0.2818
     40  O7N        1.6480    0.1630    9.4170 O.2   188  NDP188     -0.2670
     41  N7N        3.6870    0.9310    9.9740 N.am  188  NDP188     -0.0839
     42  C4N        1.6360    1.4790    6.7650 C.2   188  NDP188      0.0033
     43  C5N        1.6910    2.2790    5.5990 C.2   188  NDP188      0.0157
     44  C6N        2.8000    3.0980    5.3170 C.2   188  NDP188      0.0633
     45  P2B       -0.0940   12.6580   -4.8340 P.3   188  NDP188      0.5328
     46  O1X        0.4900   11.9410   -6.0670 O.2   188  NDP188     -0.2224
     47  O2X        0.9920   13.6990   -4.3370 O.3   188  NDP188     -0.1145
     48  O3X       -1.4250   13.3100   -4.7580 O.3   188  NDP188     -0.1145
@<TRIPOS>BOND
     1    46    45    2
     2    45    48    1
     3    45    47    1
     4    45    11    1
     5    11    10    1
     6    20    21    1
     7    20    19    1
     8    21    22    2
     9    10    12    1
    10    10     8    1
    11    12     7    1
    12    12    13    1
    13    19    17    2
    14     7     6    1
    15     9     8    1
    16    22    13    1
    17    22    16    1
    18     8     6    1
    19    13    14    1
    20     6     5    1
    21    17    16    1
    22    17    18    1
    23    16    15    2
    24    14    15    1
    25     5     4    1
    26     4     1    1
    27     2     1    2
    28     1     3    1
    29     1    23    1
    30    23    24    1
    31    28    27    1
    32    28    29    1
    33    26    24    2
    34    24    27    1
    35    24    25    1
    36    31    33    1
    37    31    29    1
    38    31    32    1
    39    33    34    1
    40    33    35    1
    41    29    30    1
    42    44    43    2
    43    44    36    1
    44    43    42    1
    45    35    30    1
    46    35    36    1
    47    36    37    1
    48    42    38    2
    49    37    38    1
    50    38    39    1
    51    39    40    2
    52    39    41   am
