@<TRIPOS>MOLECULE
3gyf_51P_A_1.pdb
 22 24 0 0 0
SMALL
GASTEIGER

@<TRIPOS>ATOM
      1  C'1        3.5510   -3.3170    3.3360 C.ar  187  51P187      0.0300
      2  C'2        4.9140   -3.0250    3.4150 C.ar  187  51P187      0.1383
      3  C'3        5.8560   -3.9800    3.0560 C.ar  187  51P187      0.0369
      4  C'4        5.4110   -5.2170    2.6060 C.ar  187  51P187      0.0031
      5  C'5        4.0530   -5.5160    2.5380 C.ar  187  51P187      0.0002
      6  C'6        3.1160   -4.5690    2.8960 C.ar  187  51P187      0.0027
      7  N1'        1.6710   -4.2980    9.4270 N.2   187  51P187     -0.2915
      8  C10        2.0240   -1.4100    2.5740 C.3   187  51P187      0.0311
      9  C11        2.6480   -2.3190    3.6920 C.2   187  51P187     -0.0191
     10  C13        6.8070   -1.5600    3.6650 C.3   187  51P187      0.2525
     11  O13        5.2880   -1.7820    3.8790 O.3   187  51P187     -0.4714
     12  C2'        0.5460   -3.8000    9.8460 C.1   187  51P187      0.2450
     13  N2'        0.1050   -4.2160   11.0030 N.pl3 187  51P187     -0.0231
     14  N3'       -0.1080   -2.8800    9.0620 N.2   187  51P187     -0.3110
     15  C4'        0.3260   -2.4620    7.8660 C.2   187  51P187      0.2239
     16  N4'       -0.4560   -1.5340    7.2360 N.pl3 187  51P187     -0.0961
     17  C5'        1.5240   -3.0170    7.3940 C.3   187  51P187      0.1861
     18  C6'        2.3470   -2.9410    6.2590 C.2   187  51P187      0.0330
     19  C7'        3.3990   -3.7590    6.4300 C.2   187  51P187      0.1788
     20  C8'        2.1660   -3.9470    8.2470 C.2   187  51P187      0.2814
     21  O8'        3.2710   -4.4110    7.6450 O.2   187  51P187     -0.4265
     22  C9'        2.1010   -2.0300    5.0730 C.2   187  51P187     -0.0043
@<TRIPOS>BOND
     1     5     4   ar
     2     5     6   ar
     3     8     9    1
     4     4     3   ar
     5     6     1   ar
     6     3     2   ar
     7     1     2   ar
     8     1     9    1
     9     2    11    1
    10    10    11    1
    11     9    22    2
    12    22    18    1
    13    18    19    2
    14    18    17    1
    15    19    21    1
    16    16    15    1
    17    17    15    1
    18    17    20    1
    19    21    20    1
    20    15    14    2
    21    20     7    2
    22    14    12    2
    23     7    12    2
    24    12    13    1
