@<TRIPOS>MOLECULE
3gyh_PBO_Y_1.pdb
 11 11 0 0 0
SMALL
GASTEIGER

@<TRIPOS>ATOM
      1  C10       22.2830  -20.8980    6.2990 C.3   200  PBO200      0.0005
      2  C11       21.2030  -19.9530    5.7530 C.3   200  PBO200      0.0081
      3  C12       19.7510  -20.4460    5.8650 C.3   200  PBO200      0.0692
      4  C13       18.8050  -19.2760    6.0980 C.2   200  PBO200      0.1745
      5  C14       17.7920  -18.8270    5.0810 C.ar  200  PBO200      0.0538
      6  C15       17.2610  -19.7110    4.1380 C.ar  200  PBO200      0.0060
      7  C16       16.3220  -19.2290    3.2250 C.ar  200  PBO200      0.0208
      8  C17       15.9340  -17.8880    3.2800 C.ar  200  PBO200      0.0989
      9  N1'       16.4600  -17.0620    4.2050 N.ar  200  PBO200     -0.2422
     10  C18       17.3640  -17.4940    5.0930 C.ar  200  PBO200      0.1017
     11  O13       18.8480  -18.6610    7.1510 O.2   200  PBO200     -0.2913
@<TRIPOS>BOND
     1     7     8   ar
     2     7     6   ar
     3     8     9   ar
     4     6     5   ar
     5     9    10   ar
     6     5    10   ar
     7     5     4    1
     8     2     3    1
     9     2     1    1
    10     3     4    1
    11     4    11    2
