@<TRIPOS>MOLECULE
3gyn_B42_A_1.pdb
 36 39 0 0 0
SMALL
GASTEIGER

@<TRIPOS>ATOM
      1  O33       95.8800    7.0940   63.7860 O.2   579  B42579     -0.1528
      2  S36       96.4120    8.3350   64.3280 S.O2  579  B42579      0.0750
      3  O32       95.9970    8.7650   65.6400 O.2   579  B42579     -0.1528
      4  C21       98.1850    8.2380   64.4260 C.3   579  B42579      0.2016
      5  N28       96.2480    9.6440   63.2180 N.pl3 579  B42579     -0.1009
      6  C5        96.0730    9.4350   61.8080 C.2   579  B42579      0.0886
      7  C2        95.3600   10.3820   61.0690 C.2   579  B42579      0.0201
      8  C3        96.6090    8.3140   61.1530 C.2   579  B42579      0.0244
      9  C6        96.4260    8.1500   59.7730 C.3   579  B42579      0.2293
     10  S35       97.0830    6.7200   58.9770 S.O2  579  B42579      0.0981
     11  O30       98.4090    6.4840   59.4990 O.2   579  B42579     -0.1495
     12  O31       96.0370    5.7210   59.1000 O.2   579  B42579     -0.1495
     13  N26       97.1570    7.2590   57.3750 N.2   579  B42579     -0.0649
     14  C9        96.3400    8.3230   56.9020 C.1   579  B42579      0.1128
     15  N25       95.4890    8.9840   57.6300 N.2   579  B42579     -0.3511
     16  C4        95.7040    9.0870   59.0170 C.2   579  B42579      0.1485
     17  C1        95.1820   10.2130   59.6880 C.2   579  B42579      0.0320
     18  C7        96.5490    8.6450   55.4730 C.2   579  B42579      0.1631
     19  C10       97.1590    7.6460   54.5120 C.2   579  B42579      0.2623
     20  O29       97.0210    6.4350   54.7100 O.2   579  B42579     -0.2690
     21  N27       97.8450    8.1930   53.4260 N.am  579  B42579     -0.2766
     22  C16       98.5510    7.3160   52.4870 C.3   579  B42579      0.0757
     23  C14       99.9500    7.7820   52.0590 C.3   579  B42579      0.0198
     24  C12      100.0940    7.3780   50.5910 C.3   579  B42579      0.0018
     25  C13       97.7500    7.0720   51.2080 C.3   579  B42579      0.0198
     26  C11       98.6740    7.3720   50.0330 C.3   579  B42579      0.0018
     27  C15       97.8630    9.6430   53.1890 C.3   579  B42579      0.1008
     28  C17       96.5530   10.3410   53.6060 C.3   579  B42579      0.0746
     29  C18       96.7950   11.8730   53.5220 C.3   579  B42579      0.0094
     30  C8        96.1980    9.8690   55.0180 C.2   579  B42579      0.1886
     31  O34       95.5090   10.7900   55.7900 O.2   579  B42579     -0.2904
     32  C22       95.4340    9.9230   52.6220 C.3   579  B42579      0.0090
     33  C23       94.0570   10.4720   52.9820 C.3   579  B42579      0.0005
     34  C24       92.8980    9.7250   52.3000 C.3   579  B42579      0.0000
     35  C20       91.5600   10.1440   52.9050 C.3   579  B42579      0.0000
     36  C19       92.9020    9.9870   50.7860 C.3   579  B42579      0.0000
@<TRIPOS>BOND
     1    26    24    1
     2    26    25    1
     3    24    23    1
     4    36    34    1
     5    25    22    1
     6    23    22    1
     7    34    35    1
     8    34    33    1
     9    22    21    1
    10    32    33    1
    11    32    28    1
    12    27    21    1
    13    27    28    1
    14    21    19   am
    15    29    28    1
    16    28    30    1
    17    19    20    2
    18    19    18    1
    19    30    18    2
    20    30    31    1
    21    18    14    1
    22    14    13    2
    23    14    15    2
    24    13    10    1
    25    15    16    2
    26    10    12    2
    27    10    11    2
    28    10     9    1
    29    16    17    1
    30    16     9    1
    31    17     7    2
    32     9     8    1
    33     7     6    1
    34     8     6    2
    35     6     5    1
    36     5     2    1
    37     1     2    2
    38     2     4    1
    39     2     3    2
