@<TRIPOS>MOLECULE
3gyq_SAM_A_1.pdb
 27 29 0 0 0
SMALL
GASTEIGER

@<TRIPOS>ATOM
      1  N         18.7290   31.5750   82.3620 N.3   270  SAM270     -0.1208
      2  CA        18.2900   30.1970   82.1780 C.3   270  SAM270      0.1952
      3  C         19.3560   29.3590   81.4790 C.2   270  SAM270      0.3819
      4  O         19.3250   29.1670   80.2640 O.co2 270  SAM270     -0.2441
      5  OXT       20.2720   28.8440   82.1180 O.co2 270  SAM270     -0.2441
      6  CB        16.9990   30.1740   81.3730 C.3   270  SAM270      0.0414
      7  CG        17.0330   31.0640   80.1380 C.3   270  SAM270      0.0503
      8  SD        15.3790   31.3220   79.4560 S.3   270  SAM270     -0.1761
      9  CE        14.5950   32.1900   80.8370 C.3   270  SAM270      0.0590
     10  C5'       14.6360   29.6880   79.6660 C.3   270  SAM270      0.0806
     11  C4'       13.5210   29.4550   78.6600 C.3   270  SAM270      0.1622
     12  O4'       12.5920   28.5460   79.2200 O.3   270  SAM270     -0.3153
     13  C3'       12.7880   30.7550   78.3690 C.3   270  SAM270      0.2168
     14  O3'       12.9150   31.1090   77.0160 O.3   270  SAM270     -0.2175
     15  C2'       11.3380   30.4980   78.6970 C.3   270  SAM270      0.2569
     16  O2'       10.5940   30.4370   77.5040 O.3   270  SAM270     -0.2130
     17  C1'       11.3180   29.1430   79.3770 C.3   270  SAM270      0.3185
     18  N9        11.0490   29.3310   80.8140 N.pl3 270  SAM270     -0.1439
     19  C8        11.9760   29.6490   81.7730 C.3   270  SAM270      0.3377
     20  N7        11.3480   29.7410   82.9680 N.2   270  SAM270     -0.2095
     21  C5        10.0330   29.4920   82.7840 C.2   270  SAM270      0.2526
     22  C6         8.9590   29.4590   83.6620 C.2   270  SAM270      0.4393
     23  N6         9.1390   29.7040   84.9570 N.pl3 270  SAM270      0.2180
     24  N1         7.7020   29.1720   83.1790 N.2   270  SAM270      0.0021
     25  C2         7.5160   28.9180   81.8350 C.3   270  SAM270      0.5254
     26  N3         8.5900   28.9520   80.9690 N.2   270  SAM270     -0.0055
     27  C4         9.8300   29.2320   81.4340 C.2   270  SAM270      0.3518
@<TRIPOS>BOND
     1    14    13    1
     2    16    15    1
     3    13    11    1
     4    13    15    1
     5    11    12    1
     6    11    10    1
     7    15    17    1
     8    12    17    1
     9    17    18    1
    10     8    10    1
    11     8     7    1
    12     8     9    1
    13     7     6    1
    14     4     3   ar
    15    18    27    1
    16    18    19    1
    17    26    27    2
    18    26    25    1
    19     6     2    1
    20    27    21    1
    21     3     5   ar
    22     3     2    1
    23    19    20    1
    24    25    24    1
    25     2     1    1
    26    21    20    2
    27    21    22    1
    28    24    22    2
    29    22    23    1
