@<TRIPOS>MOLECULE
3gys_HEM_A_1.pdb
 43 50 0 0 0
SMALL
GASTEIGER

@<TRIPOS>ATOM
      1  CHA      -23.9600  -30.8260   24.5200 C.2   143  HEM143      0.0000
      2  CHB      -21.3230  -34.7490   23.5260 C.2   143  HEM143      0.0000
      3  CHC      -17.4170  -31.9430   23.1100 C.2   143  HEM143      0.0000
      4  CHD      -20.0000  -27.9630   24.2610 C.2   143  HEM143      0.0000
      5  C1A      -23.5550  -32.1260   24.3660 C.ar  143  HEM143      0.0000
      6  C2A      -24.3550  -33.2900   24.6720 C.ar  143  HEM143      0.0000
      7  C3A      -23.6330  -34.3840   24.4040 C.ar  143  HEM143      0.0000
      8  C4A      -22.3520  -33.9450   23.9030 C.ar  143  HEM143      0.0000
      9  CMA      -24.0990  -35.8370   24.6060 C.3   143  HEM143      0.0000
     10  CAA      -25.7740  -33.2770   25.2680 C.3   143  HEM143      0.0000
     11  CBA      -26.8460  -32.6260   24.4160 C.3   143  HEM143      0.0000
     12  CGA      -28.1200  -33.0680   25.0900 C.2   143  HEM143      0.0000
     13  O1A      -29.1250  -33.3260   24.3750 O.co2 143  HEM143      0.0000
     14  O2A      -28.1050  -33.1810   26.3570 O.co2 143  HEM143      0.0000
     15  C1B      -20.0160  -34.3450   23.3640 C.2   143  HEM143      0.0000
     16  C2B      -18.8990  -35.2170   23.0820 C.2   143  HEM143      0.0000
     17  C3B      -17.8090  -34.4500   22.9490 C.2   143  HEM143      0.0000
     18  C4B      -18.2090  -33.0730   23.1460 C.2   143  HEM143      0.0000
     19  CMB      -19.0110  -36.7600   22.9600 C.3   143  HEM143      0.0000
     20  CAB      -16.3740  -34.9610   22.6560 C.2   143  HEM143      0.0000
     21  CBB      -16.0740  -36.2690   22.5650 C.2   143  HEM143      0.0000
     22  C1C      -17.7650  -30.6340   23.4390 C.ar  143  HEM143      0.0000
     23  C2C      -16.8420  -29.5240   23.6160 C.ar  143  HEM143      0.0000
     24  C3C      -17.5510  -28.4160   23.9390 C.ar  143  HEM143      0.0000
     25  C4C      -18.9530  -28.7910   23.9730 C.ar  143  HEM143      0.0000
     26  CMC      -15.3180  -29.6140   23.4500 C.3   143  HEM143      0.0000
     27  CAC      -16.9990  -26.9870   24.2310 C.2   143  HEM143      0.0000
     28  CBC      -16.2570  -26.7130   25.3160 C.2   143  HEM143      0.0000
     29  C1D      -21.3040  -28.3510   24.4430 C.2   143  HEM143      0.0000
     30  C2D      -22.4010  -27.4810   24.8150 C.2   143  HEM143      0.0000
     31  C3D      -23.6370  -28.3760   24.9030 C.2   143  HEM143      0.0000
     32  C4D      -23.1590  -29.7040   24.5690 C.2   143  HEM143      0.0000
     33  CMD      -22.3630  -25.9620   25.0870 C.3   143  HEM143      0.0000
     34  CAD      -25.0810  -27.9530   25.2680 C.3   143  HEM143      0.0000
     35  CBD      -25.1760  -27.7660   26.7820 C.3   143  HEM143      0.0000
     36  CGD      -26.5690  -27.3270   27.1800 C.2   143  HEM143      0.0000
     37  O1D      -27.2250  -28.1370   27.8910 O.co2 143  HEM143      0.0000
     38  O2D      -27.0240  -26.1940   26.8030 O.co2 143  HEM143      0.0000
     39  NA       -22.3300  -32.5710   23.8970 N.ar  143  HEM143      0.0000
     40  NB       -19.5570  -33.0450   23.3940 N.2   143  HEM143      0.0000
     41  NC       -19.0540  -30.1390   23.6590 N.ar  143  HEM143      0.0000
     42  ND       -21.7900  -29.6400   24.3040 N.2   143  HEM143      0.0000
     43 FE        -20.7430  -31.3150   23.9760 Fe    143  HEM143      0.0000
@<TRIPOS>BOND
     1    21    20    2
     2    20    17    1
     3    17    16    2
     4    17    18    1
     5    19    16    1
     6    16    15    1
     7     3    18    2
     8     3    22    1
     9    18    40    1
    10    15    40    2
    11    15     2    1
    12    40    43    1
    13    22    23   ar
    14    22    41   ar
    15    26    23    1
    16     2     8    2
    17    23    24   ar
    18    41    25   ar
    19    41    43    1
    20    39     8   ar
    21    39    43    1
    22    39     5   ar
    23     8     7   ar
    24    24    25   ar
    25    24    27    1
    26    25     4    1
    27    43    42    1
    28    27    28    2
    29     4    29    2
    30    42    29    1
    31    42    32    2
    32     5     1    2
    33     5     6   ar
    34    13    12   ar
    35     7     9    1
    36     7     6   ar
    37    11    12    1
    38    11    10    1
    39    29    30    1
    40     1    32    1
    41    32    31    1
    42     6    10    1
    43    30    31    2
    44    30    33    1
    45    31    34    1
    46    12    14   ar
    47    34    35    1
    48    35    36    1
    49    38    36   ar
    50    36    37   ar
