@<TRIPOS>MOLECULE
3gyt_DL4_A_1.pdb
 30 33 0 0 0
SMALL
GASTEIGER

@<TRIPOS>ATOM
      1  O3        -8.8410  -30.7410    4.7850 O.co2 100  DL4100     -0.2457
      2  C27       -8.4420  -31.8950    4.5320 C.2   100  DL4100      0.3643
      3  O2        -9.1930  -32.8430    4.1920 O.co2 100  DL4100     -0.2457
      4  C25       -6.9850  -32.2230    4.6210 C.3   100  DL4100      0.1034
      5  C26       -6.5940  -32.0490    6.0490 C.3   100  DL4100      0.0118
      6  C24       -6.1450  -31.4090    3.6500 C.3   100  DL4100      0.0112
      7  C23       -6.6090  -31.5510    2.1980 C.3   100  DL4100      0.0006
      8  C22       -5.5330  -32.1300    1.2820 C.3   100  DL4100      0.0000
      9  C20       -5.7430  -33.6240    0.9250 C.3   100  DL4100      0.0000
     10  C21       -7.0840  -33.6870    0.2010 C.3   100  DL4100      0.0000
     11  C17       -4.6000  -34.1510    0.0270 C.3   100  DL4100      0.0000
     12  C16       -3.2230  -33.9860    0.6930 C.3   100  DL4100      0.0000
     13  C15       -2.2830  -35.1230    0.2200 C.3   100  DL4100      0.0000
     14  C14       -3.1150  -35.7100   -0.8970 C.3   100  DL4100      0.0000
     15  C8        -2.9090  -37.1300   -1.4470 C.3   100  DL4100      0.0006
     16  C7        -1.4520  -37.3620   -1.8470 C.3   100  DL4100      0.0044
     17  C6        -1.0910  -38.7970   -2.2770 C.3   100  DL4100      0.0221
     18  C13       -4.5780  -35.5760   -0.4710 C.3   100  DL4100      0.0000
     19  C18       -4.8350  -36.5660    0.6820 C.3   100  DL4100      0.0000
     20  C12       -5.4440  -35.8920   -1.6800 C.3   100  DL4100      0.0000
     21  C11       -5.2230  -37.3250   -2.2010 C.3   100  DL4100      0.0003
     22  C9        -3.7720  -37.6790   -2.5720 C.3   100  DL4100      0.0035
     23  C10       -3.5180  -39.1090   -3.0820 C.3   100  DL4100      0.0157
     24  C1        -4.2890  -39.1970   -4.3720 C.3   100  DL4100      0.0118
     25  C19       -3.9900  -40.1380   -2.0550 C.3   100  DL4100      0.0041
     26  C5        -2.0390  -39.2980   -3.3390 C.2   100  DL4100     -0.0420
     27  C4        -1.5340  -39.8620   -4.4310 C.2   100  DL4100      0.0289
     28  C3        -2.3750  -40.4150   -5.4620 C.2   100  DL4100      0.1725
     29  O1        -1.9230  -40.9900   -6.4170 O.2   100  DL4100     -0.2914
     30  C2        -3.8580  -40.3210   -5.3070 C.3   100  DL4100      0.0694
@<TRIPOS>BOND
     1    29    28    2
     2    28    30    1
     3    28    27    1
     4    30    24    1
     5    27    26    2
     6    24    23    1
     7    26    23    1
     8    26    17    1
     9    23    22    1
    10    23    25    1
    11    22    21    1
    12    22    15    1
    13    17    16    1
    14    21    20    1
    15    16    15    1
    16    20    18    1
    17    15    14    1
    18    14    18    1
    19    14    13    1
    20    18    11    1
    21    18    19    1
    22    11    12    1
    23    11     9    1
    24    10     9    1
    25    13    12    1
    26     9     8    1
    27     8     7    1
    28     7     6    1
    29     6     4    1
    30     3     2   ar
    31     2     4    1
    32     2     1   ar
    33     4     5    1
