@<TRIPOS>MOLECULE
3gyu_DL7_A_1.pdb
 30 33 0 0 0
SMALL
GASTEIGER

@<TRIPOS>ATOM
      1  O3        -9.1820  -32.5550    3.3840 O.co2 200  DL7200     -0.2457
      2  C27       -8.2850  -33.0590    4.1140 C.2   200  DL7200      0.3643
      3  O2        -8.4780  -33.9900    4.9090 O.co2 200  DL7200     -0.2457
      4  C25       -6.9170  -32.4990    4.1330 C.3   200  DL7200      0.1034
      5  C26       -6.9910  -31.2080    4.9440 C.3   200  DL7200      0.0118
      6  C24       -6.4940  -32.2280    2.6980 C.3   200  DL7200      0.0112
      7  C23       -6.5250  -33.4980    1.8970 C.3   200  DL7200      0.0006
      8  C22       -6.1030  -33.3220    0.4380 C.3   200  DL7200      0.0000
      9  C20       -6.0940  -34.7620   -0.1250 C.3   200  DL7200      0.0000
     10  C21       -7.5360  -35.0000   -0.6130 C.3   200  DL7200      0.0000
     11  C17       -4.9480  -35.0640   -1.1450 C.3   200  DL7200      0.0003
     12  C16       -3.5390  -34.7790   -0.6150 C.3   200  DL7200      0.0003
     13  C15       -2.5510  -35.8050   -1.1700 C.3   200  DL7200      0.0040
     14  C14       -3.3990  -36.4740   -2.2710 C.3   200  DL7200      0.0180
     15  C8        -3.0020  -37.7900   -2.8660 C.2   200  DL7200     -0.0491
     16  C7        -1.9080  -38.5010   -2.6760 C.2   200  DL7200     -0.0346
     17  C6        -1.3340  -39.7880   -3.1610 C.3   200  DL7200      0.0258
     18  C13       -4.7970  -36.5220   -1.7020 C.3   200  DL7200      0.0034
     19  C18       -4.7700  -37.5900   -0.5690 C.3   200  DL7200      0.0003
     20  C12       -5.7240  -36.8640   -2.8650 C.3   200  DL7200      0.0006
     21  C11       -5.4090  -38.1960   -3.5450 C.3   200  DL7200      0.0040
     22  C9        -3.9320  -38.4050   -3.9110 C.3   200  DL7200      0.0180
     23  C10       -3.5980  -39.8670   -4.3960 C.3   200  DL7200      0.0046
     24  C1        -4.2050  -40.1210   -5.7800 C.3   200  DL7200      0.0081
     25  C19       -4.1590  -40.8810   -3.4130 C.3   200  DL7200      0.0003
     26  C5        -2.0660  -40.0390   -4.5340 C.3   200  DL7200      0.0120
     27  C4        -1.6210  -41.3530   -5.1290 C.3   200  DL7200      0.0648
     28  C3        -2.3280  -41.6860   -6.4000 C.2   200  DL7200      0.1507
     29  O1        -1.7380  -42.0990   -7.4130 O.2   200  DL7200     -0.2961
     30  C2        -3.8120  -41.4330   -6.3980 C.3   200  DL7200      0.0645
@<TRIPOS>BOND
     1    29    28    2
     2    28    30    1
     3    28    27    1
     4    30    24    1
     5    24    23    1
     6    27    26    1
     7    26    23    1
     8    26    17    1
     9    23    22    1
    10    23    25    1
    11    22    21    1
    12    22    15    1
    13    21    20    1
    14    17    16    1
    15    15    16    2
    16    15    14    1
    17    20    18    1
    18    14    18    1
    19    14    13    1
    20    18    11    1
    21    18    19    1
    22    13    12    1
    23    11    12    1
    24    11     9    1
    25    10     9    1
    26     9     8    1
    27     8     7    1
    28     7     6    1
    29     6     4    1
    30     1     2   ar
    31     2     4    1
    32     2     3   ar
    33     4     5    1
