@<TRIPOS>MOLECULE
3gz3_FMN_A_1.pdb
 31 33 0 0 0
SMALL
GASTEIGER

@<TRIPOS>ATOM
      1  N1        53.8210  -17.4350  -15.0390 N.2   321  FMN321     -0.2887
      2  C2        54.9500  -17.4550  -15.8110 C.1   321  FMN321      0.3669
      3  O2        55.9880  -16.9740  -15.3710 O.2   321  FMN321     -0.1744
      4  N3        54.9150  -18.0380  -17.0690 N.2   321  FMN321     -0.2300
      5  C4        53.7510  -18.5830  -17.5700 C.1   321  FMN321      0.2513
      6  O4        53.6670  -18.8550  -18.7760 O.2   321  FMN321     -0.2057
      7  C4A       52.6040  -18.5520  -16.7930 C.2   321  FMN321      0.2703
      8  N5        51.4170  -19.0890  -17.2610 N.2   321  FMN321     -0.3885
      9  C5A       50.2710  -19.0220  -16.5040 C.2   321  FMN321      0.1233
     10  C6        49.0670  -19.5480  -16.9860 C.3   321  FMN321      0.0606
     11  C7        47.9050  -19.4840  -16.2100 C.3   321  FMN321      0.0111
     12  C7M       46.5760  -19.5650  -16.9170 C.3   321  FMN321      0.0008
     13  C8        47.9670  -18.8810  -14.9390 C.3   321  FMN321      0.0238
     14  C8M       46.7190  -18.5140  -14.1750 C.3   321  FMN321      0.0047
     15  C9        49.1700  -18.3600  -14.4700 C.2   321  FMN321     -0.0093
     16  C9A       50.3240  -18.4280  -15.2410 C.2   321  FMN321      0.0750
     17  N10       51.5190  -17.9210  -14.7590 N.pl3 321  FMN321     -0.2548
     18  C10       52.6490  -17.9640  -15.5280 C.2   321  FMN321      0.2449
     19  C1'       51.6310  -17.3600  -13.3770 C.3   321  FMN321      0.1336
     20  C2'       51.2150  -15.8950  -13.4740 C.3   321  FMN321      0.2048
     21  O2'       52.1050  -15.2090  -14.3220 O.3   321  FMN321     -0.2185
     22  C3'       51.1960  -15.2360  -12.0990 C.3   321  FMN321      0.2165
     23  O3'       52.5030  -15.3200  -11.5830 O.3   321  FMN321     -0.2175
     24  C4'       50.2670  -15.9370  -11.1070 C.3   321  FMN321      0.2147
     25  O4'       49.0880  -16.3660  -11.7530 O.3   321  FMN321     -0.2176
     26  C5'       49.9390  -15.0210   -9.9200 C.3   321  FMN321      0.1892
     27  O5'       49.2380  -13.8810  -10.3890 O.3   321  FMN321     -0.2674
     28  P         47.6310  -13.7450  -10.2530 P.3   321  FMN321      0.5327
     29  O1P       47.2660  -13.8690   -8.8160 O.3   321  FMN321     -0.1145
     30  O2P       46.9800  -14.8830  -11.0150 O.2   321  FMN321     -0.2224
     31  O3P       47.2980  -12.3860  -10.7980 O.3   321  FMN321     -0.1145
@<TRIPOS>BOND
     1     6     5    2
     2     5     4    2
     3     5     7    1
     4     8     7    2
     5     8     9    2
     6     4     2    2
     7    10     9    1
     8    10    11    1
     9    12    11    1
    10     7    18    1
    11     9    16    1
    12    11    13    1
    13     2     3    2
    14     2     1    2
    15    18     1    2
    16    18    17    1
    17    16    17    1
    18    16    15    2
    19    13    15    1
    20    13    14    1
    21    17    19    1
    22    21    20    1
    23    20    19    1
    24    20    22    1
    25    22    23    1
    26    22    24    1
    27    25    24    1
    28    24    26    1
    29    30    28    2
    30    31    28    1
    31    27    28    1
    32    27    26    1
    33    28    29    1
