@<TRIPOS>MOLECULE
3gz4_NAP_A_1.pdb
 48 52 0 0 0
SMALL
GASTEIGER

@<TRIPOS>ATOM
      1  PA         4.3930   -0.6760   21.5940 P.3   500  NAP500      0.2189
      2  O1A        4.2800   -0.1180   22.9460 O.3   500  NAP500     -0.4371
      3  O2A        3.1320   -1.3460   21.2190 O.2   500  NAP500     -0.5170
      4  O5B        4.6510    0.3700   20.4040 O.3   500  NAP500     -0.3112
      5  C5B        4.6510   -0.0630   19.0490 C.3   500  NAP500      0.1813
      6  C4B        4.6740    1.1740   18.1380 C.3   500  NAP500      0.1820
      7  O4B        4.3450    0.8400   16.7920 O.3   500  NAP500     -0.3136
      8  C3B        3.6630    2.2140   18.5870 C.3   500  NAP500      0.2157
      9  O3B        4.1610    3.5120   18.4420 O.3   500  NAP500     -0.2175
     10  C2B        2.5410    2.1020   17.6040 C.3   500  NAP500      0.2314
     11  O2B        1.8910    3.3450   17.4730 O.3   500  NAP500     -0.2630
     12  C1B        3.2930    1.6670   16.3540 C.3   500  NAP500      0.3158
     13  N9A        2.3450    1.0360   15.4350 N.pl3 500  NAP500     -0.1439
     14  C8A        1.6310   -0.1170   15.5590 C.3   500  NAP500      0.3377
     15  N7A        0.8640   -0.2330   14.4460 N.2   500  NAP500     -0.2095
     16  C5A        1.0770    0.8280   13.6340 C.2   500  NAP500      0.2526
     17  C6A        0.5490    1.2110   12.4100 C.2   500  NAP500      0.4393
     18  N6A       -0.3620    0.4540   11.7840 N.pl3 500  NAP500      0.2180
     19  N1A        0.9830    2.3880   11.8240 N.2   500  NAP500      0.0021
     20  C2A        1.9220    3.1860   12.4620 C.3   500  NAP500      0.5254
     21  N3A        2.4260    2.8030   13.6940 N.2   500  NAP500     -0.0055
     22  C4A        2.0050    1.6310   14.2520 C.2   500  NAP500      0.3518
     23  O3         5.5200   -1.7920   21.4690 O.3   500  NAP500     -0.2703
     24  PN         7.0430   -1.9340   21.8930 P.3   500  NAP500      0.2189
     25  O1N        7.6610   -0.6020   22.1100 O.2   500  NAP500     -0.5170
     26  O2N        7.1710   -3.0920   22.7880 O.3   500  NAP500     -0.4371
     27  O5D        7.5780   -2.4760   20.5010 O.3   500  NAP500     -0.3112
     28  C5D        8.5880   -1.7520   19.8570 C.3   500  NAP500      0.1813
     29  C4D        9.1520   -2.7200   18.8590 C.3   500  NAP500      0.1799
     30  O4D        9.8810   -3.6630   19.5910 O.3   500  NAP500     -0.3327
     31  C3D        8.0850   -3.4780   18.1120 C.3   500  NAP500      0.2158
     32  O3D        8.5740   -3.5910   16.7960 O.3   500  NAP500     -0.2175
     33  C2D        8.1110   -4.8630   18.7160 C.3   500  NAP500      0.2309
     34  O2D        7.8640   -5.7690   17.6980 O.3   500  NAP500     -0.2158
     35  C1D        9.5260   -4.9930   19.1870 C.3   500  NAP500      0.2263
     36  N1N        9.7530   -5.9010   20.3290 N.pl3 500  NAP500     -0.2787
     37  C2N        9.4560   -5.4790   21.6010 C.3   500  NAP500      0.1244
     38  C3N        9.6890   -6.3120   22.6990 C.2   500  NAP500      0.0544
     39  C7N        9.0200   -6.0260   24.0460 C.2   500  NAP500      0.2818
     40  O7N        9.1610   -6.9620   25.0890 O.2   500  NAP500     -0.2670
     41  N7N        8.3120   -4.9000   24.2220 N.am  500  NAP500     -0.0839
     42  C4N       10.2700   -7.5510   22.4610 C.2   500  NAP500      0.0033
     43  C5N       10.5950   -7.9570   21.1540 C.2   500  NAP500      0.0157
     44  C6N       10.3300   -7.1200   20.0950 C.2   500  NAP500      0.0633
     45  P2B        0.7090    3.8970   18.4620 P.3   500  NAP500      0.5328
     46  O1X        0.5060    5.3540   18.2120 O.3   500  NAP500     -0.1145
     47  O2X       -0.5980    3.2440   18.1240 O.2   500  NAP500     -0.2224
     48  O3X        1.0080    3.8080   19.9310 O.3   500  NAP500     -0.1145
@<TRIPOS>BOND
     1    18    17    1
     2    19    17    2
     3    19    20    1
     4    17    16    1
     5    20    21    1
     6    16    22    1
     7    16    15    2
     8    21    22    2
     9    22    13    1
    10    15    14    1
    11    13    14    1
    12    13    12    1
    13    12     7    1
    14    12    10    1
    15     7     6    1
    16    32    31    1
    17    11    10    1
    18    11    45    1
    19    10     8    1
    20    34    33    1
    21    31    33    1
    22    31    29    1
    23    47    45    2
    24     6     8    1
    25     6     5    1
    26    46    45    1
    27     9     8    1
    28    45    48    1
    29    33    35    1
    30    29    30    1
    31    29    28    1
    32     5     4    1
    33    35    30    1
    34    35    36    1
    35    28    27    1
    36    44    36    1
    37    44    43    2
    38    36    37    1
    39     4     1    1
    40    27    24    1
    41    43    42    1
    42     3     1    2
    43    23     1    1
    44    23    24    1
    45     1     2    1
    46    37    38    1
    47    24    25    2
    48    24    26    1
    49    42    38    2
    50    38    39    1
    51    39    41   am
    52    39    40    2
