@<TRIPOS>MOLECULE
3gz8_APR_A_1.pdb
 36 39 0 0 0
SMALL
GASTEIGER

@<TRIPOS>ATOM
      1  N1         9.4430  -18.1890   -3.6440 N.2   302  APR302      0.0021
      2  C2         9.6510  -19.4590   -4.0660 C.3   302  APR302      0.5254
      3  N3         9.0920  -20.5290   -3.4710 N.2   302  APR302     -0.0055
      4  C4         8.2600  -20.3650   -2.4000 C.2   302  APR302      0.3518
      5  C5         7.9800  -19.0050   -1.9070 C.2   302  APR302      0.2526
      6  C6         8.6370  -17.8870   -2.5890 C.2   302  APR302      0.4393
      7  N6         8.4220  -16.6100   -2.1640 N.pl3 302  APR302      0.2180
      8  N7         7.1490  -19.1180   -0.8660 N.2   302  APR302     -0.2095
      9  C8         6.8940  -20.4430   -0.7030 C.3   302  APR302      0.3377
     10  N9         7.5690  -21.1830   -1.6050 N.pl3 302  APR302     -0.1439
     11  C1'        7.5340  -22.6500   -1.7210 C.3   302  APR302      0.3186
     12  C2'        7.4180  -23.3120   -0.3550 C.3   302  APR302      0.2570
     13  O2'        8.1150  -24.5680   -0.4030 O.3   302  APR302     -0.2130
     14  C3'        5.9450  -23.6090   -0.1980 C.3   302  APR302      0.2184
     15  O3'        5.7190  -24.7650    0.6120 O.3   302  APR302     -0.2174
     16  O4'        6.3750  -23.0350   -2.4520 O.3   302  APR302     -0.3135
     17  C4'        5.5150  -23.8290   -1.6410 C.3   302  APR302      0.1821
     18  C5'        4.1200  -23.3430   -1.9360 C.3   302  APR302      0.1813
     19  O5'        3.8270  -23.8020   -3.2600 O.3   302  APR302     -0.3112
     20  PA         2.3350  -23.5860   -3.8040 P.3   302  APR302      0.2189
     21  O1A        1.3260  -24.1120   -2.7910 O.3   302  APR302     -0.4371
     22  O2A        2.3280  -24.0940   -5.2070 O.2   302  APR302     -0.5170
     23  O3A        2.4040  -21.9670   -3.7850 O.3   302  APR302     -0.2703
     24  PB         1.1050  -21.0420   -3.6030 P.3   302  APR302      0.2189
     25  O1B        0.8690  -20.8250   -2.1460 O.3   302  APR302     -0.4371
     26  O2B        0.0940  -21.6560   -4.5250 O.2   302  APR302     -0.5170
     27  O5D        1.5350  -19.5770   -4.1260 O.3   302  APR302     -0.3112
     28  C5D        1.2920  -19.2190   -5.4920 C.3   302  APR302      0.1813
     29  O4D        0.2580  -17.1310   -4.8780 O.3   302  APR302     -0.3237
     30  O1D       -0.0070  -14.8350   -5.2390 O.3   302  APR302     -0.1869
     31  C1D       -0.5920  -16.1280   -5.4100 C.3   302  APR302      0.3023
     32  O2D       -2.0910  -16.1690   -7.2840 O.3   302  APR302     -0.2148
     33  C2D       -0.7540  -16.5030   -6.8710 C.3   302  APR302      0.2433
     34  O3D       -1.6100  -18.7940   -7.2140 O.3   302  APR302     -0.2175
     35  C3D       -0.4430  -18.0010   -6.9500 C.3   302  APR302      0.2168
     36  C4D        0.0290  -18.3680   -5.5490 C.3   302  APR302      0.1807
@<TRIPOS>BOND
     1    32    33    1
     2    34    35    1
     3    35    33    1
     4    35    36    1
     5    33    31    1
     6    36    28    1
     7    36    29    1
     8    28    27    1
     9    31    30    1
    10    31    29    1
    11    22    20    2
    12    26    24    2
    13    27    24    1
    14     2     1    1
    15     2     3    1
    16    20    23    1
    17    20    19    1
    18    20    21    1
    19    23    24    1
    20     1     6    2
    21    24    25    1
    22     3     4    2
    23    19    18    1
    24     6     7    1
    25     6     5    1
    26    16    11    1
    27    16    17    1
    28     4     5    1
    29     4    10    1
    30    18    17    1
    31     5     8    2
    32    11    10    1
    33    11    12    1
    34    17    14    1
    35    10     9    1
    36     8     9    1
    37    13    12    1
    38    12    14    1
    39    14    15    1
