@<TRIPOS>MOLECULE
3gz9_B7G_A_1.pdb
 19 19 0 0 0
SMALL
GASTEIGER

@<TRIPOS>ATOM
      1  C5        45.2250   91.7310   -4.7140 C.3   570  B7G570      0.1835
      2  O5        44.5100   90.5090   -4.4450 O.3   570  B7G570     -0.3256
      3  C1        44.8200   89.4140   -5.3390 C.3   570  B7G570      0.2695
      4  C2        44.5650   89.8170   -6.7910 C.3   570  B7G570      0.2406
      5  C3        45.3730   91.0720   -7.1840 C.3   570  B7G570      0.2198
      6  C4        45.1480   92.2260   -6.1760 C.3   570  B7G570      0.2144
      7  C6        44.7070   92.8170   -3.7970 C.3   570  B7G570      0.2142
      8  O1        43.9590   88.3080   -5.0870 O.3   570  B7G570     -0.3286
      9  C7        44.3270   87.5140   -3.9570 C.3   570  B7G570      0.1449
     10  C8        43.2370   87.5030   -2.9030 C.3   570  B7G570      0.0322
     11  C9        43.1390   86.1340   -2.2420 C.3   570  B7G570      0.0026
     12  C10       43.9580   86.0390   -0.9830 C.3   570  B7G570      0.0001
     13  C11       43.0570   85.7360    0.1980 C.3   570  B7G570      0.0000
     14  C12       43.6490   86.4600    1.3810 C.3   570  B7G570      0.0000
     15  O2        44.9380   88.7060   -7.5930 O.3   570  B7G570     -0.2149
     16  O3        45.0840   91.4670   -8.5270 O.3   570  B7G570     -0.2174
     17  O4        46.1120   93.2960   -6.2800 O.3   570  B7G570     -0.2176
     18  O6        45.6840   92.8790   -2.7760 O.3   570  B7G570     -0.2176
     19  C13       42.5910   86.7210    2.4250 C.3   570  B7G570      0.0000
@<TRIPOS>BOND
     1    16     5    1
     2    15     4    1
     3     5     4    1
     4     5     6    1
     5     4     3    1
     6    17     6    1
     7     6     1    1
     8     3     8    1
     9     3     2    1
    10     8     9    1
    11     1     2    1
    12     1     7    1
    13     9    10    1
    14     7    18    1
    15    10    11    1
    16    11    12    1
    17    12    13    1
    18    13    14    1
    19    14    19    1
