@<TRIPOS>MOLECULE
3gz9_D32_A_1.pdb
 36 38 0 0 0
SMALL
GASTEIGER

@<TRIPOS>ATOM
      1  O22       38.6210   77.7970   -5.1200 O.co2   1  D321       -0.2415
      2  C17       38.0720   76.7800   -5.5820 C.2     1  D321        0.4084
      3  O21       38.7470   76.1040   -6.3480 O.co2   1  D321       -0.2415
      4  C14       36.6200   76.4590   -5.3700 C.3     1  D321        0.3186
      5  O11       36.3070   75.2270   -6.0720 O.3     1  D321       -0.4641
      6  C5        36.6560   74.0030   -5.4790 C.ar    1  D321        0.1351
      7  C10       37.5940   73.7930   -4.4870 C.ar    1  D321        0.0371
      8  C8        37.8940   72.4700   -3.9420 C.ar    1  D321        0.0093
      9  C2        36.0120   72.8890   -5.9740 C.ar    1  D321        0.0087
     10  C6        35.0320   73.0790   -7.1090 C.3     1  D321        0.0339
     11  C1        36.3150   71.6140   -5.5190 C.ar    1  D321       -0.0169
     12  C4        35.5610   70.5040   -6.1810 C.3     1  D321        0.0313
     13  C3        37.2230   71.3750   -4.4900 C.ar    1  D321        0.0255
     14  S7        37.5160   69.7580   -3.9510 S.3     1  D321       -0.0842
     15  C13       36.5170   69.5570   -2.5690 C.ar    1  D321        0.0634
     16  C16       35.9150   70.6320   -1.9370 C.ar    1  D321        0.0093
     17  C20       35.0710   70.4920   -0.7940 C.ar    1  D321        0.0000
     18  C15       36.3070   68.3070   -2.0900 C.ar    1  D321        0.1457
     19  O1        36.9440   67.2320   -2.7270 O.3     1  D321       -0.4607
     20  C7        36.6170   65.9970   -2.0840 C.3     1  D321        0.2820
     21  C11       37.6110   65.7780   -1.0390 C.1     1  D321       -0.0307
     22  C19       38.5250   65.5050   -0.1680 C.1     1  D321       -0.0105
     23  C18       35.4780   68.1540   -0.9410 C.ar    1  D321        0.0368
     24  C23       34.8770   69.2330   -0.2670 C.ar    1  D321        0.0242
     25  C24       34.0070   69.0960    0.9760 C.3     1  D321        0.2321
     26  O25       32.9240   70.0100    0.8180 O.3     1  D321       -0.4706
     27  C26       31.6570   69.6870    0.3040 C.ar    1  D321        0.1390
     28  C28       30.5250   70.2170    0.9260 C.ar    1  D321        0.0369
     29  C30       29.2800   69.8970    0.4880 C.ar    1  D321        0.0070
     30  C27       31.4990   68.7860   -0.7460 C.ar    1  D321        0.0369
     31  C29       30.2340   68.4540   -1.1810 C.ar    1  D321        0.0070
     32  C31       29.1320   69.0430   -0.5880 C.ar    1  D321        0.0716
     33  C32       27.7570   68.6210   -1.0470 C.3     1  D321        0.4186
     34  F34       27.0160   68.1680   -0.0370 F       1  D321       -0.1659
     35  F35       27.8370   67.5690   -1.8140 F       1  D321       -0.1659
     36  F33       27.1720   69.5830   -1.7000 F       1  D321       -0.1659
@<TRIPOS>BOND
     1    10     9    1
     2     3     2   ar
     3    12    11    1
     4     5     6    1
     5     5     4    1
     6     9    11   ar
     7     9     6   ar
     8     2     4    1
     9     2     1   ar
    10    11    13   ar
    11     6     7   ar
    12    13    14    1
    13    13     8   ar
    14     7     8   ar
    15    14    15    1
    16    19    18    1
    17    19    20    1
    18    15    18   ar
    19    15    16   ar
    20    18    23   ar
    21    20    21    1
    22    16    17   ar
    23    35    33    1
    24    36    33    1
    25    31    30   ar
    26    31    32   ar
    27    33    32    1
    28    33    34    1
    29    21    22    3
    30    23    24   ar
    31    17    24   ar
    32    30    27   ar
    33    32    29   ar
    34    24    25    1
    35    27    26    1
    36    27    28   ar
    37    29    28   ar
    38    26    25    1
