@<TRIPOS>MOLECULE
3gzc_PLR_A_1.pdb
 15 15 0 0 0
SMALL
GASTEIGER

@<TRIPOS>ATOM
      1  N1       -14.9540  -16.0360   15.8010 N.ar  500  PLR500     -0.2452
      2  C2       -14.6220  -17.0790   15.0090 C.ar  500  PLR500      0.0978
      3  C2A      -14.4780  -16.8050   13.5400 C.3   500  PLR500      0.0555
      4  C3       -14.4330  -18.3310   15.6190 C.ar  500  PLR500      0.2049
      5  O3       -14.0990  -19.4330   14.8940 O.3   500  PLR500     -0.2857
      6  C4       -14.5650  -18.4360   16.9990 C.ar  500  PLR500      0.0182
      7  C4A      -14.3310  -19.7630   17.6370 C.3   500  PLR500      0.0342
      8  C5       -14.9120  -17.3010   17.7500 C.ar  500  PLR500      0.0261
      9  C6       -15.0790  -16.1160   17.0900 C.ar  500  PLR500      0.0965
     10  C5A      -15.0990  -17.2890   19.2480 C.3   500  PLR500      0.1815
     11  O4P      -16.1260  -18.1730   19.7010 O.3   500  PLR500     -0.2653
     12  P        -16.1680  -18.7790   21.1980 P.3   500  PLR500      0.5329
     13  O1P      -14.8420  -19.3610   21.4900 O.3   500  PLR500     -0.1145
     14  O2P      -16.4930  -17.7070   22.2250 O.3   500  PLR500     -0.1145
     15  O3P      -17.3200  -19.7350   21.0520 O.2   500  PLR500     -0.2224
@<TRIPOS>BOND
     1     3     2    1
     2     5     4    1
     3     2     4   ar
     4     2     1   ar
     5     4     6   ar
     6     1     9   ar
     7     6     7    1
     8     6     8   ar
     9     9     8   ar
    10     8    10    1
    11    10    11    1
    12    11    12    1
    13    15    12    2
    14    12    13    1
    15    12    14    1
