@<TRIPOS>MOLECULE
3gzd_PLR_A_1.pdb
 15 15 0 0 0
SMALL
GASTEIGER

@<TRIPOS>ATOM
      1  N1        39.3190   18.4860   32.1920 N.ar  500  PLR500     -0.2452
      2  C2        40.1630   19.3540   32.7740 C.ar  500  PLR500      0.0978
      3  C2A       40.5240   20.6040   32.0020 C.3   500  PLR500      0.0555
      4  C3        40.7080   19.0820   34.0500 C.ar  500  PLR500      0.2049
      5  O3        41.5480   19.9690   34.6260 O.3   500  PLR500     -0.2857
      6  C4        40.3710   17.9390   34.7690 C.ar  500  PLR500      0.0182
      7  C4A       41.0030   17.7570   36.1960 C.3   500  PLR500      0.0342
      8  C5        39.4820   17.0640   34.0820 C.ar  500  PLR500      0.0261
      9  C6        38.9760   17.3660   32.7970 C.ar  500  PLR500      0.0965
     10  C5A       38.9100   15.7790   34.6360 C.3   500  PLR500      0.1815
     11  O4P       39.7580   14.6870   34.4160 O.3   500  PLR500     -0.2653
     12  P         39.7660   13.4880   35.4740 P.3   500  PLR500      0.5329
     13  O1P       39.2960   14.0270   36.8130 O.3   500  PLR500     -0.1145
     14  O2P       38.9030   12.4210   34.8910 O.2   500  PLR500     -0.2224
     15  O3P       41.2310   13.0820   35.5140 O.3   500  PLR500     -0.1145
@<TRIPOS>BOND
     1     3     2    1
     2     1     2   ar
     3     1     9   ar
     4     2     4   ar
     5     9     8   ar
     6     4     5    1
     7     4     6   ar
     8     8    10    1
     9     8     6   ar
    10    11    10    1
    11    11    12    1
    12     6     7    1
    13    14    12    2
    14    12    15    1
    15    12    13    1
