@<TRIPOS>MOLECULE
3gzj_EVS_A_1.pdb
 22 26 0 0 0
SMALL
GASTEIGER

@<TRIPOS>ATOM
      1  CAA      -29.1860   -2.6170   52.2110 C.3   1000  EVS1000     0.0301
      2  CAE      -27.9580   -2.0830   52.9620 C.2   1000  EVS1000    -0.0329
      3  CAP      -26.7070   -2.4270   52.4190 C.2   1000  EVS1000    -0.0327
      4  CAK      -25.4710   -1.9710   52.9900 C.3   1000  EVS1000     0.0948
      5  NAY      -24.3410   -2.1440   52.0140 N.3   1000  EVS1000    -0.2656
      6  CAX      -24.7320   -1.4440   50.7530 C.3   1000  EVS1000     0.0653
      7  CAL      -23.5810   -1.4840   49.6670 C.3   1000  EVS1000     0.0448
      8  CAR      -22.9750   -2.7840   49.6120 C.2   1000  EVS1000     0.0083
      9  CAU      -22.1060   -3.2410   48.7210 C.ar  1000  EVS1000     0.0278
     10  CAJ      -21.5190   -2.6430   47.6620 C.ar  1000  EVS1000     0.0023
     11  CAH      -20.6230   -3.3300   46.8250 C.ar  1000  EVS1000     0.0002
     12  CAG      -20.3530   -4.6610   47.1490 C.ar  1000  EVS1000     0.0026
     13  CAI      -21.0040   -5.2120   48.2580 C.ar  1000  EVS1000     0.0320
     14  CAT      -21.8670   -4.5120   49.0150 C.ar  1000  EVS1000     0.1308
     15  NAN      -22.5670   -4.8380   50.1090 N.2   1000  EVS1000    -0.4052
     16  CAS      -23.2720   -3.7810   50.4880 C.2   1000  EVS1000     0.1195
     17  CAW      -24.1840   -3.5990   51.6120 C.3   1000  EVS1000     0.1106
     18  CAM      -25.5610   -4.2560   51.3400 C.3   1000  EVS1000     0.0274
     19  CAV      -26.6190   -3.1270   51.2230 C.3   1000  EVS1000     0.0249
     20  CAZ      -26.1970   -1.9280   50.3540 C.3   1000  EVS1000     0.0518
     21  CAF      -26.7500   -1.9270   48.9240 C.3   1000  EVS1000     0.1837
     22  OAC      -28.1770   -2.2540   48.9790 O.3   1000  EVS1000    -0.2204
@<TRIPOS>BOND
     1    11    12   ar
     2    11    10   ar
     3    12    13   ar
     4    10     9   ar
     5    13    14   ar
     6     9    14   ar
     7     9     8    2
     8    21    22    1
     9    21    20    1
    10    14    15    2
    11     8     7    1
    12     8    16    1
    13     7     6    1
    14    15    16    2
    15    20     6    1
    16    20    19    1
    17    16    17    1
    18     6     5    1
    19    19    18    1
    20    19     3    1
    21    18    17    1
    22    17     5    1
    23     5     4    1
    24     1     2    1
    25     3     2    2
    26     3     4    1
