@<TRIPOS>MOLECULE
3gzl_PNS_A_1.pdb
 22 21 0 0 0
SMALL
GASTEIGER

@<TRIPOS>ATOM
      1  O23        6.3060  -26.2370    3.9820 O.2   100  PNS100     -0.2224
      2  P24        5.0740  -26.4330    4.9980 P.3   100  PNS100      0.5326
      3  O25        5.5050  -26.4470    6.4460 O.3   100  PNS100     -0.1145
      4  O26        4.0950  -27.5150    4.6040 O.3   100  PNS100     -0.1145
      5  O27        4.1960  -25.0900    4.8740 O.3   100  PNS100     -0.2702
      6  C28        3.4880  -24.7600    3.6770 C.3   100  PNS100      0.1565
      7  C29        2.5550  -23.5780    3.9170 C.3   100  PNS100      0.0647
      8  C30        1.7300  -23.8650    5.1640 C.3   100  PNS100      0.0056
      9  C31        1.6480  -23.4140    2.7050 C.3   100  PNS100      0.0056
     10  C32        3.3810  -22.2980    4.1310 C.3   100  PNS100      0.2312
     11  O33        4.2760  -22.0880    3.0230 O.3   100  PNS100     -0.2131
     12  C34        2.5130  -21.0790    4.3300 C.2   100  PNS100      0.2719
     13  O35        1.5080  -21.1130    5.0300 O.2   100  PNS100     -0.2706
     14  N36        2.9070  -19.9720    3.7070 N.am  100  PNS100     -0.2028
     15  C37        2.1580  -18.7340    3.8030 C.3   100  PNS100      0.1248
     16  C38        0.9660  -18.7760    2.8540 C.3   100  PNS100      0.1102
     17  C39        1.3330  -19.5760    1.6230 C.2   100  PNS100      0.2432
     18  O40        2.4770  -19.5540    1.1890 O.2   100  PNS100     -0.2733
     19  N41        0.3550  -20.2880    1.0670 N.am  100  PNS100     -0.2044
     20  C42        0.5820  -21.0880   -0.1200 C.3   100  PNS100      0.1276
     21  C43       -0.2820  -22.3380   -0.1690 C.3   100  PNS100      0.0920
     22  S44        0.3480  -23.3860   -1.5010 S.3   100  PNS100     -0.0802
@<TRIPOS>BOND
     1    22    21    1
     2    21    20    1
     3    20    19    1
     4    19    17   am
     5    18    17    2
     6    17    16    1
     7     9     7    1
     8    16    15    1
     9    11    10    1
    10     6     7    1
    11     6     5    1
    12    14    15    1
    13    14    12   am
    14     7    10    1
    15     7     8    1
    16     1     2    2
    17    10    12    1
    18    12    13    2
    19     4     2    1
    20     5     2    1
    21     2     3    1
