@<TRIPOS>MOLECULE
3gzm_PNS_A_1.pdb
 22 21 0 0 0
SMALL
GASTEIGER

@<TRIPOS>ATOM
      1  O23       -3.2360    6.3620   -2.7290 O.2   100  PNS100     -0.2224
      2  P24       -2.7610    7.2630   -1.5000 P.3   100  PNS100      0.5326
      3  O25       -3.6980    7.1420   -0.3350 O.3   100  PNS100     -0.1145
      4  O26       -2.3370    8.5910   -2.1430 O.3   100  PNS100     -0.1145
      5  O27       -1.4140    6.5660   -0.9590 O.3   100  PNS100     -0.2702
      6  C28       -1.2000    5.1550   -0.7300 C.3   100  PNS100      0.1565
      7  C29        0.2970    4.8760   -0.5480 C.3   100  PNS100      0.0647
      8  C30        1.0180    5.1260   -1.8730 C.3   100  PNS100      0.0056
      9  C31        0.5110    3.4300   -0.1370 C.3   100  PNS100      0.0056
     10  C32        0.8480    5.8420    0.5220 C.3   100  PNS100      0.2312
     11  O33       -0.1360    6.0260    1.5480 O.3   100  PNS100     -0.2131
     12  C34        2.1380    5.4740    1.2200 C.2   100  PNS100      0.2719
     13  O35        2.1570    4.5880    2.0690 O.2   100  PNS100     -0.2706
     14  N36        3.2180    6.1970    0.9000 N.am  100  PNS100     -0.2028
     15  C37        4.5470    5.9990    1.4830 C.3   100  PNS100      0.1248
     16  C38        4.5810    5.6880    2.9930 C.3   100  PNS100      0.1102
     17  C39        4.9200    6.9020    3.8410 C.2   100  PNS100      0.2432
     18  O40        4.9830    6.7720    5.0600 O.2   100  PNS100     -0.2733
     19  N41        5.1400    8.0610    3.1980 N.am  100  PNS100     -0.2044
     20  C42        5.4800    9.3240    3.8380 C.3   100  PNS100      0.1276
     21  C43        4.3060   10.3020    3.8430 C.3   100  PNS100      0.0920
     22  S44        3.9880   10.9140    2.1680 S.3   100  PNS100     -0.0802
@<TRIPOS>BOND
     1     1     2    2
     2     4     2    1
     3     8     7    1
     4     2     5    1
     5     2     3    1
     6     5     6    1
     7     6     7    1
     8     7     9    1
     9     7    10    1
    10    10    12    1
    11    10    11    1
    12    14    12   am
    13    14    15    1
    14    12    13    2
    15    15    16    1
    16    22    21    1
    17    16    17    1
    18    19    20    1
    19    19    17   am
    20    20    21    1
    21    17    18    2
