@<TRIPOS>MOLECULE
3gzn_B39_I_1.pdb
 31 35 0 0 0
SMALL
GASTEIGER

@<TRIPOS>ATOM
      1  C4         8.5800   73.2300  -25.4140 C.3   464  B39464      0.1674
      2  C5        10.1090   73.2160  -25.1580 C.3   464  B39464      0.0522
      3  C6        10.2850   72.6570  -23.7390 C.3   464  B39464      0.0667
      4  C8        11.5860   73.1820  -23.0930 C.3   464  B39464      0.1766
      5  C10        7.9010   70.2450  -27.3080 C.2   464  B39464      0.0418
      6  C13        7.3390   72.3500  -27.4280 C.2   464  B39464      0.3195
      7  C15        5.9590   73.2950  -29.0720 C.3   464  B39464      0.5246
      8  C17        6.3860   71.0090  -29.1870 C.2   464  B39464      0.3524
      9  C20        5.5140   67.8650  -28.5080 C.3   464  B39464      0.0603
     10  C21        6.5830   67.5450  -30.6010 C.ar  464  B39464      0.0200
     11  C22        6.1450   66.2860  -30.1530 C.ar  464  B39464     -0.0222
     12  C24        6.4210   65.4170  -32.3740 C.ar  464  B39464     -0.0003
     13  C26        6.9430   67.7350  -31.9350 C.ar  464  B39464     -0.0006
     14  C19        5.8220   66.3810  -28.6590 C.3   464  B39464      0.0308
     15  C23        6.0640   65.2210  -31.0430 C.ar  464  B39464     -0.0044
     16  C25        6.8570   66.6640  -32.8230 C.ar  464  B39464     -0.0002
     17  C1         6.5720   68.5010  -29.4090 C.3   464  B39464      0.2269
     18  N18        6.1730   69.8550  -29.8550 N.pl3 464  B39464     -0.0344
     19  N16        5.7950   72.1250  -29.6730 N.2   464  B39464     -0.0074
     20  N14        6.7090   73.4130  -27.9720 N.2   464  B39464     -0.0107
     21  C12        7.1860   71.1100  -28.0330 C.3   464  B39464      0.2395
     22  C11        8.4850   70.8870  -26.2940 C.2   464  B39464      0.1720
     23  N7         8.1450   72.1710  -26.3710 N.pl3 464  B39464     -0.1745
     24  C3         7.9100   73.0320  -24.0410 C.3   464  B39464      0.0799
     25  C2         9.0240   73.1210  -22.9990 C.3   464  B39464      0.1586
     26  O9         9.1620   74.4740  -22.5970 O.3   464  B39464     -0.2229
     27  O27       11.7750   72.5750  -21.8130 O.3   464  B39464     -0.2273
     28  S28       12.9320   72.7020  -20.9710 S.3   464  B39464      0.0827
     29  O29       13.0530   74.1010  -20.4560 O.3   464  B39464     -0.0529
     30  O30       12.7530   71.7840  -19.8030 O.3   464  B39464     -0.0529
     31  N31       14.3130   72.2840  -21.7500 N.3   464  B39464      0.0391
@<TRIPOS>BOND
     1    16    12   ar
     2    16    13   ar
     3    12    15   ar
     4    13    10   ar
     5    15    11   ar
     6    10    11   ar
     7    10    17    1
     8    11    14    1
     9    18    17    1
    10    18     8    1
    11    19     8    2
    12    19     7    1
    13    17     9    1
    14     8    21    1
    15     7    20    1
    16    14     9    1
    17    21     6    1
    18    21     5    1
    19    20     6    2
    20     6    23    1
    21     5    22    2
    22    23    22    1
    23    23     1    1
    24     1     2    1
    25     1    24    1
    26     2     3    1
    27    24    25    1
    28     3     4    1
    29     3    25    1
    30     4    27    1
    31    25    26    1
    32    27    28    1
    33    31    28    1
    34    28    29    1
    35    28    30    1
