@<TRIPOS>MOLECULE
3gzx_BNL_A_1.pdb
 12 13 0 0 0
SMALL
GASTEIGER

@<TRIPOS>ATOM
      1  C1       -28.6070   95.1010    1.0490 C.ar  702  BNL702      0.0000
      2  C2       -29.1820   94.3520    2.0780 C.ar  702  BNL702      0.0000
      3  C3       -30.5650   94.1590    2.1100 C.ar  702  BNL702      0.0000
      4  C4       -31.3700   94.7170    1.1170 C.ar  702  BNL702      0.0000
      5  C5       -30.7940   95.4660    0.0900 C.ar  702  BNL702      0.0000
      6  C6       -29.4120   95.6580    0.0550 C.ar  702  BNL702      0.0000
      7  C12      -26.7110   92.0860    3.8250 C.ar  702  BNL702      0.0000
      8  C13      -26.7080   92.6220    5.1120 C.ar  702  BNL702      0.0000
      9  C14      -27.5110   93.7230    5.4120 C.ar  702  BNL702      0.0000
     10  C15      -28.3180   94.2910    4.4260 C.ar  702  BNL702      0.0000
     11  C16      -28.3230   93.7550    3.1370 C.ar  702  BNL702      0.0000
     12  C17      -27.5190   92.6530    2.8410 C.ar  702  BNL702      0.0000
@<TRIPOS>BOND
     1     6     5   ar
     2     6     1   ar
     3     5     4   ar
     4     1     2   ar
     5     4     3   ar
     6     2     3   ar
     7     2    11    1
     8    12    11   ar
     9    12     7   ar
    10    11    10   ar
    11     7     8   ar
    12    10     9   ar
    13     8     9   ar
