@<TRIPOS>MOLECULE
3h03_UBP_A_1.pdb
 19 19 0 0 0
SMALL
GASTEIGER

@<TRIPOS>ATOM
      1  N1        21.5620   -2.3380   22.0240 N.ar  801  UBP801     -0.2776
      2  C2        22.6370   -2.6700   21.1380 C.ar  801  UBP801      0.3338
      3  O2        22.3590   -2.9250   19.9310 O.2   801  UBP801     -0.2462
      4  N3        23.9910   -2.7000   21.5770 N.ar  801  UBP801     -0.2482
      5  C4        24.1850   -2.3680   22.9670 C.ar  801  UBP801      0.2658
      6  O4        25.3360   -2.3590   23.4520 O.2   801  UBP801     -0.2668
      7  C5        23.1650   -2.0480   23.8300 C.ar  801  UBP801      0.0796
      8  C6        21.8870   -2.0400   23.3490 C.ar  801  UBP801      0.0847
      9  C7        20.1610   -2.3070   21.5610 C.3   801  UBP801      0.1411
     10  C8        19.8870   -1.0010   20.7820 C.3   801  UBP801      0.2168
     11  N8        20.2540    0.1680   21.7070 N.3   801  UBP801     -0.1187
     12  C9        18.4130   -0.9800   20.3680 C.2   801  UBP801      0.3838
     13  O91       17.7820   -0.0460   20.8530 O.co2 801  UBP801     -0.2440
     14  O92       17.9540   -1.8060   19.6420 O.co2 801  UBP801     -0.2440
     15  C1        24.9720   -3.0750   20.5000 C.3   801  UBP801      0.1254
     16  C3        26.4730   -3.1840   20.7200 C.3   801  UBP801      0.1387
     17  C10       27.1730   -3.5670   19.4550 C.2   801  UBP801      0.3668
     18  O3        27.1930   -2.7680   18.5390 O.co2 801  UBP801     -0.2456
     19  O1        27.6720   -4.6720   19.3940 O.co2 801  UBP801     -0.2456
@<TRIPOS>BOND
     1    18    17   ar
     2    19    17   ar
     3    17    16    1
     4    14    12   ar
     5     3     2    2
     6    12    10    1
     7    12    13   ar
     8    15    16    1
     9    15     4    1
    10    10     9    1
    11    10    11    1
    12     2     4   ar
    13     2     1   ar
    14     9     1    1
    15     4     5   ar
    16     1     8   ar
    17     5     6    2
    18     5     7   ar
    19     8     7   ar
