@<TRIPOS>MOLECULE
3h06_VBP_B_1.pdb
 24 25 0 0 0
SMALL
GASTEIGER

@<TRIPOS>ATOM
      1  C10       -1.6290   17.3910  -30.7350 C.3   807  VBP807      0.1403
      2  C11       -2.9370   17.8110  -30.1220 C.ar  807  VBP807      0.0006
      3  C12       -3.6350   19.0650  -30.6380 C.ar  807  VBP807     -0.0022
      4  C13       -4.9670   19.5240  -30.0150 C.ar  807  VBP807      0.0063
      5  C14       -5.5980   18.7240  -28.8680 C.ar  807  VBP807      0.0798
      6  C15       -4.8830   17.4510  -28.3540 C.ar  807  VBP807      0.0063
      7  C16       -3.5470   16.9860  -28.9790 C.ar  807  VBP807     -0.0022
      8  C17       -6.9080   19.1840  -28.2470 C.2   807  VBP807      0.3878
      9  C20       -0.0080   18.2020  -28.8370 C.ar  807  VBP807      0.3341
     10  C22        2.1300   20.1620  -24.9980 C.3   807  VBP807      0.4449
     11  N01        0.9960   21.4720  -26.8050 N.3   807  VBP807     -0.1225
     12  C02        1.1430   20.1680  -26.1500 C.3   807  VBP807      0.2060
     13  C03        1.6690   19.1410  -27.1370 C.3   807  VBP807      0.1376
     14  N04        1.1280   19.1140  -28.4550 N.ar  807  VBP807     -0.2779
     15  C05        1.7270   20.0210  -29.4670 C.ar  807  VBP807      0.0846
     16  C06        1.2220   20.0510  -30.8770 C.ar  807  VBP807      0.0796
     17  C07        0.0790   19.1460  -31.2810 C.ar  807  VBP807      0.2661
     18  O08       -0.3890   19.1790  -32.5910 O.2   807  VBP807     -0.2668
     19  N09       -0.5400   18.2210  -30.2740 N.ar  807  VBP807     -0.2445
     20  O18       -7.1530   20.3510  -28.3160 O.co2 807  VBP807     -0.2406
     21  O19       -7.6410   18.0950  -27.6520 O.co2 807  VBP807     -0.2406
     22  O21       -0.5610   17.3570  -27.9010 O.2   807  VBP807     -0.2462
     23  O23        1.8450   19.4700  -24.1110 O.2   807  VBP807     -0.2653
     24  O24        2.3820   21.4530  -24.5350 O.2   807  VBP807     -0.2653
@<TRIPOS>BOND
     1    18    17    2
     2    17    16   ar
     3    17    19   ar
     4    16    15   ar
     5     1    19    1
     6     1     2    1
     7     3     2   ar
     8     3     4   ar
     9    19     9   ar
    10     2     7   ar
    11     4     5   ar
    12    15    14   ar
    13     7     6   ar
    14     5     6   ar
    15     5     8    1
    16     9    14   ar
    17     9    22    2
    18    14    13    1
    19    20     8   ar
    20     8    21   ar
    21    13    12    1
    22    11    12    1
    23    12    10    1
    24    10    24    1
    25    10    23    1
