@<TRIPOS>MOLECULE
3h0a_9RA_A_1.pdb
 26 28 0 0 0
SMALL
GASTEIGER

@<TRIPOS>ATOM
      1  O53       57.0810    7.4250   40.5310 O.co2 500  9RA500     -0.2406
      2  C51       58.0500    8.2040   40.4470 C.2   500  9RA500      0.3878
      3  O52       58.1550    9.1540   41.2350 O.co2 500  9RA500     -0.2406
      4  C11       59.0970    8.0240   39.3810 C.ar  500  9RA500      0.0798
      5  C10       59.9040    9.1060   39.0310 C.ar  500  9RA500      0.0066
      6  C12       59.2580    6.7940   38.7300 C.ar  500  9RA500      0.0066
      7  C13       60.2220    6.6360   37.7340 C.ar  500  9RA500      0.0002
      8  C14       61.0260    7.7180   37.3990 C.ar  500  9RA500     -0.0000
      9  C9        60.8620    8.9460   38.0410 C.ar  500  9RA500      0.0002
     10  C47       62.0530    7.5640   36.3160 C.2   500  9RA500     -0.0003
     11  C48       62.0740    6.4320   35.6440 C.2   500  9RA500     -0.0000
     12  C4        63.0070    8.6860   35.9780 C.ar  500  9RA500     -0.0043
     13  C3        64.4510    8.5300   36.2680 C.ar  500  9RA500     -0.0222
     14  C43       64.9360    7.2790   36.9530 C.3   500  9RA500      0.0310
     15  C2        65.3410    9.5390   35.9060 C.ar  500  9RA500     -0.0089
     16  C5        62.5600    9.8480   35.3410 C.ar  500  9RA500     -0.0049
     17  C6        63.4400   10.8670   34.9740 C.ar  500  9RA500     -0.0268
     18  C19       62.9280   12.1270   34.2980 C.3   500  9RA500      0.0186
     19  C27       61.9750   12.8400   35.2590 C.3   500  9RA500      0.0044
     20  C31       62.2250   11.7790   32.9850 C.3   500  9RA500      0.0044
     21  C20       64.0560   13.0850   33.9810 C.3   500  9RA500      0.0044
     22  C21       65.2130   13.1420   34.9420 C.3   500  9RA500      0.0044
     23  C22       65.8730   11.7720   34.8970 C.3   500  9RA500      0.0186
     24  C1        64.8890   10.7000   35.2810 C.ar  500  9RA500     -0.0271
     25  C39       66.3000   11.5120   33.4590 C.3   500  9RA500      0.0044
     26  C35       67.0690   11.7170   35.8430 C.3   500  9RA500      0.0044
@<TRIPOS>BOND
     1    20    18    1
     2    25    23    1
     3    21    18    1
     4    21    22    1
     5    18    17    1
     6    18    19    1
     7    23    22    1
     8    23    24    1
     9    23    26    1
    10    17    24   ar
    11    17    16   ar
    12    24    15   ar
    13    16    12   ar
    14    11    10    2
    15    15    13   ar
    16    12    13   ar
    17    12    10    1
    18    13    14    1
    19    10     8    1
    20     8     7   ar
    21     8     9   ar
    22     7     6   ar
    23     9     5   ar
    24     6     4   ar
    25     5     4   ar
    26     4     2    1
    27     2     1   ar
    28     2     3   ar
