@<TRIPOS>MOLECULE
3h0a_D30_D_1.pdb
 40 43 0 0 0
SMALL
GASTEIGER

@<TRIPOS>ATOM
      1  C2        67.7960   -2.2630    0.1760 C.ar  500  D30500      0.0083
      2  C3        69.5260   -3.7280    0.9670 C.ar  500  D30500      0.0255
      3  C6        66.9680   -0.9990    0.2270 C.3   500  D30500      0.0291
      4  C7        74.8550   -5.0370    3.4270 C.3   500  D30500      0.2811
      5  C9        68.3300   -0.3150    2.2800 C.3   500  D30500      0.0050
      6  C10       68.1930   -4.3790   -0.9350 C.ar  500  D30500      0.0371
      7  C20       73.3080   -2.4420   -0.5730 C.ar  500  D30500      0.0000
      8  C21       76.2830   -1.7320    5.3130 C.3   500  D30500      0.0762
      9  C26       77.7050   -3.6620   -1.9010 C.ar  500  D30500      0.1390
     10  C27       78.2800   -4.9210   -2.0640 C.ar  500  D30500      0.0369
     11  C28       78.4050   -2.5290   -2.3000 C.ar  500  D30500      0.0369
     12  C29       79.5520   -5.0280   -2.6240 C.ar  500  D30500      0.0070
     13  C30       79.6740   -2.6250   -2.8450 C.ar  500  D30500      0.0070
     14  C31       80.2490   -3.8790   -3.0160 C.ar  500  D30500      0.0716
     15  C32       81.6390   -3.9960   -3.5930 C.3   500  D30500      0.4186
     16  O21       66.8580   -4.9800   -4.5200 O.co2 500  D30500     -0.2415
     17  C17       66.9860   -3.9890   -3.8430 C.2   500  D30500      0.4084
     18  O22       67.8730   -3.1460   -4.1290 O.co2 500  D30500     -0.2415
     19  C14       66.0090   -3.8460   -2.6990 C.3   500  D30500      0.3186
     20  O11       66.4610   -2.8950   -1.7220 O.3   500  D30500     -0.4641
     21  C5        67.4780   -3.1880   -0.8130 C.ar  500  D30500      0.1351
     22  C8        69.2210   -4.6520   -0.0490 C.ar  500  D30500      0.0093
     23  C12       67.6960    0.1080    0.9570 C.3   500  D30500      0.0051
     24  C4        69.2170   -1.5500    2.1770 C.3   500  D30500      0.0267
     25  C1        68.8290   -2.5210    1.0760 C.ar  500  D30500     -0.0172
     26  S7        70.8040   -4.1110    2.0240 S.3   500  D30500     -0.0842
     27  C13       72.2230   -3.6050    1.2030 C.ar  500  D30500      0.0634
     28  C16       72.1350   -2.8230    0.0660 C.ar  500  D30500      0.0093
     29  C15       73.4920   -3.9420    1.6980 C.ar  500  D30500      0.1457
     30  O1        73.6020   -4.7100    2.8260 O.3   500  D30500     -0.4607
     31  C11       75.4030   -3.8110    3.9790 C.1   500  D30500     -0.0439
     32  C19       75.7950   -2.8360    4.5050 C.1   500  D30500     -0.0875
     33  C22       77.6410   -2.1210    5.9070 C.3   500  D30500      0.0150
     34  C18       74.6460   -3.5520    1.0430 C.ar  500  D30500      0.0368
     35  C23       74.5560   -2.7800   -0.0910 C.ar  500  D30500      0.0242
     36  C24       75.8410   -2.3550   -0.8060 C.3   500  D30500      0.2321
     37  O25       76.4440   -3.5410   -1.3480 O.3   500  D30500     -0.4706
     38  F35       81.6430   -4.9440   -4.5050 F     500  D30500     -0.1659
     39  F33       82.5200   -4.3270   -2.6460 F     500  D30500     -0.1659
     40  F34       82.0000   -2.8420   -4.1130 F     500  D30500     -0.1659
@<TRIPOS>BOND
     1    16    17   ar
     2    38    15    1
     3    18    17   ar
     4    40    15    1
     5    17    19    1
     6    15    14    1
     7    15    39    1
     8    14    13   ar
     9    14    12   ar
    10    13    11   ar
    11    19    20    1
    12    12    10   ar
    13    11     9   ar
    14    10     9   ar
    15     9    37    1
    16    20    21    1
    17    37    36    1
    18     6    21   ar
    19     6    22   ar
    20    21     1   ar
    21    36    35    1
    22     7    35   ar
    23     7    28   ar
    24    35    34   ar
    25    22     2   ar
    26    28    27   ar
    27     1     3    1
    28     1    25   ar
    29     3    23    1
    30    23     5    1
    31     2    25   ar
    32     2    26    1
    33    34    29   ar
    34    25    24    1
    35    27    29   ar
    36    27    26    1
    37    29    30    1
    38    24     5    1
    39    30     4    1
    40     4    31    1
    41    31    32    3
    42    32     8    1
    43     8    33    1
