@<TRIPOS>MOLECULE
3h0b_B35_A_1.pdb
 28 30 0 0 0
SMALL
GASTEIGER

@<TRIPOS>ATOM
      1  C1         7.4150    5.7830   18.0910 C.ar  449  B35449      0.1659
      2  C2         8.0960    5.7570   19.3010 C.ar  449  B35449      0.0389
      3  C3         7.7450    4.8420   20.2820 C.ar  449  B35449     -0.0006
      4  C4         6.7100    3.9390   20.0920 C.ar  449  B35449     -0.0133
      5  N          8.6770    2.2460   21.7390 N.2   449  B35449     -0.3419
      6  C5         6.0310    3.9570   18.8860 C.ar  449  B35449      0.0289
      7  C6         8.7770    7.5120   17.2400 C.3   449  B35449      0.2526
      8  C7         6.3670    2.9600   21.1830 C.3   449  B35449      0.0779
      9  C8         7.4550    1.9290   21.2620 C.2   449  B35449      0.1287
     10  C          6.3830    4.8740   17.9010 C.ar  449  B35449      0.1735
     11  O          7.6560    6.6090   17.0760 O.3   449  B35449     -0.4692
     12  F          5.7010    4.8720   16.7440 F     449  B35449     -0.2010
     13  C9         6.1120    3.5820   22.5570 C.3   449  B35449      0.0406
     14  C10        5.2560    2.6530   23.3780 C.ar  449  B35449      0.0142
     15  C11        5.7990    2.0000   24.4810 C.ar  449  B35449      0.0228
     16  C12        5.0020    1.1370   25.2290 C.ar  449  B35449      0.1428
     17  C13        3.6740    0.9060   24.8900 C.ar  449  B35449      0.0272
     18  C14        3.1460    1.5600   23.7820 C.ar  449  B35449      0.0383
     19  C15        3.9310    2.4260   23.0260 C.ar  449  B35449      0.1348
     20  O16        3.4930    3.0830   21.9570 O.3   449  B35449     -0.4717
     21  C17        2.0540    3.2420   21.8410 C.3   449  B35449      0.2525
     22  C18        9.4860    1.1680   21.7100 C.1   449  B35449      0.1817
     23  N19        8.7630    0.1510   21.2020 N.2   449  B35449     -0.1879
     24  C20        7.5170    0.5860   20.9150 C.3   449  B35449      0.1937
     25  N21       10.7650    1.1140   22.1110 N.pl3 449  B35449     -0.0348
     26  N22        5.5240    0.5180   26.2920 N.pl3 449  B35449      0.0577
     27  O23        6.7180    1.0200   26.7920 O.2   449  B35449     -0.1261
     28  O24        4.8430   -0.5760   26.8120 O.2   449  B35449     -0.1261
@<TRIPOS>BOND
     1    12    10    1
     2    11     7    1
     3    11     1    1
     4    10     1   ar
     5    10     6   ar
     6     1     2   ar
     7     6     4   ar
     8     2     3   ar
     9     4     3   ar
    10     4     8    1
    11    24    23    1
    12    24     9    1
    13     8     9    1
    14     8    13    1
    15    23    22    2
    16     9     5    2
    17    22     5    2
    18    22    25    1
    19    21    20    1
    20    20    19    1
    21    13    14    1
    22    19    14   ar
    23    19    18   ar
    24    14    15   ar
    25    18    17   ar
    26    15    16   ar
    27    17    16   ar
    28    16    26    1
    29    26    27    2
    30    26    28    2
