@<TRIPOS>MOLECULE
3h0c_PS4_A_1.pdb
 32 34 0 0 0
SMALL
GASTEIGER

@<TRIPOS>ATOM
      1  C1        53.4390   43.5160   33.1430 C.3     1  PS41        0.1816
      2  C7        48.5070   50.0240   38.4760 C.ar    1  PS41        0.0072
      3  C8        48.9250   51.0670   37.6650 C.ar    1  PS41       -0.0199
      4  C11       49.6300   51.0470   40.3430 C.ar    1  PS41        0.0114
      5  C12       50.0530   52.0940   39.5350 C.ar    1  PS41        0.0005
      6  C15       46.9400   51.8690   34.4960 C.3     1  PS41        0.1046
      7  C16       46.7630   50.6970   33.5430 C.2     1  PS41        0.2271
      8  C18       46.0330   49.8410   31.2650 C.3     1  PS41        0.0970
      9  C19       47.2980   49.6070   30.4130 C.3     1  PS41        0.1351
     10  C23       45.1330   51.9180   30.4090 C.3     1  PS41        0.0233
     11  C24       44.9000   50.4060   30.4030 C.3     1  PS41        0.0234
     12  C27       51.9740   47.9630   33.4400 C.ar    1  PS41        0.0015
     13  C30       50.9320   46.3310   31.4480 C.ar    1  PS41        0.0229
     14  C31       52.0850   45.9380   32.1180 C.ar    1  PS41        0.1059
     15  O32       48.5730   47.1050   30.2780 O.2     1  PS41       -0.2684
     16  C25       49.0640   47.9140   31.0370 C.2     1  PS41        0.2649
     17  C28       50.2840   47.5210   31.7790 C.ar    1  PS41        0.0563
     18  C29       52.6050   46.7630   33.1140 C.ar    1  PS41        0.0183
     19  C26       50.8150   48.3430   32.7690 C.ar    1  PS41        0.0046
     20  S4        52.8780   44.4300   31.7010 S.O2    1  PS41        0.0105
     21  O2        54.0780   44.7320   30.9530 O.2     1  PS41       -0.1686
     22  O3        51.9910   43.5940   30.9360 O.2     1  PS41       -0.1686
     23  N20       48.4930   49.1820   31.1750 N.am    1  PS41       -0.1999
     24  C22       45.8290   52.2190   31.7440 C.3     1  PS41        0.0935
     25  N17       46.2550   50.9050   32.2720 N.am    1  PS41       -0.2794
     26  O5        47.0750   49.5720   33.8780 O.2     1  PS41       -0.2748
     27  C14       47.0560   51.4440   35.9610 C.3     1  PS41        0.1052
     28  N21       46.6530   52.5630   36.8240 N.3     1  PS41       -0.1320
     29  C13       48.5280   51.0720   36.2040 C.3     1  PS41        0.0459
     30  C10       49.6990   52.0960   38.1910 C.ar    1  PS41       -0.0042
     31  C9        48.8610   50.0180   39.8140 C.ar    1  PS41        0.0574
     32 CL6        48.3430   48.7400   40.8350 Cl      1  PS41       -0.0823
@<TRIPOS>BOND
     1    15    16    2
     2    11    10    1
     3    11     8    1
     4    10    24    1
     5     9    23    1
     6     9     8    1
     7    22    20    2
     8    21    20    2
     9    16    23   am
    10    16    17    1
    11     8    25    1
    12    13    17   ar
    13    13    14   ar
    14    20    14    1
    15    20     1    1
    16    24    25    1
    17    17    19   ar
    18    14    18   ar
    19    25     7   am
    20    19    12   ar
    21    18    12   ar
    22     7    26    2
    23     7     6    1
    24     6    27    1
    25    27    29    1
    26    27    28    1
    27    29     3    1
    28     3    30   ar
    29     3     2   ar
    30    30     5   ar
    31     2    31   ar
    32     5     4   ar
    33    31     4   ar
    34    31    32    1
