@<TRIPOS>MOLECULE
3h0e_H0E_A_1.pdb
 32 36 0 0 0
SMALL
GASTEIGER

@<TRIPOS>ATOM
      1  C22       21.2150   59.4650    7.6640 C.ar    1  H0E1        0.0031
      2  O1        28.0630   49.4410   14.1630 O.3     1  H0E1       -0.2049
      3  C15       24.7570   56.2660   11.7350 C.3     1  H0E1        0.0230
      4  C14       26.2530   56.4910   11.8210 C.3     1  H0E1        0.0207
      5  C20       23.0420   58.8010    6.2340 C.ar    1  H0E1        0.0031
      6  N1        26.8160   49.6010   16.9730 N.2     1  H0E1       -0.0662
      7  S1        25.8060   52.9620   10.1230 S.O2    1  H0E1        0.0633
      8  C16       24.5940   55.3500   10.5150 C.3     1  H0E1        0.1231
      9  C17       24.2710   56.1170    9.2290 C.3     1  H0E1        0.2229
     10  C11       25.1510   51.2260   14.3120 C.ar    1  H0E1        0.1375
     11  C5        27.3180   50.5430   14.6910 C.3     1  H0E1        0.2817
     12  C4        26.4220   50.1850   15.8950 C.2     1  H0E1        0.3336
     13  C3        25.7510   49.4180   17.9880 C.3     1  H0E1        0.2666
     14  C6        26.4280   51.1860   13.6970 C.ar    1  H0E1        0.0579
     15  C1        25.2740   51.8680   18.2730 C.3     1  H0E1        0.0086
     16  C2        24.6430   50.5040   17.9320 C.3     1  H0E1        0.0928
     17  C9        24.3250   52.3260   12.3450 C.ar    1  H0E1        0.0234
     18  C8        25.6120   52.2750   11.7570 C.ar    1  H0E1        0.1222
     19  C7        26.6950   51.6970   12.4350 C.ar    1  H0E1        0.0221
     20  C10       24.0950   51.8000   13.6270 C.ar    1  H0E1        0.0414
     21  N2        25.1620   50.6500   15.5780 N.pl3   1  H0E1       -0.1718
     22  C12       24.0590   50.5170   16.4970 C.3     1  H0E1        0.2112
     23  O2        27.0850   52.5260    9.6050 O.2     1  H0E1       -0.1528
     24  O3        24.5820   52.7120    9.3910 O.2     1  H0E1       -0.1528
     25  N3        25.9100   54.6370   10.3850 N.3     1  H0E1       -0.1532
     26  C13       26.8180   55.1270   11.4600 C.3     1  H0E1        0.0959
     27  O4        23.0860   56.8940    9.4170 O.3     1  H0E1       -0.4740
     28  C18       22.7700   57.7520    8.4000 C.ar    1  H0E1        0.1386
     29  C19       23.4690   57.8820    7.1980 C.ar    1  H0E1        0.0369
     30  C21       21.9160   59.5900    6.4660 C.ar    1  H0E1        0.0002
     31  C23       21.6410   58.5470    8.6280 C.ar    1  H0E1        0.0369
     32  C24       23.5300   50.2320   18.9660 C.3     1  H0E1        0.0086
@<TRIPOS>BOND
     1     5    30   ar
     2     5    29   ar
     3    30     1   ar
     4    29    28   ar
     5     1    31   ar
     6    28    31   ar
     7    28    27    1
     8     9    27    1
     9     9     8    1
    10    24     7    2
    11    23     7    2
    12     7    25    1
    13     7    18    1
    14    25     8    1
    15    25    26    1
    16     8     3    1
    17    26     4    1
    18     3     4    1
    19    18    17   ar
    20    18    19   ar
    21    17    20   ar
    22    19    14   ar
    23    20    10   ar
    24    14    10   ar
    25    14    11    1
    26     2    11    1
    27    10    21    1
    28    11    12    1
    29    21    12    1
    30    21    22    1
    31    12     6    2
    32    22    16    1
    33     6    13    1
    34    16    13    1
    35    16    15    1
    36    16    32    1
