@<TRIPOS>MOLECULE
3h0j_B36_A_1.pdb
 34 39 0 0 0
SMALL
GASTEIGER

@<TRIPOS>ATOM
      1  CBE        6.5240   32.5150   25.8920 C.ar    1  B361        0.0044
      2  CAK        7.8060   32.4530   25.2030 C.ar    1  B361        0.0001
      3  CAE        8.6730   33.5970   25.1630 C.ar    1  B361        0.0000
      4  CAC        8.3000   34.8280   25.7980 C.ar    1  B361        0.0000
      5  CAI        7.0550   34.9390   26.4860 C.ar    1  B361        0.0000
      6  CBB        6.1630   33.8090   26.5460 C.ar    1  B361        0.0001
      7  CAP        4.9280   33.9660   27.2550 C.ar    1  B361        0.0000
      8  CBC        4.0130   32.8660   27.3440 C.ar    1  B361        0.0001
      9  CAJ        2.7910   33.0580   28.0830 C.ar    1  B361        0.0000
     10  CAD        1.8540   31.9880   28.2060 C.ar    1  B361        0.0000
     11  CAF        2.1130   30.7190   27.5920 C.ar    1  B361        0.0000
     12  CAL        3.3180   30.4950   26.8520 C.ar    1  B361        0.0001
     13  CBF        4.3110   31.5540   26.7040 C.ar    1  B361        0.0044
     14  CAZ        5.5830   31.3550   25.9620 C.ar    1  B361        0.0536
     15  CAW        5.8880   29.9950   25.3190 C.2     1  B361        0.2490
     16  OAB        6.3270   29.0870   26.0320 O.2     1  B361       -0.2699
     17  NBH        5.6460   29.7640   23.9330 N.am    1  B361       -0.2761
     18  CAT        5.1110   30.7960   22.9850 C.3     1  B361        0.0937
     19  CAR        6.0300   30.9120   21.7590 C.3     1  B361        0.0219
     20  CAS        5.9210   28.3900   23.3310 C.3     1  B361        0.0937
     21  CAQ        6.7060   28.4490   21.9790 C.3     1  B361        0.0219
     22  CBG        6.1410   29.5330   21.0180 C.3     1  B361        0.0078
     23  CAU        7.0010   29.5510   19.6930 C.3     1  B361        0.0265
     24  CAY        6.6170   30.6250   18.6680 C.ar    1  B361       -0.0220
     25  CAO        5.2430   30.9470   18.3300 C.ar    1  B361       -0.0020
     26  CBA        4.9580   32.0140   17.4150 C.ar    1  B361        0.0254
     27  CAM        3.5960   32.3430   17.1260 C.2     1  B361       -0.0165
     28  CAG        3.3010   33.4240   16.2390 C.3     1  B361        0.0804
     29  CAX        4.3840   34.1560   15.6490 C.2     1  B361        0.0914
     30  CAA        4.1030   35.3050   14.7220 C.3     1  B361        0.0618
     31  NAV        5.7080   33.8340   15.9230 N.2     1  B361       -0.4102
     32  CBD        6.0580   32.7840   16.7960 C.ar    1  B361        0.1302
     33  CAN        7.4050   32.4430   17.1240 C.ar    1  B361        0.0317
     34  CAH        7.6730   31.3870   18.0500 C.ar    1  B361       -0.0016
@<TRIPOS>BOND
     1    30    29    1
     2    29    31    2
     3    29    28    1
     4    31    32    2
     5    28    27    1
     6    32    33   ar
     7    32    26   ar
     8    33    34   ar
     9    27    26    2
    10    26    25   ar
    11    34    24   ar
    12    25    24   ar
    13    24    23    1
    14    23    22    1
    15    22    19    1
    16    22    21    1
    17    19    18    1
    18    21    20    1
    19    18    17    1
    20    20    17    1
    21    17    15   am
    22     3     2   ar
    23     3     4   ar
    24     2     1   ar
    25    15    14    1
    26    15    16    2
    27     4     5   ar
    28     1    14   ar
    29     1     6   ar
    30    14    13   ar
    31     5     6   ar
    32     6     7   ar
    33    13    12   ar
    34    13     8   ar
    35    12    11   ar
    36     7     8   ar
    37     8     9   ar
    38    11    10   ar
    39     9    10   ar
