@<TRIPOS>MOLECULE
3h0l_ADP_B_1.pdb
 27 29 0 0 0
SMALL
GASTEIGER

@<TRIPOS>ATOM
      1  PB       -45.8290   10.0740   17.1220 P.3   701  ADP701      0.5373
      2  O1B      -46.8660   11.1110   16.7250 O.3   701  ADP701     -0.1143
      3  O2B      -46.4030    8.6770   17.3000 O.3   701  ADP701     -0.1143
      4  O3B      -44.5800   10.1360   16.2570 O.2   701  ADP701     -0.2221
      5  PA       -45.3620    9.6750   19.9570 P.3   701  ADP701      0.2231
      6  O1A      -45.1170    8.1940   19.6770 O.2   701  ADP701     -0.5169
      7  O2A      -44.5130   10.3440   21.0120 O.3   701  ADP701     -0.4370
      8  O3A      -45.2940   10.5480   18.5870 O.3   701  ADP701     -0.2261
      9  O5'      -46.8970    9.8860   20.3960 O.3   701  ADP701     -0.3111
     10  C5'      -47.5240   11.1610   20.2990 C.3   701  ADP701      0.1813
     11  C4'      -48.7110   11.1910   21.2460 C.3   701  ADP701      0.1821
     12  O4'      -48.9830    9.8740   21.7360 O.3   701  ADP701     -0.3135
     13  C3'      -48.3840   12.0350   22.4590 C.3   701  ADP701      0.2184
     14  O3'      -49.5590   12.7440   22.8610 O.3   701  ADP701     -0.2174
     15  C2'      -47.9880   11.0310   23.5190 C.3   701  ADP701      0.2570
     16  O2'      -48.2760   11.4980   24.8300 O.3   701  ADP701     -0.2130
     17  C1'      -48.8320    9.8210   23.1600 C.3   701  ADP701      0.3186
     18  N9       -48.2190    8.5420   23.6080 N.pl3 701  ADP701     -0.1439
     19  C8       -47.0360    8.0100   23.2260 C.3   701  ADP701      0.3377
     20  N7       -46.8010    6.8160   23.8480 N.2   701  ADP701     -0.2095
     21  C5       -47.8590    6.5680   24.6510 C.2   701  ADP701      0.2526
     22  C6       -48.2860    5.4960   25.5940 C.2   701  ADP701      0.4393
     23  N6       -47.5220    4.4050   25.8300 N.pl3 701  ADP701      0.2180
     24  N1       -49.4680    5.6400   26.2260 N.2   701  ADP701      0.0021
     25  C2       -50.2480    6.7130   26.0290 C.3   701  ADP701      0.5254
     26  N3       -49.9400    7.7200   25.1960 N.2   701  ADP701     -0.0055
     27  C4       -48.7820    7.7130   24.4880 C.2   701  ADP701      0.3518
@<TRIPOS>BOND
     1     4     1    2
     2     2     1    1
     3     1     3    1
     4     1     8    1
     5     8     5    1
     6     6     5    2
     7     5     9    1
     8     5     7    1
     9    10     9    1
    10    10    11    1
    11    11    12    1
    12    11    13    1
    13    12    17    1
    14    13    14    1
    15    13    15    1
    16    17    15    1
    17    17    18    1
    18    19    18    1
    19    19    20    1
    20    15    16    1
    21    18    27    1
    22    20    21    2
    23    27    21    1
    24    27    26    2
    25    21    22    1
    26    26    25    1
    27    22    23    1
    28    22    24    2
    29    25    24    1
