@<TRIPOS>MOLECULE
3h0q_B37_A_1.pdb
 36 41 0 0 0
SMALL
GASTEIGER

@<TRIPOS>ATOM
      1  C4         5.8020   32.3770   17.1890 C.ar    1  B371        0.1302
      2  C6         4.2300   33.6100   15.7880 C.2     1  B371        0.0914
      3  C10        6.3090   30.2280   19.1140 C.ar    1  B371       -0.0220
      4  C20        6.6760   29.1770   20.1540 C.3     1  B371        0.0265
      5  C21        5.7400   29.0620   21.4050 C.3     1  B371        0.0078
      6  C24        6.3660   28.0220   22.3740 C.3     1  B371        0.0219
      7  C28        5.4960   30.4290   22.1570 C.3     1  B371        0.0219
      8  C1         3.1390   32.7810   16.2020 C.3     1  B371        0.0804
      9  C2         3.3830   31.7130   17.1320 C.2     1  B371       -0.0165
     10  C3         4.6980   31.4800   17.6450 C.ar    1  B371        0.0254
     11  N5         5.5060   33.3960   16.2760 N.2     1  B371       -0.4102
     12  C9         4.9610   30.4150   18.5970 C.ar    1  B371       -0.0020
     13  C11        7.3530   31.1240   18.6450 C.ar    1  B371       -0.0016
     14  C12        7.1060   32.1650   17.7040 C.ar    1  B371        0.0317
     15  C16        4.0390   34.7410   14.8210 C.3     1  B371        0.0618
     16  C25        5.5980   27.8830   23.7130 C.3     1  B371        0.0937
     17  N26        5.2000   29.2320   24.3120 N.am    1  B371       -0.2763
     18  C27        4.5590   30.2040   23.3640 C.3     1  B371        0.0937
     19  C38        5.4290   29.5150   25.7150 C.2     1  B371        0.2458
     20  C39        5.0630   30.9170   26.2380 C.2     1  B371        0.0443
     21  C40        6.0260   32.0610   26.3380 C.3     1  B371        0.1009
     22  C41        5.5290   33.3600   26.8740 C.2     1  B371        0.1169
     23  N42        4.1900   33.4390   27.2590 N.2     1  B371       -0.4056
     24  C43        3.2520   32.3770   27.1760 C.2     1  B371        0.1308
     25  C44        3.7010   31.1280   26.6630 C.2     1  B371        0.0330
     26  C46        7.4260   31.9890   25.9470 C.2     1  B371       -0.0149
     27  C47        8.2960   33.1270   26.0660 C.2     1  B371       -0.0038
     28  C48        7.7960   34.3720   26.5780 C.2     1  B371        0.0020
     29  C49        6.4250   34.4870   26.9810 C.2     1  B371        0.0282
     30  C54        1.8380   32.6500   27.6370 C.ar    1  B371        0.0296
     31  C55        1.2070   33.9320   27.5840 C.ar    1  B371        0.0025
     32  C56       -0.1470   34.1310   28.0340 C.ar    1  B371        0.0001
     33  C57       -0.9110   33.0270   28.5520 C.ar    1  B371        0.0000
     34  C58       -0.3000   31.7320   28.6160 C.ar    1  B371        0.0001
     35  C59        1.0480   31.5540   28.1690 C.ar    1  B371        0.0025
     36  O65        5.5480   28.5810   26.4980 O.2     1  B371       -0.2702
@<TRIPOS>BOND
     1    15     2    1
     2     2     8    1
     3     2    11    2
     4     8     9    1
     5    11     1    2
     6     9    10    2
     7     1    10   ar
     8     1    14   ar
     9    10    12   ar
    10    14    13   ar
    11    12     3   ar
    12    13     3   ar
    13     3     4    1
    14     4     5    1
    15     5     7    1
    16     5     6    1
    17     7    18    1
    18     6    16    1
    19    18    17    1
    20    16    17    1
    21    17    19   am
    22    19    20    1
    23    19    36    2
    24    26    27    2
    25    26    21    1
    26    27    28    1
    27    20    21    1
    28    20    25    2
    29    21    22    1
    30    28    29    2
    31    25    24    1
    32    22    29    1
    33    22    23    2
    34    24    23    2
    35    24    30    1
    36    31    30   ar
    37    31    32   ar
    38    30    35   ar
    39    32    33   ar
    40    35    34   ar
    41    33    34   ar
