@<TRIPOS>MOLECULE
3h0r_ATP_E_1.pdb
 31 33 0 0 0
SMALL
GASTEIGER

@<TRIPOS>ATOM
      1  PG       -71.3230   35.6720  -61.1320 P.3   479  ATP479      0.5373
      2  O1G      -70.2430   36.6640  -60.7950 O.3   479  ATP479     -0.1143
      3  O2G      -71.0190   34.8910  -62.3860 O.2   479  ATP479     -0.2221
      4  O3G      -72.7330   36.2070  -61.0230 O.3   479  ATP479     -0.1143
      5  PB       -72.1990   33.2830  -59.8480 P.3   479  ATP479      0.2277
      6  O1B      -73.1250   33.2730  -61.0400 O.2   479  ATP479     -0.5168
      7  O2B      -71.3170   32.0850  -59.5980 O.3   479  ATP479     -0.4368
      8  O3B      -71.2340   34.5720  -59.9520 O.3   479  ATP479     -0.2258
      9  PA       -72.9220   34.6880  -57.4130 P.3   479  ATP479      0.2189
     10  O1A      -72.4220   35.9710  -58.0290 O.2   479  ATP479     -0.5170
     11  O2A      -74.1970   34.7780  -56.6030 O.3   479  ATP479     -0.4371
     12  O3A      -73.1080   33.5260  -58.5290 O.3   479  ATP479     -0.2700
     13  O5'      -71.7580   34.0950  -56.4610 O.3   479  ATP479     -0.3112
     14  C5'      -70.5070   33.6160  -56.9690 C.3   479  ATP479      0.1813
     15  C4'      -69.4070   33.5810  -55.9110 C.3   479  ATP479      0.1821
     16  O4'      -69.1520   34.8880  -55.4050 O.3   479  ATP479     -0.3135
     17  C3'      -69.7970   32.7420  -54.7150 C.3   479  ATP479      0.2184
     18  O3'      -68.7010   31.8980  -54.3690 O.3   479  ATP479     -0.2174
     19  C2'      -70.0580   33.7410  -53.6150 C.3   479  ATP479      0.2570
     20  O2'      -69.7310   33.1910  -52.3410 O.3   479  ATP479     -0.2130
     21  C1'      -69.1560   34.8940  -53.9830 C.3   479  ATP479      0.3186
     22  N9       -69.7080   36.1750  -53.4980 N.pl3 479  ATP479     -0.1439
     23  C8       -70.8760   36.6910  -53.8890 C.3   479  ATP479      0.3377
     24  N7       -71.1090   37.8690  -53.2660 N.2   479  ATP479     -0.2095
     25  C5       -70.0780   38.1330  -52.4630 C.2   479  ATP479      0.2526
     26  C6       -69.7060   39.2200  -51.5390 C.2   479  ATP479      0.4393
     27  N6       -70.5040   40.2910  -51.3320 N.pl3 479  ATP479      0.2180
     28  N1       -68.5420   39.1010  -50.8930 N.2   479  ATP479      0.0021
     29  C2       -67.7410   38.0520  -51.0780 C.3   479  ATP479      0.5254
     30  N3       -68.0280   37.0380  -51.9040 N.2   479  ATP479     -0.0055
     31  C4       -69.1590   37.0110  -52.6190 C.2   479  ATP479      0.3518
@<TRIPOS>BOND
     1     3     1    2
     2     1     4    1
     3     1     2    1
     4     1     8    1
     5     6     5    2
     6     8     5    1
     7     5     7    1
     8     5    12    1
     9    12     9    1
    10    10     9    2
    11     9    11    1
    12     9    13    1
    13    14    13    1
    14    14    15    1
    15    15    16    1
    16    15    17    1
    17    16    21    1
    18    17    18    1
    19    17    19    1
    20    21    19    1
    21    21    22    1
    22    23    22    1
    23    23    24    1
    24    19    20    1
    25    22    31    1
    26    24    25    2
    27    31    25    1
    28    31    30    2
    29    25    26    1
    30    30    29    1
    31    26    27    1
    32    26    28    2
    33    29    28    1
