@<TRIPOS>MOLECULE
3h0r_ADP_B_1.pdb
 27 29 0 0 0
SMALL
GASTEIGER

@<TRIPOS>ATOM
      1  PB       -45.7200    9.5260   16.8960 P.3   479  ADP479      0.5373
      2  O1B      -46.6740    8.7580   16.0040 O.2   479  ADP479     -0.2221
      3  O2B      -45.4770    8.9280   18.2800 O.3   479  ADP479     -0.1143
      4  O3B      -44.4970   10.0680   16.1830 O.3   479  ADP479     -0.1143
      5  PA       -46.0210   11.7550   18.5160 P.3   479  ADP479      0.2231
      6  O1A      -44.6270   11.3060   18.9040 O.3   479  ADP479     -0.4370
      7  O2A      -46.3000   13.1840   18.1050 O.2   479  ADP479     -0.5169
      8  O3A      -46.5050   10.8850   17.2480 O.3   479  ADP479     -0.2261
      9  O5'      -46.9860   11.3010   19.7380 O.3   479  ADP479     -0.3111
     10  C5'      -48.3360   11.7400   19.7660 C.3   479  ADP479      0.1813
     11  C4'      -49.0140   11.4890   21.0960 C.3   479  ADP479      0.1821
     12  O4'      -48.8680   10.1430   21.4960 O.3   479  ADP479     -0.3135
     13  C3'      -48.4400   12.2900   22.2270 C.3   479  ADP479      0.2184
     14  O3'      -49.5720   12.7980   22.9030 O.3   479  ADP479     -0.2174
     15  C2'      -47.8430   11.3040   23.1740 C.3   479  ADP479      0.2570
     16  O2'      -48.0550   11.7290   24.5120 O.3   479  ADP479     -0.2130
     17  C1'      -48.7270   10.1280   22.9030 C.3   479  ADP479      0.3186
     18  N9       -48.1230    8.8630   23.3340 N.pl3 479  ADP479     -0.1439
     19  C8       -46.9380    8.3880   22.9570 C.3   479  ADP479      0.3377
     20  N7       -46.7110    7.2020   23.5490 N.2   479  ADP479     -0.2095
     21  C5       -47.7690    6.8990   24.3060 C.2   479  ADP479      0.2526
     22  C6       -48.1750    5.7830   25.1850 C.2   479  ADP479      0.4393
     23  N6       -47.3830    4.7090   25.3860 N.pl3 479  ADP479      0.2180
     24  N1       -49.3680    5.8800   25.7910 N.2   479  ADP479      0.0021
     25  C2       -50.1690    6.9430   25.6140 C.3   479  ADP479      0.5254
     26  N3       -49.8630    7.9860   24.8320 N.2   479  ADP479     -0.0055
     27  C4       -48.6970    8.0140   24.1620 C.2   479  ADP479      0.3518
@<TRIPOS>BOND
     1     2     1    2
     2     4     1    1
     3     1     8    1
     4     1     3    1
     5     8     5    1
     6     7     5    2
     7     5     6    1
     8     5     9    1
     9     9    10    1
    10    10    11    1
    11    11    12    1
    12    11    13    1
    13    12    17    1
    14    13    14    1
    15    13    15    1
    16    17    15    1
    17    17    18    1
    18    19    18    1
    19    19    20    1
    20    15    16    1
    21    18    27    1
    22    20    21    2
    23    27    21    1
    24    27    26    2
    25    21    22    1
    26    26    25    1
    27    22    23    1
    28    22    24    2
    29    25    24    1
