@<TRIPOS>MOLECULE
3h0s_B38_A_1.pdb
 28 32 0 0 0
SMALL
GASTEIGER

@<TRIPOS>ATOM
      1  C4         5.9620   28.5060   20.9620 C.3   101  B38101      0.0620
      2  C7         4.5020   30.6440   18.0100 C.2   101  B38101      0.1795
      3  C6         6.9980   31.0010   18.5030 C.ar  101  B38101      0.1409
      4  C9         6.1290   31.0880   22.3840 C.3   101  B38101      0.0970
      5  C13        5.7590   32.3850   16.9030 C.ar  101  B38101      0.0016
      6  C8         6.8940   28.7000   22.1880 C.3   101  B38101      0.0970
      7  C16        6.9520   34.2860   15.6850 C.3   101  B38101      0.0310
      8  C1         5.7920   29.7940   20.1100 C.3   101  B38101      0.1436
      9  O2         7.0360   30.0080   19.3730 O.3   101  B38101     -0.4819
     10  C3         4.6830   29.5370   19.0550 C.3   101  B38101      0.1092
     11  C5         5.3240   30.9470   21.0670 C.3   101  B38101      0.0620
     12  C10        5.7770   31.3800   17.7450 C.ar  101  B38101      0.0684
     13  C11        8.0960   31.6790   18.3080 C.ar  101  B38101      0.0367
     14  O12        3.3900   31.1840   17.7910 O.2   101  B38101     -0.2911
     15  C14        8.0950   32.8120   17.3250 C.ar  101  B38101     -0.0011
     16  C15        6.9930   33.1390   16.6620 C.ar  101  B38101     -0.0216
     17  N27        6.3460   29.7750   23.0600 N.am  101  B38101     -0.2787
     18  C20        5.3600   30.5870   25.2420 C.3   101  B38101      0.1404
     19  C21        5.2910   32.7490   26.3790 C.2   101  B38101      0.0370
     20  C18        3.3630   31.2570   26.4710 C.2   101  B38101     -0.0036
     21  C19        4.0420   30.3320   25.6840 C.2   101  B38101     -0.0114
     22  C26        6.0470   29.5450   24.3940 C.2   101  B38101      0.2350
     23  C17        3.9830   32.4680   26.8070 C.2   101  B38101      0.0026
     24  C22        6.0000   31.8040   25.6020 C.2   101  B38101      0.0945
     25  N23        7.2350   32.3440   25.3530 N.2   101  B38101     -0.1515
     26  N24        7.3220   33.5500   25.9270 N.2   101  B38101     -0.1466
     27  C25        6.1570   33.8350   26.5700 C.2   101  B38101      0.1233
     28  O28        6.3100   28.4740   24.9370 O.2   101  B38101     -0.2741
@<TRIPOS>BOND
     1     7    16    1
     2    16     5   ar
     3    16    15   ar
     4     5    12   ar
     5    15    13   ar
     6    12     2    1
     7    12     3   ar
     8    14     2    2
     9     2    10    1
    10    13     3   ar
    11     3     9    1
    12    10     8    1
    13     9     8    1
    14     8     1    1
    15     8    11    1
    16     1     6    1
    17    11     4    1
    18     6    17    1
    19     4    17    1
    20    17    22   am
    21    22    28    2
    22    22    18    1
    23    18    24    1
    24    18    21    1
    25    25    24    2
    26    25    26    1
    27    24    19    1
    28    21    20    2
    29    26    27    2
    30    19    27    1
    31    19    23    2
    32    20    23    1
