@<TRIPOS>MOLECULE
3h0y_48B_A_1.pdb
 32 35 0 0 0
SMALL
GASTEIGER

@<TRIPOS>ATOM
      1  F23       53.7580    9.7250   18.9840 F       1  48B1       -0.1983
      2  C17       53.2190   10.6790   19.7130 C.2     1  48B1        0.2063
      3  C18       52.8400   11.7960   19.0780 C.2     1  48B1        0.1454
      4  N19       52.2360   12.7780   19.7200 N.2     1  48B1       -0.1659
      5  C20       52.1790   12.7560   21.1590 C.1     1  48B1        0.1711
      6  N24       51.4410   13.8690   21.7930 N.pl3   1  48B1       -0.1357
      7  C30       51.3410   14.0730   23.1270 C.ar    1  48B1        0.0828
      8  C29       51.4780   13.0830   24.1010 C.ar    1  48B1        0.0206
      9  C28       51.4390   13.3840   25.4600 C.ar    1  48B1        0.0434
     10  C27       51.2670   14.6960   25.8710 C.ar    1  48B1        0.1958
     11  O31       51.2320   14.9880   27.1680 O.3     1  48B1       -0.2866
     12  C26       51.1430   15.6970   24.9120 C.ar    1  48B1        0.0434
     13  C25       51.1900   15.3910   23.5520 C.ar    1  48B1        0.0206
     14  N21       52.4300   11.4610   21.7190 N.2     1  48B1       -0.3165
     15  C22       53.0560   10.5150   21.0290 C.2     1  48B1        0.2453
     16  N16       53.4660    9.3530   21.5740 N.pl3   1  48B1       -0.1809
     17  C11       53.2100    9.0640   22.8730 C.ar    1  48B1        0.0733
     18  C10       52.4820    7.9360   23.2500 C.ar    1  48B1        0.0179
     19  C12       53.4560   10.0460   23.8330 C.ar    1  48B1        0.0179
     20  C13       53.0280    9.8990   25.1390 C.ar    1  48B1        0.0179
     21  C14       52.3420    8.7650   25.5460 C.ar    1  48B1        0.0738
     22  C15       52.0720    7.7740   24.5820 C.ar    1  48B1        0.0179
     23  N9        52.0550    8.7090   26.8800 N.am    1  48B1       -0.1754
     24  C7        51.6250    7.6060   27.4920 C.2     1  48B1        0.2698
     25  O8        51.5030    6.5510   26.8880 O.2     1  48B1       -0.2680
     26  C4        51.2130    7.6040   28.9440 C.ar    1  48B1        0.0659
     27  C5        50.7530    8.7460   29.6290 C.ar    1  48B1        0.0621
     28 CL1        50.6290   10.4040   28.8900 Cl      1  48B1       -0.0821
     29  C6        50.3790    8.6210   30.9730 C.ar    1  48B1        0.0115
     30  C3        51.2670    6.3710   29.6070 C.ar    1  48B1        0.0054
     31  C2        50.8910    6.2630   30.9400 C.ar    1  48B1        0.0002
     32  C1        50.4480    7.3920   31.6230 C.ar    1  48B1        0.0009
@<TRIPOS>BOND
     1     1     2    1
     2     3     2    2
     3     3     4    1
     4     2    15    1
     5     4     5    2
     6    15    16    1
     7    15    14    2
     8     5    14    2
     9     5     6    1
    10    16    17    1
    11     6     7    1
    12    17    18   ar
    13    17    19   ar
    14     7    13   ar
    15     7     8   ar
    16    18    22   ar
    17    13    12   ar
    18    19    20   ar
    19     8     9   ar
    20    22    21   ar
    21    12    10   ar
    22    20    21   ar
    23     9    10   ar
    24    21    23    1
    25    10    11    1
    26    23    24   am
    27    25    24    2
    28    24    26    1
    29    28    27    1
    30    26    30   ar
    31    26    27   ar
    32    30    31   ar
    33    27    29   ar
    34    31    32   ar
    35    29    32   ar
