@<TRIPOS>MOLECULE
3h0z_45B_A_1.pdb
 43 47 0 0 0
SMALL
GASTEIGER

@<TRIPOS>ATOM
      1 CL1        31.8790   23.4760   57.8890 Cl      1  45B1       -0.0809
      2  C13       31.1680   23.8490   56.2940 C.ar    1  45B1        0.0730
      3  C12       30.6250   22.8310   55.5200 C.ar    1  45B1        0.0127
      4  C11       30.0680   23.1320   54.2880 C.ar    1  45B1        0.0010
      5  C10       30.0650   24.4490   53.8390 C.ar    1  45B1        0.0014
      6  C9        30.6150   25.4630   54.6210 C.ar    1  45B1        0.0175
      7  C8        31.1730   25.1570   55.8550 C.ar    1  45B1        0.0842
      8  N1        31.7280   26.1660   56.6570 N.am    1  45B1       -0.1746
      9  C7        33.0380   26.4390   56.6790 C.2     1  45B1        0.2690
     10  O2        33.8790   25.7190   56.1590 O.2     1  45B1       -0.2680
     11  C6        33.4840   27.6910   57.3840 C.ar    1  45B1        0.0555
     12  C4        34.8320   27.9770   57.5340 C.ar    1  45B1        0.0059
     13  C3        35.2340   29.1400   58.1810 C.ar    1  45B1        0.0167
     14  C14       32.5460   28.5840   57.8990 C.ar    1  45B1        0.0059
     15  C15       32.9480   29.7480   58.5450 C.ar    1  45B1        0.0167
     16  C2        34.2960   30.0340   58.6880 C.ar    1  45B1        0.0732
     17  N5        34.6800   31.2110   59.3560 N.pl3   1  45B1       -0.1809
     18  C1        35.6160   31.2290   60.3190 C.2     1  45B1        0.2453
     19  N6        36.1680   30.1200   60.8180 N.2     1  45B1       -0.3165
     20  C16       36.0240   32.4300   60.7290 C.2     1  45B1        0.2063
     21  F4        35.5100   33.5190   60.1980 F       1  45B1       -0.1983
     22  C17       36.9530   32.5660   61.6830 C.2     1  45B1        0.1454
     23  N4        37.5460   31.5100   62.2320 N.2     1  45B1       -0.1659
     24  C5        37.0310   30.1900   61.9770 C.1     1  45B1        0.1711
     25  N8        37.8190   29.0820   62.5120 N.pl3   1  45B1       -0.1357
     26  C         37.9220   27.7980   62.0520 C.ar    1  45B1        0.0826
     27  C30       38.9320   27.0180   62.6110 C.ar    1  45B1        0.0170
     28  C29       39.1340   25.6950   62.2170 C.ar    1  45B1       -0.0024
     29  C20       38.3260   25.1110   61.2500 C.ar    1  45B1       -0.0130
     30  C19       37.3110   25.8750   60.6880 C.ar    1  45B1       -0.0024
     31  C18       37.1100   27.1970   61.0840 C.ar    1  45B1        0.0170
     32  C21       38.5450   23.6640   60.8390 C.3     1  45B1        0.1116
     33  C22       37.8160   22.7370   61.8220 C.2     1  45B1        0.2302
     34  O1        36.6190   22.9470   62.0120 O.2     1  45B1       -0.2745
     35  N         38.4460   21.7190   62.4640 N.am    1  45B1       -0.2758
     36  C28       37.7380   20.8560   63.4010 C.3     1  45B1        0.1149
     37  C27       38.3590   21.1740   64.7580 C.3     1  45B1        0.1149
     38  N2        39.7320   20.6860   64.6760 N.am    1  45B1       -0.2760
     39  C24       40.5250   21.4480   63.7110 C.3     1  45B1        0.1149
     40  C23       39.8550   21.3170   62.3430 C.3     1  45B1        0.1149
     41  C25       40.2230   19.6590   65.4030 C.2     1  45B1        0.2262
     42  O3        41.3800   19.2720   65.3070 O.2     1  45B1       -0.2749
     43  C26       39.2960   18.9700   66.3660 C.3     1  45B1        0.0948
@<TRIPOS>BOND
     1     5     4   ar
     2     5     6   ar
     3     4     3   ar
     4     6     7   ar
     5     3     2   ar
     6     7     2   ar
     7     7     8    1
     8    10     9    2
     9     2     1    1
    10     8     9   am
    11     9    11    1
    12    11    12   ar
    13    11    14   ar
    14    12    13   ar
    15    14    15   ar
    16    13    16   ar
    17    15    16   ar
    18    16    17    1
    19    17    18    1
    20    21    20    1
    21    18    20    1
    22    18    19    2
    23    30    31   ar
    24    30    29   ar
    25    20    22    2
    26    19    24    2
    27    32    29    1
    28    32    33    1
    29    31    26   ar
    30    29    28   ar
    31    22    23    1
    32    33    34    2
    33    33    35   am
    34    24    23    2
    35    24    25    1
    36    26    25    1
    37    26    27   ar
    38    28    27   ar
    39    40    35    1
    40    40    39    1
    41    35    36    1
    42    36    37    1
    43    39    38    1
    44    38    37    1
    45    38    41   am
    46    42    41    2
    47    41    43    1
