@<TRIPOS>MOLECULE
3h10_97B_A_1.pdb
 40 45 0 0 0
SMALL
GASTEIGER

@<TRIPOS>ATOM
      1  O1        -0.4360  -14.0910  -31.4000 O.2     1  97B1       -0.2699
      2  C20        0.2200  -15.0380  -30.9640 C.2     1  97B1        0.2491
      3  N5        -0.3430  -16.2570  -30.9220 N.am    1  97B1       -0.2732
      4  C24       -1.7410  -16.4300  -30.5020 C.3     1  97B1        0.1110
      5  C23       -1.7600  -17.4930  -29.3920 C.3     1  97B1        0.0939
      6  N6        -1.1570  -18.7520  -29.8870 N.3     1  97B1       -0.2686
      7  C25       -1.2210  -19.8230  -28.8730 C.3     1  97B1        0.0897
      8  C22        0.2450  -18.4910  -30.2890 C.3     1  97B1        0.0939
      9  C21        0.3360  -17.4590  -31.4150 C.3     1  97B1        0.1110
     10  C17        1.6490  -14.8590  -30.4650 C.ar    1  97B1        0.0537
     11  C18        2.6360  -14.3480  -31.3110 C.ar    1  97B1        0.0059
     12  C19        3.9400  -14.1860  -30.8680 C.ar    1  97B1        0.0175
     13  C16        2.0030  -15.2410  -29.1680 C.ar    1  97B1        0.0059
     14  C15        3.3150  -15.0830  -28.7220 C.ar    1  97B1        0.0175
     15  C14        4.2880  -14.5430  -29.5680 C.ar    1  97B1        0.0826
     16  N4         5.4130  -14.0950  -28.9500 N.pl3   1  97B1       -0.1358
     17  C13        6.5290  -13.5890  -29.5150 C.1     1  97B1        0.1696
     18  N3         6.6080  -13.2990  -30.8440 N.2     1  97B1       -0.3364
     19  N2         7.5720  -13.3320  -28.7110 N.2     1  97B1       -0.1686
     20  C12        8.7080  -12.8280  -29.2230 C.2     1  97B1        0.1120
     21  C9         8.8070  -12.5300  -30.5670 C.2     1  97B1        0.0525
     22  C10        7.7310  -12.8030  -31.3840 C.2     1  97B1        0.1435
     23  C8        10.1040  -11.9730  -31.1400 C.3     1  97B1        0.1560
     24  N1         9.8530  -10.6810  -31.7340 N.2     1  97B1       -0.2653
     25  C7         9.1240  -10.4150  -32.7320 C.2     1  97B1        0.0808
     26  C2         8.3540  -11.4600  -33.4740 C.ar    1  97B1        0.0207
     27  C3         7.7200  -12.5450  -32.8490 C.ar    1  97B1        0.0318
     28  C4         6.9830  -13.4460  -33.6080 C.ar    1  97B1        0.0035
     29  C5         6.8960  -13.2630  -34.9580 C.ar    1  97B1        0.0115
     30  C1         8.2480  -11.2810  -34.8470 C.ar    1  97B1        0.0130
     31  C6         7.5120  -12.2060  -35.5740 C.ar    1  97B1        0.0577
     32 CL1         7.3950  -12.0270  -37.3300 Cl      1  97B1       -0.0822
     33  C11        8.9170   -9.0000  -33.2000 C.ar    1  97B1        0.0721
     34  C26        7.6520   -8.4360  -33.1110 C.ar    1  97B1        0.1437
     35  F2         6.6410   -9.1570  -32.5870 F       1  97B1       -0.2040
     36  C27        7.4390   -7.1300  -33.5510 C.ar    1  97B1        0.0298
     37  C28        8.4850   -6.3820  -34.0860 C.ar    1  97B1        0.0046
     38  C29        9.7410   -6.9600  -34.1960 C.ar    1  97B1        0.0298
     39  C30        9.9420   -8.2640  -33.7520 C.ar    1  97B1        0.1437
     40  F1        11.1190   -8.8330  -33.8510 F       1  97B1       -0.2040
@<TRIPOS>BOND
     1    32    31    1
     2    31    29   ar
     3    31    30   ar
     4    29    28   ar
     5    30    26   ar
     6    38    37   ar
     7    38    39   ar
     8    37    36   ar
     9    40    39    1
    10    39    33   ar
    11    28    27   ar
    12    36    34   ar
    13    26    27   ar
    14    26    25    1
    15    33    34   ar
    16    33    25    1
    17    34    35    1
    18    27    22    1
    19    25    24    2
    20    24    23    1
    21     9     3    1
    22     9     8    1
    23     1     2    2
    24    22    18    2
    25    22    21    1
    26    11    12   ar
    27    11    10   ar
    28    23    21    1
    29     2     3   am
    30     2    10    1
    31     3     4    1
    32    12    15   ar
    33    18    17    2
    34    21    20    2
    35     4     5    1
    36    10    13   ar
    37     8     6    1
    38     6     5    1
    39     6     7    1
    40    15    16    1
    41    15    14   ar
    42    17    16    1
    43    17    19    2
    44    20    19    1
    45    13    14   ar
