@<TRIPOS>MOLECULE
3h11_III_C_1.pdb
 37 36 0 0 0
SMALL
GASTEIGER

@<TRIPOS>ATOM
      1  N         42.0450  -19.1780   28.7670 N.3   700  ALA700     -0.1231
      2  CA        42.4580  -19.7010   27.4300 C.3   700  ALA700      0.1694
      3  C         42.3170  -18.6320   26.3460 C.2   700  ALA700      0.2592
      4  O         41.2880  -17.9680   26.2460 O.2   700  ALA700     -0.2718
      5  CB        41.6130  -20.9330   27.0670 C.3   700  ALA700      0.0304
      6  N         43.3590  -18.4780   25.5360 N.am  701  ILE701     -0.1966
      7  CA        43.3560  -17.5040   24.4480 C.3   701  ILE701      0.1727
      8  C         42.1510  -17.7440   23.5430 C.2   701  ILE701      0.2616
      9  O         42.1000  -18.7370   22.8250 O.2   701  ILE701     -0.2715
     10  CB        44.6530  -17.6160   23.6220 C.3   701  ILE701      0.0290
     11  CG1       44.5780  -16.7150   22.3890 C.3   701  ILE701      0.0022
     12  CG2       44.8850  -19.0670   23.2150 C.3   701  ILE701      0.0023
     13  CD1       45.8120  -16.8100   21.5100 C.3   701  ILE701      0.0001
     14  N         41.1820  -16.8310   23.5940 N.am  702  GLU702     -0.1963
     15  CA        39.9590  -16.9290   22.7940 C.3   702  GLU702      0.1733
     16  C         39.9530  -15.9960   21.5740 C.2   702  GLU702      0.2617
     17  O         40.5750  -14.9400   21.5910 O.2   702  GLU702     -0.2715
     18  CB        38.7430  -16.5900   23.6570 C.3   702  GLU702      0.0429
     19  CG        38.4180  -17.5880   24.7720 C.3   702  GLU702      0.1163
     20  CD        37.2970  -17.1020   25.6890 C.2   702  GLU702      0.3649
     21  OE1       36.3130  -16.5280   25.1800 O.co2 702  GLU702     -0.2457
     22  OE2       37.3860  -17.3030   26.9220 O.co2 702  GLU702     -0.2457
     23  N         39.2480  -16.3920   20.5170 N.am  703  THR703     -0.1937
     24  CA        39.1250  -15.5490   19.3280 C.3   703  THR703      0.2028
     25  C         37.8200  -14.7930   19.5280 C.2   703  THR703      0.2642
     26  O         36.9510  -15.2570   20.2690 O.2   703  THR703     -0.2714
     27  CB        39.0010  -16.3720   18.0380 C.3   703  THR703      0.1808
     28  OG1       37.8100  -17.1670   18.0970 O.3   703  THR703     -0.2208
     29  CG2       40.2300  -17.2680   17.8490 C.3   703  THR703      0.0379
     30  N         37.6780  -13.6280   18.8960 N.am  704  ASP704     -0.1971
     31  CA        36.4420  -12.8510   19.0390 C.3   704  ASP704      0.1709
     32  C         35.4270  -13.1310   17.9340 C.2   704  ASP704      0.2293
     33  O         35.0250  -12.2320   17.1980 O.2   704  ASP704     -0.2864
     34  CB        36.7400  -11.3480   19.0910 C.3   704  ASP704      0.1436
     35  CG        36.7780  -10.8130   20.5120 C.2   704  ASP704      0.3671
     36  OD1       35.8740  -11.1790   21.3060 O.co2 704  ASP704     -0.2456
     37  OD2       37.6970  -10.0220   20.8280 O.co2 704  ASP704     -0.2456
@<TRIPOS>BOND
     1    33    32    2
     2    29    27    1
     3    32    31    1
     4    27    28    1
     5    27    24    1
     6    30    31    1
     7    30    25   am
     8    31    34    1
     9    34    35    1
    10    24    25    1
    11    24    23    1
    12    25    26    2
    13    35    37   ar
    14    35    36   ar
    15    23    16   am
    16    13    11    1
    17    16    17    2
    18    16    15    1
    19    11    10    1
    20    15    14    1
    21    15    18    1
    22     9     8    2
    23    12    10    1
    24     8    14   am
    25     8     7    1
    26    10     7    1
    27    18    19    1
    28     7     6    1
    29    19    20    1
    30    21    20   ar
    31     6     3   am
    32    20    22   ar
    33     4     3    2
    34     3     2    1
    35     5     2    1
    36     2     1    1
