@<TRIPOS>MOLECULE
3h17_PMS_A_1.pdb
 10 10 0 0 0
SMALL
GASTEIGER

@<TRIPOS>ATOM
      1  C         -9.0530   20.7430   -5.7700 C.3   310  PMS310      0.1742
      2  S         -8.8460   20.7480   -4.1190 S.3   310  PMS310     -0.0138
      3  C1        -9.6430   22.0600   -6.1720 C.ar  310  PMS310      0.0010
      4  C2        -8.7670   23.1410   -6.4340 C.ar  310  PMS310     -0.0026
      5  C3        -9.3620   24.3790   -6.8270 C.ar  310  PMS310     -0.0003
      6  C4       -10.7980   24.5090   -6.9860 C.ar  310  PMS310     -0.0000
      7  C5       -11.6720   23.3800   -6.7370 C.ar  310  PMS310     -0.0003
      8  C6       -11.0700   22.1580   -6.3150 C.ar  310  PMS310     -0.0026
      9  O2S       -7.8970   22.2450   -4.2510 O.3   310  PMS310     -0.0778
     10  O1S      -10.2690   21.4330   -3.8980 O.3   310  PMS310     -0.0778
@<TRIPOS>BOND
     1     6     5   ar
     2     6     7   ar
     3     5     4   ar
     4     7     8   ar
     5     4     3   ar
     6     8     3   ar
     7     3     1    1
     8     1     2    1
     9     9     2    1
    10     2    10    1
