@<TRIPOS>MOLECULE
3h18_PMS_A_1.pdb
 10 10 0 0 0
SMALL
GASTEIGER

@<TRIPOS>ATOM
      1  C         -8.9900   21.1080   -6.1160 C.3   310  PMS310      0.1742
      2  S         -8.8880   20.8420   -4.4370 S.3   310  PMS310     -0.0138
      3  C1        -9.6730   22.3910   -6.3910 C.ar  310  PMS310      0.0010
      4  C2       -11.0880   22.3230   -6.6370 C.ar  310  PMS310     -0.0026
      5  C3       -11.8040   23.5020   -6.9470 C.ar  310  PMS310     -0.0003
      6  C4       -10.9630   24.7020   -7.0090 C.ar  310  PMS310     -0.0000
      7  C5        -9.5290   24.7640   -6.8110 C.ar  310  PMS310     -0.0003
      8  C6        -8.8660   23.5730   -6.4840 C.ar  310  PMS310     -0.0026
      9  O2S       -7.7430   22.0410   -4.1610 O.3   310  PMS310     -0.0778
     10  O1S      -10.0150   21.7060   -3.5530 O.3   310  PMS310     -0.0778
@<TRIPOS>BOND
     1     6     5   ar
     2     6     7   ar
     3     5     4   ar
     4     7     8   ar
     5     4     3   ar
     6     8     3   ar
     7     3     1    1
     8     1     2    1
     9     2     9    1
    10     2    10    1
