@<TRIPOS>MOLECULE
3h1h_HEM_C_1.pdb
 43 50 0 0 0
SMALL
GASTEIGER

@<TRIPOS>ATOM
      1  CHA       20.8070  137.5760   77.6430 C.2   501  HEM501      0.0000
      2  CHB       19.8780  132.9370   77.3540 C.2   501  HEM501      0.0000
      3  CHC       24.2830  132.1460   78.9100 C.2   501  HEM501      0.0000
      4  CHD       25.1550  136.7180   79.5260 C.2   501  HEM501      0.0000
      5  C1A       20.1810  136.3650   77.4340 C.ar  501  HEM501      0.0000
      6  C2A       18.8360  136.2360   77.0170 C.ar  501  HEM501      0.0000
      7  C3A       18.6010  134.9260   76.9530 C.ar  501  HEM501      0.0000
      8  C4A       19.7770  134.2870   77.3370 C.ar  501  HEM501      0.0000
      9  CMA       17.3700  134.1610   76.4600 C.3   501  HEM501      0.0000
     10  CAA       17.9720  137.3620   76.5460 C.3   501  HEM501      0.0000
     11  CBA       18.4110  137.7840   75.1380 C.3   501  HEM501      0.0000
     12  CGA       17.6080  138.9610   74.5790 C.2   501  HEM501      0.0000
     13  O1A       18.0460  140.1310   74.7380 O.co2 501  HEM501      0.0000
     14  O2A       16.5270  138.7030   73.9900 O.co2 501  HEM501      0.0000
     15  C1B       21.0320  132.3110   77.6780 C.2   501  HEM501      0.0000
     16  C2B       21.1810  130.8490   77.6760 C.2   501  HEM501      0.0000
     17  C3B       22.5060  130.6690   77.9980 C.2   501  HEM501      0.0000
     18  C4B       23.0500  131.9690   78.3920 C.2   501  HEM501      0.0000
     19  CMB       20.1680  129.7390   77.3790 C.3   501  HEM501      0.0000
     20  CAB       23.1820  129.4590   77.9970 C.3   501  HEM501      0.0000
     21  CBB       23.0490  128.6300   79.2070 C.3   501  HEM501      0.0000
     22  C1C       24.9060  133.3140   79.1650 C.ar  501  HEM501      0.0000
     23  C2C       26.1990  133.3940   79.8280 C.ar  501  HEM501      0.0000
     24  C3C       26.4930  134.7250   79.8840 C.ar  501  HEM501      0.0000
     25  C4C       25.2980  135.4040   79.4190 C.ar  501  HEM501      0.0000
     26  CMC       27.0720  132.2530   80.3110 C.3   501  HEM501      0.0000
     27  CAC       27.7290  135.3050   80.2420 C.3   501  HEM501      0.0000
     28  CBC       28.3850  134.9470   81.6110 C.3   501  HEM501      0.0000
     29  C1D       24.0300  137.3240   79.0870 C.2   501  HEM501      0.0000
     30  C2D       23.9180  138.7800   79.0110 C.2   501  HEM501      0.0000
     31  C3D       22.7080  139.0380   78.4590 C.2   501  HEM501      0.0000
     32  C4D       22.0600  137.7430   78.1790 C.2   501  HEM501      0.0000
     33  CMD       25.0000  139.7610   79.3960 C.3   501  HEM501      0.0000
     34  CAD       22.2080  140.4220   78.3210 C.3   501  HEM501      0.0000
     35  CBD       22.3760  141.1170   76.9790 C.3   501  HEM501      0.0000
     36  CGD       21.2760  140.7860   75.9790 C.2   501  HEM501      0.0000
     37  O1D       20.0770  140.7730   76.3460 O.co2 501  HEM501      0.0000
     38  O2D       21.6150  140.5520   74.8040 O.co2 501  HEM501      0.0000
     39  NA        20.7650  135.1670   77.6520 N.ar  501  HEM501      0.0000
     40  NB        22.2020  132.9810   78.0930 N.2   501  HEM501      0.0000
     41  NC        24.3470  134.5340   78.9070 N.ar  501  HEM501      0.0000
     42  ND        22.8890  136.6750   78.5450 N.2   501  HEM501      0.0000
     43 FE         22.5580  134.8350   78.2530 Fe    501  HEM501      0.0000
@<TRIPOS>BOND
     1    14    12   ar
     2    12    13   ar
     3    12    11    1
     4    38    36   ar
     5    11    10    1
     6    36    37   ar
     7    36    35    1
     8     9     7    1
     9    10     6    1
    10     7     6   ar
    11     7     8   ar
    12    35    34    1
    13     6     5   ar
    14     8     2    2
    15     8    39   ar
    16     2    15    1
    17    19    16    1
    18     5     1    2
    19     5    39   ar
    20     1    32    1
    21    39    43    1
    22    16    15    1
    23    16    17    2
    24    15    40    2
    25    20    17    1
    26    20    21    1
    27    17    18    1
    28    40    43    1
    29    40    18    1
    30    32    31    1
    31    32    42    2
    32    43    42    1
    33    43    41    1
    34    34    31    1
    35    18     3    2
    36    31    30    2
    37    42    29    1
    38    41    22   ar
    39    41    25   ar
    40     3    22    1
    41    30    29    1
    42    30    33    1
    43    29     4    2
    44    22    23   ar
    45    25     4    1
    46    25    24   ar
    47    23    24   ar
    48    23    26    1
    49    24    27    1
    50    27    28    1
