@<TRIPOS>MOLECULE
3h1h_HEC_D_1.pdb
 43 50 0 0 0
SMALL
GASTEIGER

@<TRIPOS>ATOM
      1 FE          4.1600  161.2970   66.1950 Fe    501  HEC501      0.0000
      2  CHA        2.9180  158.9280   68.1380 C.2   501  HEC501      0.0000
      3  CHB        5.2830  158.9660   64.1160 C.2   501  HEC501      0.0000
      4  CHC        5.3410  163.6230   64.0840 C.2   501  HEC501      0.0000
      5  CHD        3.2110  163.5880   68.2690 C.2   501  HEC501      0.0000
      6  NA         4.0900  159.3780   66.1280 N.ar  501  HEC501      0.0000
      7  C1A        3.5380  158.5060   67.0300 C.ar  501  HEC501      0.0000
      8  C2A        3.6570  157.0670   66.6190 C.ar  501  HEC501      0.0000
      9  C3A        4.4860  157.1080   65.5850 C.ar  501  HEC501      0.0000
     10  C4A        4.6380  158.5350   65.2090 C.ar  501  HEC501      0.0000
     11  CMA        4.9880  155.8590   64.9130 C.3   501  HEC501      0.0000
     12  CAA        2.8600  155.8010   66.9450 C.3   501  HEC501      0.0000
     13  CBA        2.5000  155.5290   68.3880 C.3   501  HEC501      0.0000
     14  CGA        1.8990  154.1550   68.5730 C.2   501  HEC501      0.0000
     15  O1A        1.6090  153.8090   69.7410 O.co2 501  HEC501      0.0000
     16  O2A        1.7190  153.4290   67.5560 O.co2 501  HEC501      0.0000
     17  NB         5.1580  161.2970   64.5040 N.2   501  HEC501      0.0000
     18  C1B        5.5560  160.2420   63.7810 C.2   501  HEC501      0.0000
     19  C2B        6.3940  160.6170   62.6650 C.2   501  HEC501      0.0000
     20  C3B        6.3800  161.9060   62.6400 C.2   501  HEC501      0.0000
     21  C4B        5.6000  162.3360   63.7500 C.2   501  HEC501      0.0000
     22  CMB        7.1520  159.7550   61.6780 C.3   501  HEC501      0.0000
     23  CAB        6.9450  162.9000   61.6630 C.3   501  HEC501      0.0000
     24  CBB        6.3490  162.6050   60.2950 C.3   501  HEC501      0.0000
     25  NC         4.2040  163.1830   66.1870 N.ar  501  HEC501      0.0000
     26  C1C        4.6780  164.0270   65.2290 C.ar  501  HEC501      0.0000
     27  C2C        4.6150  165.4090   65.6510 C.ar  501  HEC501      0.0000
     28  C3C        4.1300  165.3790   66.8350 C.ar  501  HEC501      0.0000
     29  C4C        3.8280  164.0060   67.1490 C.ar  501  HEC501      0.0000
     30  CMC        5.1850  166.6460   65.0090 C.3   501  HEC501      0.0000
     31  CAC        3.9930  166.4650   67.8580 C.3   501  HEC501      0.0000
     32  CBC        3.0280  167.5650   67.4560 C.3   501  HEC501      0.0000
     33  ND         3.1990  161.2820   67.7900 N.2   501  HEC501      0.0000
     34  C1D        2.8480  162.3260   68.5470 C.2   501  HEC501      0.0000
     35  C2D        1.9370  161.9290   69.6290 C.2   501  HEC501      0.0000
     36  C3D        1.9340  160.6130   69.7040 C.2   501  HEC501      0.0000
     37  C4D        2.7230  160.2180   68.4990 C.2   501  HEC501      0.0000
     38  CMD        1.0850  162.7750   70.5250 C.3   501  HEC501      0.0000
     39  CAD        1.2280  159.7670   70.7690 C.3   501  HEC501      0.0000
     40  CBD       -0.1340  159.2200   70.3610 C.3   501  HEC501      0.0000
     41  CGD       -0.7440  158.3380   71.4370 C.2   501  HEC501      0.0000
     42  O1D        0.0040  157.5120   72.0220 O.co2 501  HEC501      0.0000
     43  O2D       -1.9670  158.4600   71.6940 O.co2 501  HEC501      0.0000
@<TRIPOS>BOND
     1    24    23    1
     2    23    20    1
     3    22    19    1
     4    20    19    2
     5    20    21    1
     6    19    18    1
     7    21     4    2
     8    21    17    1
     9    18     3    1
    10    18    17    2
    11     4    26    1
    12     3    10    2
    13    17     1    1
    14    11     9    1
    15    30    27    1
    16    10     9   ar
    17    10     6   ar
    18    26    27   ar
    19    26    25   ar
    20     9     8   ar
    21    27    28   ar
    22     6     1    1
    23     6     7   ar
    24    25     1    1
    25    25    29   ar
    26     1    33    1
    27     8    12    1
    28     8     7   ar
    29    28    29   ar
    30    28    31    1
    31    12    13    1
    32     7     2    2
    33    29     5    1
    34    32    31    1
    35    16    14   ar
    36    33    37    2
    37    33    34    1
    38     2    37    1
    39     5    34    2
    40    13    14    1
    41    37    36    1
    42    34    35    1
    43    14    15   ar
    44    35    36    2
    45    35    38    1
    46    36    39    1
    47    40    39    1
    48    40    41    1
    49    41    43   ar
    50    41    42   ar
