@<TRIPOS>MOLECULE
3h1h_UQ_C_1.pdb
 19 19 0 0 0
SMALL
GASTEIGER

@<TRIPOS>ATOM
      1  C1        28.1610  111.3800   71.3100 C.2   2002  UQ2002      0.2285
      2  C2        27.7180  109.9270   71.6910 C.2   2002  UQ2002      0.2140
      3  C3        28.1900  109.3130   72.8740 C.2   2002  UQ2002      0.2140
      4  C4        29.1640  110.0930   73.8210 C.2   2002  UQ2002      0.2282
      5  C5        29.6170  111.5360   73.4600 C.2   2002  UQ2002      0.0198
      6  C6        29.1440  112.1710   72.2620 C.2   2002  UQ2002      0.0235
      7  CM5       30.5930  112.2050   74.4760 C.3   2002  UQ2002      0.0343
      8  CM3       28.7170  106.8710   72.9760 C.3   2002  UQ2002      0.2528
      9  CM2       27.4310  108.4350   69.7660 C.3   2002  UQ2002      0.2528
     10  C7        29.5350  113.6440   71.7700 C.3   2002  UQ2002      0.0548
     11  C8        29.9220  114.7780   72.7440 C.2   2002  UQ2002     -0.0298
     12  C9        30.6010  115.9290   72.4220 C.2   2002  UQ2002     -0.0478
     13  C10       31.0270  116.1360   70.9640 C.3   2002  UQ2002      0.0260
     14  C11       30.9840  117.0570   73.4050 C.3   2002  UQ2002      0.0217
     15  C12       31.7880  118.2730   72.8220 C.3   2002  UQ2002      0.0047
     16  O2        26.8230  109.2380   70.8060 O.2   2002  UQ2002     -0.4652
     17  O3        27.7820  107.9690   73.2370 O.2   2002  UQ2002     -0.4652
     18  O4        29.5830  109.5560   74.8640 O.2   2002  UQ2002     -0.2836
     19  O1        27.7280  111.8970   70.2490 O.2   2002  UQ2002     -0.2835
@<TRIPOS>BOND
     1     9    16    1
     2    19     1    2
     3    16     2    1
     4    13    12    1
     5     1     2    1
     6     1     6    1
     7     2     3    2
     8    10     6    1
     9    10    11    1
    10     6     5    2
    11    12    11    2
    12    12    14    1
    13    15    14    1
    14     3    17    1
    15     3     4    1
    16     8    17    1
    17     5     4    1
    18     5     7    1
    19     4    18    2
