@<TRIPOS>MOLECULE
3h1i_ANY_C_1.pdb
 37 38 0 0 0
SMALL
GASTEIGER

@<TRIPOS>ATOM
      1  C1        27.9950  110.8140   69.8570 C.ar  2002  ANY2002     0.2152
      2  C2        27.2020  110.1190   68.8720 C.ar  2002  ANY2002     0.1128
      3  C3        26.6770  108.8430   69.1920 C.ar  2002  ANY2002     0.0199
      4  C4        26.9210  108.2710   70.4490 C.ar  2002  ANY2002     0.0017
      5  C5        27.6900  108.9360   71.4140 C.ar  2002  ANY2002     0.0079
      6  C6        28.2380  110.2080   71.1400 C.ar  2002  ANY2002     0.0952
      7  C7        29.0680  110.8950   72.1890 C.2   2002  ANY2002     0.2685
      8  N1        26.9960  110.7470   67.6250 N.am  2002  ANY2002    -0.1683
      9  N2        29.2910  112.2430   72.0400 N.am  2002  ANY2002    -0.1881
     10  O1        28.4630  112.0260   69.4650 O.3   2002  ANY2002    -0.2850
     11  O3        29.5530  110.2720   73.1600 O.2   2002  ANY2002    -0.2682
     12  C9        30.0590  113.0330   72.9310 C.3   2002  ANY2002     0.2333
     13  C10       31.4570  113.4590   72.3350 C.3   2002  ANY2002     0.1996
     14  O4        29.7040  114.7150   74.5250 O.3   2002  ANY2002    -0.4472
     15  O5        31.9700  114.6280   72.9810 O.3   2002  ANY2002    -0.4498
     16  C11       29.9120  116.1330   74.7420 C.3   2002  ANY2002     0.2092
     17  C12       31.2040  116.2180   75.6630 C.3   2002  ANY2002     0.2189
     18  C13       32.5490  115.8790   74.9460 C.3   2002  ANY2002     0.1426
     19  C14       32.4380  114.5190   74.2670 C.2   2002  ANY2002     0.3201
     20  O6        32.6100  113.3860   74.7080 O.2   2002  ANY2002    -0.2500
     21  C15       33.7320  115.8620   75.9560 C.3   2002  ANY2002     0.0149
     22  C16       35.1070  115.8180   75.2650 C.3   2002  ANY2002     0.0007
     23  C20       29.2880  114.2820   73.3120 C.2   2002  ANY2002     0.3407
     24  O7        28.3990  114.8780   72.7200 O.2   2002  ANY2002    -0.2481
     25  O8        31.3000  117.5860   76.1330 O.3   2002  ANY2002    -0.4479
     26  C21       30.9410  117.9450   77.4360 C.2   2002  ANY2002     0.3164
     27  C22       31.1230  119.4180   77.6470 C.3   2002  ANY2002     0.0991
     28  C26       31.4510  113.8310   70.8820 C.3   2002  ANY2002     0.0498
     29  O9        30.5280  117.0820   78.2150 O.2   2002  ANY2002    -0.2501
     30  C27       28.6420  116.6780   75.3970 C.3   2002  ANY2002     0.0513
     31  C23       31.9870  119.8910   78.8010 C.3   2002  ANY2002     0.0116
     32  C17       36.2650  116.0610   76.2350 C.3   2002  ANY2002     0.0000
     33  C8        26.2940  110.2750   66.4930 C.2   2002  ANY2002     0.3247
     34  C25       30.1820  120.6060   77.7760 C.3   2002  ANY2002     0.0116
     35  C18       37.5620  116.4030   75.4830 C.3   2002  ANY2002     0.0000
     36  O2        25.7220  109.1520   66.4210 O.2   2002  ANY2002    -0.2629
     37  C19       37.9410  117.8970   75.5330 C.3   2002  ANY2002     0.0000
@<TRIPOS>BOND
     1    36    33    2
     2    33     8   am
     3     8     2    1
     4     2     3   ar
     5     2     1   ar
     6     3     4   ar
     7    10     1    1
     8     1     6   ar
     9     4     5   ar
    10    28    13    1
    11     6     5   ar
    12     6     7    1
    13     9     7   am
    14     9    12    1
    15     7    11    2
    16    13    12    1
    17    13    15    1
    18    24    23    2
    19    12    23    1
    20    15    19    1
    21    23    14    1
    22    19    20    2
    23    19    18    1
    24    14    16    1
    25    16    30    1
    26    16    17    1
    27    18    17    1
    28    18    21    1
    29    22    21    1
    30    22    32    1
    31    35    37    1
    32    35    32    1
    33    17    25    1
    34    25    26    1
    35    26    27    1
    36    26    29    2
    37    27    34    1
    38    27    31    1
