@<TRIPOS>MOLECULE
3h1i_HEC_D_1.pdb
 43 50 0 0 0
SMALL
GASTEIGER

@<TRIPOS>ATOM
      1 FE          3.9420  159.7660   65.7420 Fe    501  HEC501      0.0000
      2  CHA        2.7470  157.3250   67.7880 C.2   501  HEC501      0.0000
      3  CHB        5.0890  157.4000   63.6580 C.2   501  HEC501      0.0000
      4  CHC        5.1770  162.0860   63.5670 C.2   501  HEC501      0.0000
      5  CHD        2.8290  162.0810   67.7250 C.2   501  HEC501      0.0000
      6  NA         3.9550  157.7720   65.7650 N.ar  501  HEC501      0.0000
      7  C1A        3.4370  156.8820   66.6940 C.ar  501  HEC501      0.0000
      8  C2A        3.5770  155.4990   66.2430 C.ar  501  HEC501      0.0000
      9  C3A        4.2830  155.5780   65.1360 C.ar  501  HEC501      0.0000
     10  C4A        4.4870  156.9570   64.8130 C.ar  501  HEC501      0.0000
     11  CMA        4.6600  154.4250   64.2500 C.3   501  HEC501      0.0000
     12  CAA        2.8830  154.2060   66.6100 C.3   501  HEC501      0.0000
     13  CBA        2.3990  153.9400   68.0330 C.3   501  HEC501      0.0000
     14  CGA        1.6650  152.6050   68.1690 C.2   501  HEC501      0.0000
     15  O1A        1.1530  152.3150   69.2730 O.co2 501  HEC501      0.0000
     16  O2A        1.5980  151.8450   67.1780 O.co2 501  HEC501      0.0000
     17  NB         4.8690  159.7910   63.9630 N.2   501  HEC501      0.0000
     18  C1B        5.2830  158.7010   63.2530 C.2   501  HEC501      0.0000
     19  C2B        6.0530  159.0940   62.0770 C.2   501  HEC501      0.0000
     20  C3B        6.1060  160.4120   62.0480 C.2   501  HEC501      0.0000
     21  C4B        5.3340  160.8370   63.1950 C.2   501  HEC501      0.0000
     22  CMB        6.7630  158.2300   61.0460 C.3   501  HEC501      0.0000
     23  CAB        6.9660  161.3390   61.1980 C.3   501  HEC501      0.0000
     24  CBB        6.9790  160.9730   59.7240 C.3   501  HEC501      0.0000
     25  NC         3.9760  161.6580   65.6660 N.ar  501  HEC501      0.0000
     26  C1C        4.5470  162.4760   64.7170 C.ar  501  HEC501      0.0000
     27  C2C        4.5000  163.8540   65.1500 C.ar  501  HEC501      0.0000
     28  C3C        3.7200  163.9000   66.2220 C.ar  501  HEC501      0.0000
     29  C4C        3.4370  162.5160   66.5810 C.ar  501  HEC501      0.0000
     30  CMC        5.3120  165.0630   64.6790 C.3   501  HEC501      0.0000
     31  CAC        3.5080  165.0860   67.1420 C.3   501  HEC501      0.0000
     32  CBC        2.7520  166.0200   66.2120 C.3   501  HEC501      0.0000
     33  ND         2.9720  159.7040   67.3840 N.2   501  HEC501      0.0000
     34  C1D        2.6140  160.7770   68.1040 C.2   501  HEC501      0.0000
     35  C2D        1.8140  160.3800   69.2320 C.2   501  HEC501      0.0000
     36  C3D        1.7220  159.0490   69.2400 C.2   501  HEC501      0.0000
     37  C4D        2.4900  158.6320   68.0840 C.2   501  HEC501      0.0000
     38  CMD        1.1600  161.2790   70.2820 C.3   501  HEC501      0.0000
     39  CAD        1.0350  158.2350   70.3550 C.3   501  HEC501      0.0000
     40  CBD       -0.3990  157.8540   70.0320 C.3   501  HEC501      0.0000
     41  CGD       -0.9250  156.7590   70.9310 C.2   501  HEC501      0.0000
     42  O1D       -0.1520  155.8080   71.1840 O.co2 501  HEC501      0.0000
     43  O2D       -2.1020  156.8330   71.3710 O.co2 501  HEC501      0.0000
@<TRIPOS>BOND
     1    24    23    1
     2    22    19    1
     3    23    20    1
     4    20    19    2
     5    20    21    1
     6    19    18    1
     7    21     4    2
     8    21    17    1
     9    18     3    1
    10    18    17    2
    11     4    26    1
    12     3    10    2
    13    17     1    1
    14    11     9    1
    15    30    27    1
    16    26    27   ar
    17    26    25   ar
    18    10     9   ar
    19    10     6   ar
    20     9     8   ar
    21    27    28   ar
    22    25     1    1
    23    25    29   ar
    24     1     6    1
    25     1    33    1
    26     6     7   ar
    27    32    31    1
    28    28    29   ar
    29    28    31    1
    30     8    12    1
    31     8     7   ar
    32    29     5    1
    33    12    13    1
    34     7     2    2
    35    16    14   ar
    36    33    37    2
    37    33    34    1
    38     5    34    2
    39     2    37    1
    40    13    14    1
    41    37    36    1
    42    34    35    1
    43    14    15   ar
    44    35    36    2
    45    35    38    1
    46    36    39    1
    47    40    39    1
    48    40    41    1
    49    41    42   ar
    50    41    43   ar
