@<TRIPOS>MOLECULE
3h1i_SMA_C_1.pdb
 37 38 0 0 0
SMALL
GASTEIGER

@<TRIPOS>ATOM
      1  C2         6.0380  129.9620   81.5380 C.ar  2001  SMA2001     0.1220
      2  C3         4.8010  130.0520   82.1210 C.ar  2001  SMA2001     0.0475
      3  C3M        4.1180  128.8890   82.7330 C.3   2001  SMA2001     0.0373
      4  C4         4.0670  131.3450   82.1550 C.ar  2001  SMA2001     0.2002
      5  C4A        4.7650  132.4870   81.5290 C.ar  2001  SMA2001     0.1105
      6  C5         4.1960  133.8100   81.4470 C.ar  2001  SMA2001     0.1479
      7  C5M        2.3220  135.2190   81.9200 C.3   2001  SMA2001     0.2525
      8  C6         4.9120  134.8870   80.8380 C.ar  2001  SMA2001     0.0774
      9  C7         6.2050  134.6730   80.2990 C.ar  2001  SMA2001     0.1835
     10  C7M        6.5440  136.0950   78.3740 C.3   2001  SMA2001     0.2526
     11  C8         6.8050  133.3360   80.3620 C.ar  2001  SMA2001     0.2636
     12  C8A        6.0550  132.2900   80.9670 C.ar  2001  SMA2001     0.1925
     13  C9         6.9220  128.7460   81.3670 C.3   2001  SMA2001     0.0644
     14  C10        7.6430  128.2300   82.5930 C.3   2001  SMA2001     0.0104
     15  C11        8.8080  127.3290   82.1840 C.3   2001  SMA2001     0.0277
     16  C12        9.5880  126.7710   83.4120 C.3   2001  SMA2001     0.1175
     17  C13       10.4400  127.8610   84.1420 C.3   2001  SMA2001     0.0547
     18  C14       11.1030  127.3090   85.4330 C.3   2001  SMA2001     0.1219
     19  C15       10.9760  128.2980   86.5070 C.3   2001  SMA2001     0.0553
     20  C16       11.8430  128.4400   87.5090 C.2   2001  SMA2001    -0.0279
     21  C17       12.5820  129.6570   87.7600 C.2   2001  SMA2001    -0.0263
     22  C18       13.4530  129.7680   88.7900 C.3   2001  SMA2001     0.0473
     23  C19       13.9260  131.0210   89.3610 C.2   2001  SMA2001    -0.0438
     24  C20       15.1660  131.4420   89.0630 C.2   2001  SMA2001    -0.0339
     25  C21       15.7950  132.6780   89.5530 C.3   2001  SMA2001     0.0300
     26  C22        8.3130  126.1790   81.3310 C.3   2001  SMA2001     0.0025
     27  C23        8.6570  124.8030   84.5020 C.3   2001  SMA2001     0.1740
     28  C24       11.4940  128.4410   83.1900 C.3   2001  SMA2001     0.0050
     29  C25       12.7830  125.6680   85.1680 C.3   2001  SMA2001     0.1740
     30  C26       12.9940  131.7690   90.2560 C.3   2001  SMA2001     0.0264
     31  O1         6.6760  131.0570   80.9720 O.2   2001  SMA2001    -0.4544
     32  O4         2.9470  131.4400   82.6740 O.2   2001  SMA2001    -0.2866
     33  O5         2.9430  133.9390   81.9840 O.3   2001  SMA2001    -0.4711
     34  O7         6.9570  135.6860   79.6960 O.3   2001  SMA2001    -0.4680
     35  O8         8.0660  133.1340   79.8350 O.3   2001  SMA2001    -0.2800
     36  O12        8.6420  126.2220   84.3620 O.3   2001  SMA2001    -0.3535
     37  O14       12.4690  127.0450   85.1550 O.3   2001  SMA2001    -0.3532
@<TRIPOS>BOND
     1    10    34    1
     2    34     9    1
     3    35    11    1
     4     9    11   ar
     5     9     8   ar
     6    11    12   ar
     7     8     6   ar
     8    12    31   ar
     9    12     5   ar
    10    31     1   ar
    11    26    15    1
    12    13     1    1
    13    13    14    1
    14     6     5   ar
    15     6    33    1
    16     5     4   ar
    17     1     2   ar
    18     7    33    1
    19     2     4   ar
    20     2     3    1
    21     4    32    2
    22    15    14    1
    23    15    16    1
    24    28    17    1
    25    16    17    1
    26    16    36    1
    27    17    18    1
    28    36    27    1
    29    37    29    1
    30    37    18    1
    31    18    19    1
    32    19    20    1
    33    20    21    2
    34    21    22    1
    35    22    23    1
    36    24    23    2
    37    24    25    1
    38    23    30    1
