@<TRIPOS>MOLECULE
3h1i_HEM_C_1.pdb
 43 50 0 0 0
SMALL
GASTEIGER

@<TRIPOS>ATOM
      1  CHA       20.8510  136.9410   77.4190 C.2   501  HEM501      0.0000
      2  CHB       20.0110  132.3360   76.9850 C.2   501  HEM501      0.0000
      3  CHC       24.3720  131.3640   78.5150 C.2   501  HEM501      0.0000
      4  CHD       25.2380  135.9900   78.9540 C.2   501  HEM501      0.0000
      5  C1A       20.2590  135.7560   77.1770 C.ar  501  HEM501      0.0000
      6  C2A       18.9330  135.6790   76.6610 C.ar  501  HEM501      0.0000
      7  C3A       18.7210  134.3820   76.5850 C.ar  501  HEM501      0.0000
      8  C4A       19.8930  133.6850   76.9950 C.ar  501  HEM501      0.0000
      9  CMA       17.4480  133.7430   76.1150 C.3   501  HEM501      0.0000
     10  CAA       18.0010  136.7910   76.2210 C.3   501  HEM501      0.0000
     11  CBA       18.5180  137.1670   74.8460 C.3   501  HEM501      0.0000
     12  CGA       17.5270  137.9830   74.0370 C.2   501  HEM501      0.0000
     13  O1A       17.3840  139.2050   74.2740 O.co2 501  HEM501      0.0000
     14  O2A       16.8810  137.3820   73.1520 O.co2 501  HEM501      0.0000
     15  C1B       21.1040  131.6520   77.3880 C.2   501  HEM501      0.0000
     16  C2B       21.1620  130.2060   77.6340 C.2   501  HEM501      0.0000
     17  C3B       22.4290  129.9460   77.8880 C.2   501  HEM501      0.0000
     18  C4B       23.0740  131.2140   78.1140 C.2   501  HEM501      0.0000
     19  CMB       20.0940  129.1310   77.5530 C.3   501  HEM501      0.0000
     20  CAB       22.9950  128.7070   77.8310 C.3   501  HEM501      0.0000
     21  CBB       22.6410  127.6910   78.8410 C.3   501  HEM501      0.0000
     22  C1C       25.0230  132.5720   78.6640 C.ar  501  HEM501      0.0000
     23  C2C       26.4300  132.7120   78.9940 C.ar  501  HEM501      0.0000
     24  C3C       26.6030  133.9570   79.4280 C.ar  501  HEM501      0.0000
     25  C4C       25.4020  134.6590   78.9220 C.ar  501  HEM501      0.0000
     26  CMC       27.4850  131.6460   78.9890 C.3   501  HEM501      0.0000
     27  CAC       27.6570  134.3720   80.2280 C.3   501  HEM501      0.0000
     28  CBC       27.9710  133.5750   81.5240 C.3   501  HEM501      0.0000
     29  C1D       24.0590  136.6170   78.6180 C.2   501  HEM501      0.0000
     30  C2D       23.9060  138.0900   78.6130 C.2   501  HEM501      0.0000
     31  C3D       22.7010  138.3870   78.0910 C.2   501  HEM501      0.0000
     32  C4D       22.0920  137.0780   77.8810 C.2   501  HEM501      0.0000
     33  CMD       24.9840  139.1310   79.0090 C.3   501  HEM501      0.0000
     34  CAD       22.2410  139.8170   77.8700 C.3   501  HEM501      0.0000
     35  CBD       22.3550  140.2960   76.4450 C.3   501  HEM501      0.0000
     36  CGD       21.2310  139.7730   75.5860 C.2   501  HEM501      0.0000
     37  O1D       20.0700  139.9950   75.9540 O.co2 501  HEM501      0.0000
     38  O2D       21.4840  139.1440   74.5420 O.co2 501  HEM501      0.0000
     39  NA        20.8480  134.5350   77.3760 N.ar  501  HEM501      0.0000
     40  NB        22.2430  132.2750   77.8160 N.2   501  HEM501      0.0000
     41  NC        24.4150  133.7980   78.4980 N.ar  501  HEM501      0.0000
     42  ND        22.9210  136.0010   78.1810 N.2   501  HEM501      0.0000
     43 FE         22.6040  134.1410   77.9440 Fe    501  HEM501      0.0000
@<TRIPOS>BOND
     1    14    12   ar
     2    12    13   ar
     3    12    11    1
     4    38    36   ar
     5    11    10    1
     6    36    37   ar
     7    36    35    1
     8     9     7    1
     9    10     6    1
    10    35    34    1
    11     7     6   ar
    12     7     8   ar
    13     6     5   ar
    14     2     8    2
    15     2    15    1
    16     8    39   ar
    17     5    39   ar
    18     5     1    2
    19    39    43    1
    20    15    16    1
    21    15    40    2
    22     1    32    1
    23    19    16    1
    24    16    17    2
    25    40    43    1
    26    40    18    1
    27    20    17    1
    28    20    21    1
    29    34    31    1
    30    32    31    1
    31    32    42    2
    32    17    18    1
    33    43    42    1
    34    43    41    1
    35    31    30    2
    36    18     3    2
    37    42    29    1
    38    41    22   ar
    39    41    25   ar
    40     3    22    1
    41    30    29    1
    42    30    33    1
    43    29     4    2
    44    22    23   ar
    45    25     4    1
    46    25    24   ar
    47    26    23    1
    48    23    24   ar
    49    24    27    1
    50    27    28    1
