@<TRIPOS>MOLECULE
3h1j_UQ_C_1.pdb
 19 19 0 0 0
SMALL
GASTEIGER

@<TRIPOS>ATOM
      1  C1        28.3820  111.3310   70.4010 C.2   2002  UQ2002      0.2285
      2  C2        27.9250  109.8830   70.7940 C.2   2002  UQ2002      0.2140
      3  C3        28.2940  109.3200   72.0540 C.2   2002  UQ2002      0.2140
      4  C4        29.1640  110.1490   73.0500 C.2   2002  UQ2002      0.2282
      5  C5        29.6320  111.5880   72.6650 C.2   2002  UQ2002      0.0198
      6  C6        29.2640  112.1640   71.4020 C.2   2002  UQ2002      0.0235
      7  CM5       30.5080  112.3220   73.7300 C.3   2002  UQ2002      0.0343
      8  CM3       28.8520  106.8850   72.3060 C.3   2002  UQ2002      0.2528
      9  CM2       27.8300  108.1720   69.0100 C.3   2002  UQ2002      0.2528
     10  C7        29.6890  113.6130   70.8980 C.3   2002  UQ2002      0.0548
     11  C8        29.7980  114.7700   71.8910 C.2   2002  UQ2002     -0.0298
     12  C9        30.4860  115.9380   71.7350 C.2   2002  UQ2002     -0.0478
     13  C10       31.2540  116.1850   70.4370 C.3   2002  UQ2002      0.0260
     14  C11       30.5610  117.0630   72.7760 C.3   2002  UQ2002      0.0217
     15  C12       31.5610  116.8590   73.9490 C.3   2002  UQ2002      0.0047
     16  O2        27.1260  109.1480   69.8420 O.2   2002  UQ2002     -0.4652
     17  O3        27.8830  107.9790   72.4530 O.2   2002  UQ2002     -0.4652
     18  O4        29.4830  109.6560   74.1480 O.2   2002  UQ2002     -0.2836
     19  O1        28.0450  111.8150   69.2860 O.2   2002  UQ2002     -0.2835
@<TRIPOS>BOND
     1     9    16    1
     2    19     1    2
     3    16     2    1
     4     1     2    1
     5     1     6    1
     6    13    12    1
     7     2     3    2
     8    10     6    1
     9    10    11    1
    10     6     5    2
    11    12    11    2
    12    12    14    1
    13     3    17    1
    14     3     4    1
    15     8    17    1
    16     5     4    1
    17     5     7    1
    18    14    15    1
    19     4    18    2
