@<TRIPOS>MOLECULE
3h1j_SMA_C_1.pdb
 37 38 0 0 0
SMALL
GASTEIGER

@<TRIPOS>ATOM
      1  C2         6.4530  130.9080   81.3970 C.ar  2001  SMA2001     0.1220
      2  C3         5.2180  131.0070   82.0080 C.ar  2001  SMA2001     0.0475
      3  C3M        4.5500  129.8410   82.6470 C.3   2001  SMA2001     0.0373
      4  C4         4.4770  132.3250   82.0360 C.ar  2001  SMA2001     0.2002
      5  C4A        5.1700  133.4600   81.3710 C.ar  2001  SMA2001     0.1105
      6  C5         4.5900  134.7780   81.2720 C.ar  2001  SMA2001     0.1479
      7  C5M        2.6460  136.1550   81.7370 C.3   2001  SMA2001     0.2525
      8  C6         5.2960  135.8460   80.6270 C.ar  2001  SMA2001     0.0774
      9  C7         6.5850  135.6300   80.0660 C.ar  2001  SMA2001     0.1835
     10  C7M        7.4410  136.6530   78.0050 C.3   2001  SMA2001     0.2526
     11  C8         7.1900  134.2950   80.1390 C.ar  2001  SMA2001     0.2636
     12  C8A        6.4570  133.2590   80.7880 C.ar  2001  SMA2001     0.1925
     13  C9         7.3460  129.6950   81.2070 C.3   2001  SMA2001     0.0644
     14  C10        7.9350  128.9940   82.4290 C.3   2001  SMA2001     0.0104
     15  C11        9.0990  128.0900   81.9840 C.3   2001  SMA2001     0.0278
     16  C12        9.8920  127.4320   83.1710 C.3   2001  SMA2001     0.1179
     17  C13       10.6520  128.4590   84.0730 C.3   2001  SMA2001     0.0586
     18  C14       11.3900  127.7560   85.2460 C.3   2001  SMA2001     0.1395
     19  C15       11.7290  128.7380   86.3190 C.2   2001  SMA2001     0.0029
     20  C16       12.9620  129.1880   86.6210 C.2   2001  SMA2001    -0.0022
     21  C17       13.1740  130.2940   87.5230 C.2   2001  SMA2001    -0.0006
     22  C18       14.4020  130.7710   87.8490 C.2   2001  SMA2001    -0.0046
     23  C19       14.6940  131.8380   88.8320 C.2   2001  SMA2001    -0.0261
     24  C20       15.9640  132.3150   88.9160 C.2   2001  SMA2001    -0.0300
     25  C21       16.4360  133.3730   89.8350 C.3   2001  SMA2001     0.0304
     26  C22        8.5900  127.0090   81.0290 C.3   2001  SMA2001     0.0025
     27  C23        9.1410  125.3020   83.9560 C.3   2001  SMA2001     0.1740
     28  C24       11.6340  129.2590   83.2280 C.3   2001  SMA2001     0.0054
     29  C25       12.8500  125.8410   85.2740 C.3   2001  SMA2001     0.1745
     30  C26       13.5650  132.3420   89.6940 C.3   2001  SMA2001     0.0307
     31  O1         7.0850  132.0120   80.7990 O.2   2001  SMA2001    -0.4544
     32  O4         3.3580  132.4440   82.5720 O.2   2001  SMA2001    -0.2866
     33  O5         3.3210  134.8970   81.8210 O.3   2001  SMA2001    -0.4711
     34  O7         7.3110  136.6560   79.4370 O.3   2001  SMA2001    -0.4680
     35  O8         8.4390  134.0790   79.5800 O.3   2001  SMA2001    -0.2800
     36  O12        8.9830  126.7080   84.0010 O.3   2001  SMA2001    -0.3535
     37  O14       12.5560  127.1150   84.6930 O.3   2001  SMA2001    -0.3491
@<TRIPOS>BOND
     1    10    34    1
     2    34     9    1
     3    35    11    1
     4     9    11   ar
     5     9     8   ar
     6    11    12   ar
     7     8     6   ar
     8    12    31   ar
     9    12     5   ar
    10    31     1   ar
    11    26    15    1
    12    13     1    1
    13    13    14    1
    14     6     5   ar
    15     6    33    1
    16     5     4   ar
    17     1     2   ar
    18     7    33    1
    19    15    14    1
    20    15    16    1
    21     2     4   ar
    22     2     3    1
    23     4    32    2
    24    16    36    1
    25    16    17    1
    26    28    17    1
    27    27    36    1
    28    17    18    1
    29    37    18    1
    30    37    29    1
    31    18    19    1
    32    19    20    2
    33    20    21    1
    34    21    22    2
    35    22    23    1
    36    23    24    2
    37    23    30    1
    38    24    25    1
