@<TRIPOS>MOLECULE
3h1j_HEC_D_1.pdb
 43 50 0 0 0
SMALL
GASTEIGER

@<TRIPOS>ATOM
      1 FE          4.1780  160.6680   65.6430 Fe    501  HEC501      0.0000
      2  CHA        2.8740  158.3020   67.7100 C.2   501  HEC501      0.0000
      3  CHB        5.4930  158.1990   63.7150 C.2   501  HEC501      0.0000
      4  CHC        5.3970  162.9740   63.4650 C.2   501  HEC501      0.0000
      5  CHD        3.2810  163.0260   67.8260 C.2   501  HEC501      0.0000
      6  NA         4.1230  158.7080   65.6660 N.ar  501  HEC501      0.0000
      7  C1A        3.5240  157.8720   66.6020 C.ar  501  HEC501      0.0000
      8  C2A        3.6990  156.4700   66.2370 C.ar  501  HEC501      0.0000
      9  C3A        4.5510  156.4300   65.1980 C.ar  501  HEC501      0.0000
     10  C4A        4.7650  157.8240   64.7990 C.ar  501  HEC501      0.0000
     11  CMA        4.9700  155.1480   64.5060 C.3   501  HEC501      0.0000
     12  CAA        2.9100  155.2520   66.5810 C.3   501  HEC501      0.0000
     13  CBA        2.5560  154.8690   67.9880 C.3   501  HEC501      0.0000
     14  CGA        1.8230  153.5420   68.0080 C.2   501  HEC501      0.0000
     15  O1A        1.5600  153.0340   69.1160 O.co2 501  HEC501      0.0000
     16  O2A        1.5100  153.0060   66.9130 O.co2 501  HEC501      0.0000
     17  NB         5.1830  160.6180   63.9320 N.2   501  HEC501      0.0000
     18  C1B        5.6810  159.4960   63.3050 C.2   501  HEC501      0.0000
     19  C2B        6.4480  159.8500   62.1360 C.2   501  HEC501      0.0000
     20  C3B        6.3550  161.1740   61.9760 C.2   501  HEC501      0.0000
     21  C4B        5.6070  161.6650   63.1170 C.2   501  HEC501      0.0000
     22  CMB        7.2500  158.8860   61.2850 C.3   501  HEC501      0.0000
     23  CAB        7.0130  162.0660   60.9740 C.3   501  HEC501      0.0000
     24  CBB        6.5580  161.6160   59.6140 C.3   501  HEC501      0.0000
     25  NC         4.2090  162.5900   65.6390 N.ar  501  HEC501      0.0000
     26  C1C        4.7580  163.4110   64.6470 C.ar  501  HEC501      0.0000
     27  C2C        4.8030  164.7990   65.0940 C.ar  501  HEC501      0.0000
     28  C3C        4.2010  164.8100   66.3020 C.ar  501  HEC501      0.0000
     29  C4C        3.8400  163.4280   66.6470 C.ar  501  HEC501      0.0000
     30  CMC        5.5580  165.9430   64.4430 C.3   501  HEC501      0.0000
     31  CAC        4.0090  165.8980   67.3480 C.3   501  HEC501      0.0000
     32  CBC        3.1840  167.0440   66.8240 C.3   501  HEC501      0.0000
     33  ND         3.2880  160.6670   67.3960 N.2   501  HEC501      0.0000
     34  C1D        2.9610  161.7580   68.1630 C.2   501  HEC501      0.0000
     35  C2D        2.0770  161.3560   69.2800 C.2   501  HEC501      0.0000
     36  C3D        2.0040  159.9950   69.2720 C.2   501  HEC501      0.0000
     37  C4D        2.7630  159.5900   68.0970 C.2   501  HEC501      0.0000
     38  CMD        1.4410  162.2240   70.3590 C.3   501  HEC501      0.0000
     39  CAD        1.3260  159.1060   70.3240 C.3   501  HEC501      0.0000
     40  CBD       -0.0790  158.6110   70.0070 C.3   501  HEC501      0.0000
     41  CGD       -0.6130  157.6350   71.0430 C.2   501  HEC501      0.0000
     42  O1D        0.1290  156.6820   71.3840 O.co2 501  HEC501      0.0000
     43  O2D       -1.7700  157.8080   71.5060 O.co2 501  HEC501      0.0000
@<TRIPOS>BOND
     1    24    23    1
     2    23    20    1
     3    22    19    1
     4    20    19    2
     5    20    21    1
     6    19    18    1
     7    21     4    2
     8    21    17    1
     9    18     3    1
    10    18    17    2
    11     4    26    1
    12     3    10    2
    13    17     1    1
    14    30    27    1
    15    11     9    1
    16    26    27   ar
    17    26    25   ar
    18    10     9   ar
    19    10     6   ar
    20    27    28   ar
    21     9     8   ar
    22    25     1    1
    23    25    29   ar
    24     1     6    1
    25     1    33    1
    26     6     7   ar
    27     8    12    1
    28     8     7   ar
    29    28    29   ar
    30    28    31    1
    31    12    13    1
    32     7     2    2
    33    29     5    1
    34    32    31    1
    35    16    14   ar
    36    33    37    2
    37    33    34    1
    38     2    37    1
    39     5    34    2
    40    13    14    1
    41    14    15   ar
    42    37    36    1
    43    34    35    1
    44    36    35    2
    45    36    39    1
    46    35    38    1
    47    40    39    1
    48    40    41    1
    49    41    42   ar
    50    41    43   ar
