@<TRIPOS>MOLECULE
3h1j_HEM_C_1.pdb
 43 50 0 0 0
SMALL
GASTEIGER

@<TRIPOS>ATOM
      1  CHA       21.1250  137.3270   76.6400 C.2   501  HEM501      0.0000
      2  CHB       20.3250  132.6270   76.4120 C.2   501  HEM501      0.0000
      3  CHC       24.8600  131.8670   77.6940 C.2   501  HEM501      0.0000
      4  CHD       25.4960  136.5480   78.2570 C.2   501  HEM501      0.0000
      5  C1A       20.5500  136.1350   76.4930 C.ar  501  HEM501      0.0000
      6  C2A       19.1840  135.9850   76.1280 C.ar  501  HEM501      0.0000
      7  C3A       18.9460  134.6440   76.0590 C.ar  501  HEM501      0.0000
      8  C4A       20.1750  134.0090   76.4260 C.ar  501  HEM501      0.0000
      9  CMA       17.6820  133.9280   75.5340 C.3   501  HEM501      0.0000
     10  CAA       18.2690  137.1030   75.6670 C.3   501  HEM501      0.0000
     11  CBA       18.5830  137.2450   74.1930 C.3   501  HEM501      0.0000
     12  CGA       17.9050  138.4320   73.5570 C.2   501  HEM501      0.0000
     13  O1A       18.4110  139.5740   73.7070 O.co2 501  HEM501      0.0000
     14  O2A       16.8540  138.2080   72.9100 O.co2 501  HEM501      0.0000
     15  C1B       21.4970  131.9690   76.7310 C.2   501  HEM501      0.0000
     16  C2B       21.6130  130.5020   76.8670 C.2   501  HEM501      0.0000
     17  C3B       22.9340  130.2960   77.1550 C.2   501  HEM501      0.0000
     18  C4B       23.5760  131.6280   77.2860 C.2   501  HEM501      0.0000
     19  CMB       20.5280  129.4350   76.7310 C.3   501  HEM501      0.0000
     20  CAB       23.5210  129.0570   77.2940 C.3   501  HEM501      0.0000
     21  CBB       23.0400  128.1630   78.3690 C.3   501  HEM501      0.0000
     22  C1C       25.4190  133.0900   78.0620 C.ar  501  HEM501      0.0000
     23  C2C       26.6890  133.2370   78.7550 C.ar  501  HEM501      0.0000
     24  C3C       26.9200  134.5830   78.8050 C.ar  501  HEM501      0.0000
     25  C4C       25.7120  135.2110   78.2860 C.ar  501  HEM501      0.0000
     26  CMC       27.5690  132.0860   79.2710 C.3   501  HEM501      0.0000
     27  CAC       28.0780  135.2610   79.2150 C.3   501  HEM501      0.0000
     28  CBC       28.9190  134.8870   80.4290 C.3   501  HEM501      0.0000
     29  C1D       24.3710  137.1560   77.9050 C.2   501  HEM501      0.0000
     30  C2D       24.2080  138.6090   77.8010 C.2   501  HEM501      0.0000
     31  C3D       22.9080  138.8320   77.4030 C.2   501  HEM501      0.0000
     32  C4D       22.3620  137.5030   77.1260 C.2   501  HEM501      0.0000
     33  CMD       25.2290  139.6970   77.9860 C.3   501  HEM501      0.0000
     34  CAD       22.1420  140.1580   77.4180 C.3   501  HEM501      0.0000
     35  CBD       22.2420  141.0460   76.2050 C.3   501  HEM501      0.0000
     36  CGD       21.5470  140.4580   75.0160 C.2   501  HEM501      0.0000
     37  O1D       20.3330  140.2170   75.0970 O.co2 501  HEM501      0.0000
     38  O2D       22.2100  140.2340   73.9910 O.co2 501  HEM501      0.0000
     39  NA        21.1630  134.9420   76.7190 N.ar  501  HEM501      0.0000
     40  NB        22.6850  132.6530   77.0970 N.2   501  HEM501      0.0000
     41  NC        24.7820  134.2990   77.9030 N.ar  501  HEM501      0.0000
     42  ND        23.2500  136.4800   77.4810 N.2   501  HEM501      0.0000
     43 FE         22.9820  134.6040   77.3050 Fe    501  HEM501      0.0000
@<TRIPOS>BOND
     1    14    12   ar
     2    12    13   ar
     3    12    11    1
     4    38    36   ar
     5    11    10    1
     6    36    37   ar
     7    36    35    1
     8     9     7    1
     9    10     6    1
    10     7     6   ar
    11     7     8   ar
    12     6     5   ar
    13    35    34    1
    14     2     8    2
    15     2    15    1
    16     8    39   ar
    17     5     1    2
    18     5    39   ar
    19     1    32    1
    20    39    43    1
    21    15    16    1
    22    15    40    2
    23    19    16    1
    24    16    17    2
    25    40    18    1
    26    40    43    1
    27    32    31    1
    28    32    42    2
    29    17    18    1
    30    17    20    1
    31    18     3    2
    32    20    21    1
    33    43    42    1
    34    43    41    1
    35    31    34    1
    36    31    30    2
    37    42    29    1
    38     3    22    1
    39    30    29    1
    40    30    33    1
    41    41    22   ar
    42    41    25   ar
    43    29     4    2
    44    22    23   ar
    45     4    25    1
    46    25    24   ar
    47    23    24   ar
    48    23    26    1
    49    24    27    1
    50    27    28    1
