@<TRIPOS>MOLECULE
3h1k_IKR_C_1.pdb
 25 26 0 0 0
SMALL
GASTEIGER

@<TRIPOS>ATOM
      1  C1         9.0790  127.6820   82.3770 C.ar  2001  IKR2001     0.0260
      2  C2         9.9430  128.8050   82.4910 C.ar  2001  IKR2001    -0.0135
      3  C3         9.4800  130.0630   82.1090 C.ar  2001  IKR2001     0.0328
      4  C4         8.1490  130.2110   81.6110 C.ar  2001  IKR2001     0.1347
      5  C5         7.2860  129.0930   81.4960 C.ar  2001  IKR2001     0.0125
      6  C6         7.7640  127.8330   81.8840 C.ar  2001  IKR2001     0.0042
      7  C11        5.8890  129.2070   80.9830 C.3   2001  IKR2001     0.0342
      8  O15        7.6920  131.4440   81.2410 O.3   2001  IKR2001    -0.4710
      9  C16        8.6220  132.5170   81.3650 C.3   2001  IKR2001     0.2320
     10  C17        8.1080  133.6560   80.5630 C.ar  2001  IKR2001     0.0229
     11  C20        8.9670  134.5270   79.8110 C.ar  2001  IKR2001     0.0268
     12  C21        8.4220  135.6060   79.0600 C.ar  2001  IKR2001     0.0016
     13  C22        7.0150  135.8290   79.0490 C.ar  2001  IKR2001     0.0000
     14  C23        6.1780  134.9660   79.7910 C.ar  2001  IKR2001    -0.0002
     15  C24        6.6960  133.8980   80.5360 C.ar  2001  IKR2001    -0.0006
     16  C29       10.4450  134.3780   79.7570 C.2   2001  IKR2001     0.1943
     17  C30       10.9900  133.5790   78.6190 C.2   2001  IKR2001     0.3625
     18  O31       12.3380  133.5490   78.7180 O.3   2001  IKR2001    -0.4402
     19  C32       12.9960  132.8020   77.6900 C.3   2001  IKR2001     0.2560
     20  O36       10.2710  133.0680   77.7880 O.2   2001  IKR2001    -0.2431
     21  N37       11.3220  134.8620   80.5790 N.2   2001  IKR2001    -0.0763
     22  O38       10.7400  135.5950   81.6180 O.2   2001  IKR2001    -0.3729
     23  C39       11.7710  136.0980   82.4530 C.3   2001  IKR2001     0.2885
     24  C40       11.4220  128.8120   83.0190 C.3   2001  IKR2001     0.0316
     25  I1         9.7580  125.8220   82.9380 I     2001  IKR2001    -0.0429
@<TRIPOS>BOND
     1    19    18    1
     2    20    17    2
     3    17    18    1
     4    17    16    1
     5    13    12   ar
     6    13    14   ar
     7    12    11   ar
     8    16    11    1
     9    16    21    2
    10    14    15   ar
    11    11    10   ar
    12    15    10   ar
    13    10     9    1
    14    21    22    1
    15     7     5    1
    16     8     9    1
    17     8     4    1
    18     5     4   ar
    19     5     6   ar
    20     4     3   ar
    21    22    23    1
    22     6     1   ar
    23     3     2   ar
    24     1     2   ar
    25     1    25    1
    26     2    24    1
