@<TRIPOS>MOLECULE
3h1k_UQ_C_1.pdb
 19 19 0 0 0
SMALL
GASTEIGER

@<TRIPOS>ATOM
      1  C1        28.3070  110.1930   70.9460 C.2   2002  UQ2002      0.2285
      2  C2        28.0090  108.7270   71.3710 C.2   2002  UQ2002      0.2140
      3  C3        28.4590  108.2220   72.6060 C.2   2002  UQ2002      0.2140
      4  C4        29.2750  109.1400   73.5680 C.2   2002  UQ2002      0.2282
      5  C5        29.5910  110.6140   73.1600 C.2   2002  UQ2002      0.0198
      6  C6        29.1300  111.1290   71.9050 C.2   2002  UQ2002      0.0235
      7  CM5       30.4230  111.4390   74.1870 C.3   2002  UQ2002      0.0343
      8  CM3       29.1920  105.8330   72.7370 C.3   2002  UQ2002      0.2528
      9  CM2       28.0750  107.2230   69.4740 C.3   2002  UQ2002      0.2528
     10  C7        29.3760  112.5980   71.3470 C.3   2002  UQ2002      0.0548
     11  C8        29.7240  113.7900   72.2540 C.2   2002  UQ2002     -0.0298
     12  C9        30.5680  114.8120   71.9400 C.2   2002  UQ2002     -0.0478
     13  C10       31.2420  114.7860   70.5650 C.3   2002  UQ2002      0.0260
     14  C11       30.9100  116.0060   72.8550 C.3   2002  UQ2002      0.0217
     15  C12       31.2760  117.3640   72.1660 C.3   2002  UQ2002      0.0047
     16  O2        27.2720  107.9150   70.4710 O.2   2002  UQ2002     -0.4652
     17  O3        28.1850  106.8580   73.0140 O.2   2002  UQ2002     -0.4652
     18  O4        29.6720  108.6880   74.6590 O.2   2002  UQ2002     -0.2836
     19  O1        27.8900  110.6070   69.8320 O.2   2002  UQ2002     -0.2835
@<TRIPOS>BOND
     1     9    16    1
     2    19     1    2
     3    16     2    1
     4    13    12    1
     5     1     2    1
     6     1     6    1
     7    10     6    1
     8    10    11    1
     9     2     3    2
    10     6     5    2
    11    12    11    2
    12    12    14    1
    13    15    14    1
    14     3    17    1
    15     3     4    1
    16     8    17    1
    17     5     4    1
    18     5     7    1
    19     4    18    2
