@<TRIPOS>MOLECULE
3h1k_HEM_C_1.pdb
 43 50 0 0 0
SMALL
GASTEIGER

@<TRIPOS>ATOM
      1  CHA       21.1400  136.8250   77.2170 C.2   501  HEM501      0.0000
      2  CHB       20.3470  132.1650   77.1020 C.2   501  HEM501      0.0000
      3  CHC       24.7800  131.4320   78.4650 C.2   501  HEM501      0.0000
      4  CHD       25.3540  136.0760   79.2300 C.2   501  HEM501      0.0000
      5  C1A       20.5290  135.6100   77.0950 C.ar  501  HEM501      0.0000
      6  C2A       19.1150  135.4310   76.7500 C.ar  501  HEM501      0.0000
      7  C3A       18.9780  134.1090   76.8600 C.ar  501  HEM501      0.0000
      8  C4A       20.2160  133.5160   77.0700 C.ar  501  HEM501      0.0000
      9  CMA       17.7260  133.2620   76.9100 C.3   501  HEM501      0.0000
     10  CAA       18.0550  136.4590   76.3590 C.3   501  HEM501      0.0000
     11  CBA       18.5570  136.8310   74.9790 C.3   501  HEM501      0.0000
     12  CGA       17.7280  137.8900   74.2790 C.2   501  HEM501      0.0000
     13  O1A       17.8120  139.0920   74.6400 O.co2 501  HEM501      0.0000
     14  O2A       16.9850  137.5000   73.3500 O.co2 501  HEM501      0.0000
     15  C1B       21.4930  131.5370   77.4480 C.2   501  HEM501      0.0000
     16  C2B       21.6500  130.0620   77.5370 C.2   501  HEM501      0.0000
     17  C3B       22.9580  129.8920   77.8330 C.2   501  HEM501      0.0000
     18  C4B       23.5320  131.2130   78.0300 C.2   501  HEM501      0.0000
     19  CMB       20.6420  128.9250   77.3130 C.3   501  HEM501      0.0000
     20  CAB       23.5730  128.6750   78.0210 C.3   501  HEM501      0.0000
     21  CBB       23.2090  127.8940   79.2840 C.3   501  HEM501      0.0000
     22  C1C       25.2860  132.6620   78.7900 C.ar  501  HEM501      0.0000
     23  C2C       26.5180  132.7460   79.4790 C.ar  501  HEM501      0.0000
     24  C3C       26.7500  134.0630   79.6630 C.ar  501  HEM501      0.0000
     25  C4C       25.5670  134.7410   79.1440 C.ar  501  HEM501      0.0000
     26  CMC       27.3950  131.5440   79.8760 C.3   501  HEM501      0.0000
     27  CAC       27.9280  134.5680   80.2450 C.3   501  HEM501      0.0000
     28  CBC       28.4970  133.8750   81.5760 C.3   501  HEM501      0.0000
     29  C1D       24.2460  136.7110   78.7350 C.2   501  HEM501      0.0000
     30  C2D       24.1060  138.1620   78.5790 C.2   501  HEM501      0.0000
     31  C3D       22.8850  138.3380   78.1090 C.2   501  HEM501      0.0000
     32  C4D       22.3720  137.0320   77.7410 C.2   501  HEM501      0.0000
     33  CMD       25.1530  139.2530   78.7480 C.3   501  HEM501      0.0000
     34  CAD       22.1430  139.6540   78.1650 C.3   501  HEM501      0.0000
     35  CBD       22.2310  140.5460   76.9390 C.3   501  HEM501      0.0000
     36  CGD       21.5340  139.9500   75.7390 C.2   501  HEM501      0.0000
     37  O1D       20.3210  139.6640   75.8240 O.co2 501  HEM501      0.0000
     38  O2D       22.1990  139.7640   74.7010 O.co2 501  HEM501      0.0000
     39  NA        21.1690  134.4280   77.3580 N.ar  501  HEM501      0.0000
     40  NB        22.6460  132.2340   77.8080 N.2   501  HEM501      0.0000
     41  NC        24.6810  133.8640   78.6130 N.ar  501  HEM501      0.0000
     42  ND        23.1950  136.0180   78.1570 N.2   501  HEM501      0.0000
     43 FE         22.9590  134.1220   77.9650 Fe    501  HEM501      0.0000
@<TRIPOS>BOND
     1    14    12   ar
     2    12    13   ar
     3    12    11    1
     4    38    36   ar
     5    11    10    1
     6    36    37   ar
     7    36    35    1
     8    10     6    1
     9     6     7   ar
    10     6     5   ar
    11     7     9    1
    12     7     8   ar
    13    35    34    1
    14     8     2    2
    15     8    39   ar
    16     5     1    2
    17     5    39   ar
    18     2    15    1
    19     1    32    1
    20    19    16    1
    21    39    43    1
    22    15    16    1
    23    15    40    2
    24    16    17    2
    25    32    31    1
    26    32    42    2
    27    40    43    1
    28    40    18    1
    29    17    20    1
    30    17    18    1
    31    43    42    1
    32    43    41    1
    33    20    21    1
    34    18     3    2
    35    31    34    1
    36    31    30    2
    37    42    29    1
    38     3    22    1
    39    30    29    1
    40    30    33    1
    41    41    22   ar
    42    41    25   ar
    43    29     4    2
    44    22    23   ar
    45    25     4    1
    46    25    24   ar
    47    23    24   ar
    48    23    26    1
    49    24    27    1
    50    27    28    1
