@<TRIPOS>MOLECULE
3h1k_HEC_D_1.pdb
 43 50 0 0 0
SMALL
GASTEIGER

@<TRIPOS>ATOM
      1 FE          4.1250  160.2390   66.0000 Fe    501  HEC501      0.0000
      2  CHA        2.8980  157.8870   68.0940 C.2   501  HEC501      0.0000
      3  CHB        5.4580  157.8570   64.1470 C.2   501  HEC501      0.0000
      4  CHC        5.5090  162.5130   63.9290 C.2   501  HEC501      0.0000
      5  CHD        2.9730  162.5380   67.9290 C.2   501  HEC501      0.0000
      6  NA         4.2320  158.3200   66.1470 N.ar  501  HEC501      0.0000
      7  C1A        3.6350  157.4720   67.0490 C.ar  501  HEC501      0.0000
      8  C2A        3.7340  156.0820   66.6730 C.ar  501  HEC501      0.0000
      9  C3A        4.5180  156.0680   65.6140 C.ar  501  HEC501      0.0000
     10  C4A        4.8430  157.4680   65.2960 C.ar  501  HEC501      0.0000
     11  CMA        4.7900  154.7870   64.8160 C.3   501  HEC501      0.0000
     12  CAA        2.9100  154.8710   67.0090 C.3   501  HEC501      0.0000
     13  CBA        2.4560  154.4880   68.3900 C.3   501  HEC501      0.0000
     14  CGA        1.8000  153.1210   68.3770 C.2   501  HEC501      0.0000
     15  O1A        1.5370  152.5520   69.4610 O.co2 501  HEC501      0.0000
     16  O2A        1.5450  152.6080   67.2670 O.co2 501  HEC501      0.0000
     17  NB         5.1480  160.2140   64.3450 N.2   501  HEC501      0.0000
     18  C1B        5.5590  159.1180   63.6790 C.2   501  HEC501      0.0000
     19  C2B        6.1430  159.4420   62.4260 C.2   501  HEC501      0.0000
     20  C3B        6.3140  160.7630   62.3970 C.2   501  HEC501      0.0000
     21  C4B        5.6440  161.2310   63.5850 C.2   501  HEC501      0.0000
     22  CMB        6.5910  158.4730   61.3560 C.3   501  HEC501      0.0000
     23  CAB        7.0900  161.7140   61.4730 C.3   501  HEC501      0.0000
     24  CBB        6.8710  161.4330   59.9880 C.3   501  HEC501      0.0000
     25  NC         4.1610  162.1200   65.8980 N.ar  501  HEC501      0.0000
     26  C1C        4.8230  162.9480   65.0230 C.ar  501  HEC501      0.0000
     27  C2C        4.8640  164.3430   65.5240 C.ar  501  HEC501      0.0000
     28  C3C        4.0220  164.3620   66.5550 C.ar  501  HEC501      0.0000
     29  C4C        3.6150  162.9630   66.8030 C.ar  501  HEC501      0.0000
     30  CMC        5.7650  165.5630   65.1980 C.3   501  HEC501      0.0000
     31  CAC        3.7370  165.4840   67.5650 C.3   501  HEC501      0.0000
     32  CBC        2.8500  166.3780   66.6800 C.3   501  HEC501      0.0000
     33  ND         3.1390  160.2180   67.6330 N.2   501  HEC501      0.0000
     34  C1D        2.7800  161.2730   68.3410 C.2   501  HEC501      0.0000
     35  C2D        2.1050  160.8770   69.5410 C.2   501  HEC501      0.0000
     36  C3D        1.9210  159.5700   69.5420 C.2   501  HEC501      0.0000
     37  C4D        2.6590  159.1710   68.3710 C.2   501  HEC501      0.0000
     38  CMD        1.6250  161.7550   70.6540 C.3   501  HEC501      0.0000
     39  CAD        1.2140  158.7120   70.6070 C.3   501  HEC501      0.0000
     40  CBD       -0.2730  158.4170   70.4720 C.3   501  HEC501      0.0000
     41  CGD       -0.7290  157.3350   71.4300 C.2   501  HEC501      0.0000
     42  O1D        0.0800  156.4130   71.6760 O.co2 501  HEC501      0.0000
     43  O2D       -1.8870  157.3850   71.9230 O.co2 501  HEC501      0.0000
@<TRIPOS>BOND
     1    24    23    1
     2    22    19    1
     3    23    20    1
     4    20    19    2
     5    20    21    1
     6    19    18    1
     7    21     4    2
     8    21    17    1
     9    18     3    1
    10    18    17    2
    11     4    26    1
    12     3    10    2
    13    17     1    1
    14    11     9    1
    15    26    27   ar
    16    26    25   ar
    17    30    27    1
    18    10     9   ar
    19    10     6   ar
    20    27    28   ar
    21     9     8   ar
    22    25     1    1
    23    25    29   ar
    24     1     6    1
    25     1    33    1
    26     6     7   ar
    27    28    29   ar
    28    28    31    1
    29     8    12    1
    30     8     7   ar
    31    32    31    1
    32    29     5    1
    33    12    13    1
    34     7     2    2
    35    16    14   ar
    36    33    34    1
    37    33    37    2
    38     5    34    2
    39     2    37    1
    40    34    35    1
    41    37    36    1
    42    14    13    1
    43    14    15   ar
    44    35    36    2
    45    35    38    1
    46    36    39    1
    47    40    39    1
    48    40    41    1
    49    41    42   ar
    50    41    43   ar
