@<TRIPOS>MOLECULE
3h1l_HEM_C_1.pdb
 43 50 0 0 0
SMALL
GASTEIGER

@<TRIPOS>ATOM
      1  CHA       21.4580  137.3640   77.2300 C.2   501  HEM501      0.0000
      2  CHB       20.6800  132.7390   77.1380 C.2   501  HEM501      0.0000
      3  CHC       25.1970  131.9950   78.5650 C.2   501  HEM501      0.0000
      4  CHD       25.7100  136.6660   79.1750 C.2   501  HEM501      0.0000
      5  C1A       20.8520  136.1730   77.1280 C.ar  501  HEM501      0.0000
      6  C2A       19.4830  136.0250   76.7470 C.ar  501  HEM501      0.0000
      7  C3A       19.2310  134.7150   76.7680 C.ar  501  HEM501      0.0000
      8  C4A       20.4810  134.0940   77.1580 C.ar  501  HEM501      0.0000
      9  CMA       17.9410  133.9460   76.3880 C.3   501  HEM501      0.0000
     10  CAA       18.5540  137.1130   76.3360 C.3   501  HEM501      0.0000
     11  CBA       18.9030  137.3490   74.8830 C.3   501  HEM501      0.0000
     12  CGA       18.0470  138.4230   74.2520 C.2   501  HEM501      0.0000
     13  O1A       18.4550  139.6090   74.2830 O.co2 501  HEM501      0.0000
     14  O2A       16.9560  138.0660   73.7400 O.co2 501  HEM501      0.0000
     15  C1B       21.8550  132.1280   77.4550 C.2   501  HEM501      0.0000
     16  C2B       21.9490  130.6500   77.4990 C.2   501  HEM501      0.0000
     17  C3B       23.2780  130.4510   77.8030 C.2   501  HEM501      0.0000
     18  C4B       23.9050  131.7890   78.1130 C.2   501  HEM501      0.0000
     19  CMB       20.8220  129.6100   77.3670 C.3   501  HEM501      0.0000
     20  CAB       23.8360  129.2110   77.9180 C.3   501  HEM501      0.0000
     21  CBB       23.2610  128.3860   79.0090 C.3   501  HEM501      0.0000
     22  C1C       25.7260  133.2270   78.8570 C.ar  501  HEM501      0.0000
     23  C2C       26.9130  133.4750   79.6900 C.ar  501  HEM501      0.0000
     24  C3C       27.1480  134.8090   79.5890 C.ar  501  HEM501      0.0000
     25  C4C       25.9540  135.3600   79.0630 C.ar  501  HEM501      0.0000
     26  CMC       27.7440  132.4800   80.5090 C.3   501  HEM501      0.0000
     27  CAC       28.3140  135.5340   79.8260 C.3   501  HEM501      0.0000
     28  CBC       29.5970  134.9550   80.4060 C.3   501  HEM501      0.0000
     29  C1D       24.5470  137.2370   78.7990 C.2   501  HEM501      0.0000
     30  C2D       24.3580  138.7110   78.7680 C.2   501  HEM501      0.0000
     31  C3D       23.1360  138.8810   78.1930 C.2   501  HEM501      0.0000
     32  C4D       22.6570  137.5450   77.8160 C.2   501  HEM501      0.0000
     33  CMD       25.3270  139.8100   79.1690 C.3   501  HEM501      0.0000
     34  CAD       22.3160  140.1700   78.1690 C.3   501  HEM501      0.0000
     35  CBD       22.4590  141.1630   77.0180 C.3   501  HEM501      0.0000
     36  CGD       21.9110  140.6360   75.7220 C.2   501  HEM501      0.0000
     37  O1D       20.7510  140.1850   75.7140 O.co2 501  HEM501      0.0000
     38  O2D       22.6330  140.6750   74.7080 O.co2 501  HEM501      0.0000
     39  NA        21.4490  134.9980   77.4650 N.ar  501  HEM501      0.0000
     40  NB        23.0000  132.8040   77.8760 N.2   501  HEM501      0.0000
     41  NC        25.0620  134.4060   78.6010 N.ar  501  HEM501      0.0000
     42  ND        23.4720  136.5270   78.2490 N.2   501  HEM501      0.0000
     43 FE         23.2090  134.6470   78.0360 Fe    501  HEM501      0.0000
@<TRIPOS>BOND
     1    14    12   ar
     2    12    13   ar
     3    12    11    1
     4    38    36   ar
     5    11    10    1
     6    37    36   ar
     7    36    35    1
     8    10     6    1
     9     9     7    1
    10     6     7   ar
    11     6     5   ar
    12     7     8   ar
    13    35    34    1
    14     5     1    2
    15     5    39   ar
    16     2     8    2
    17     2    15    1
    18     8    39   ar
    19     1    32    1
    20    19    16    1
    21    15    16    1
    22    15    40    2
    23    39    43    1
    24    16    17    2
    25    17    20    1
    26    17    18    1
    27    32    31    1
    28    32    42    2
    29    40    43    1
    30    40    18    1
    31    20    21    1
    32    43    42    1
    33    43    41    1
    34    18     3    2
    35    34    31    1
    36    31    30    2
    37    42    29    1
    38     3    22    1
    39    41    22   ar
    40    41    25   ar
    41    30    29    1
    42    30    33    1
    43    29     4    2
    44    22    23   ar
    45    25     4    1
    46    25    24   ar
    47    24    23   ar
    48    24    27    1
    49    23    26    1
    50    27    28    1
