@<TRIPOS>MOLECULE
3h1l_HEC_D_1.pdb
 43 50 0 0 0
SMALL
GASTEIGER

@<TRIPOS>ATOM
      1 FE          4.0330  160.7980   66.2080 Fe    501  HEC501      0.0000
      2  CHA        2.8530  158.3490   68.1550 C.2   501  HEC501      0.0000
      3  CHB        5.3450  158.4540   64.1940 C.2   501  HEC501      0.0000
      4  CHC        5.2660  163.1710   64.1180 C.2   501  HEC501      0.0000
      5  CHD        2.9700  163.0130   68.2930 C.2   501  HEC501      0.0000
      6  NA         4.0260  158.8390   66.1640 N.ar  501  HEC501      0.0000
      7  C1A        3.4690  157.9480   67.0450 C.ar  501  HEC501      0.0000
      8  C2A        3.6090  156.5430   66.5960 C.ar  501  HEC501      0.0000
      9  C3A        4.3990  156.5770   65.5280 C.ar  501  HEC501      0.0000
     10  C4A        4.6500  158.0190   65.2570 C.ar  501  HEC501      0.0000
     11  CMA        4.8260  155.3360   64.7420 C.3   501  HEC501      0.0000
     12  CAA        2.9130  155.2550   66.9310 C.3   501  HEC501      0.0000
     13  CBA        2.6140  155.1100   68.3990 C.3   501  HEC501      0.0000
     14  CGA        1.9100  153.8000   68.7190 C.2   501  HEC501      0.0000
     15  O1A        1.5870  153.5910   69.9120 O.co2 501  HEC501      0.0000
     16  O2A        1.6850  152.9820   67.7940 O.co2 501  HEC501      0.0000
     17  NB         5.0130  160.8290   64.5030 N.2   501  HEC501      0.0000
     18  C1B        5.4720  159.7480   63.8250 C.2   501  HEC501      0.0000
     19  C2B        6.1020  160.1390   62.6190 C.2   501  HEC501      0.0000
     20  C3B        6.1020  161.4410   62.5450 C.2   501  HEC501      0.0000
     21  C4B        5.4380  161.8880   63.7330 C.2   501  HEC501      0.0000
     22  CMB        6.7570  159.2230   61.6120 C.3   501  HEC501      0.0000
     23  CAB        6.9340  162.3460   61.6670 C.3   501  HEC501      0.0000
     24  CBB        6.5900  162.0840   60.1880 C.3   501  HEC501      0.0000
     25  NC         4.0390  162.6910   66.1740 N.ar  501  HEC501      0.0000
     26  C1C        4.5880  163.5670   65.2680 C.ar  501  HEC501      0.0000
     27  C2C        4.4900  164.9800   65.7640 C.ar  501  HEC501      0.0000
     28  C3C        4.0140  164.8890   66.9810 C.ar  501  HEC501      0.0000
     29  C4C        3.6120  163.4840   67.1710 C.ar  501  HEC501      0.0000
     30  CMC        4.9710  166.2840   65.1770 C.3   501  HEC501      0.0000
     31  CAC        3.8490  165.8530   68.1240 C.3   501  HEC501      0.0000
     32  CBC        2.7720  166.8510   67.7970 C.3   501  HEC501      0.0000
     33  ND         3.0890  160.7130   67.8550 N.2   501  HEC501      0.0000
     34  C1D        2.6930  161.7370   68.6030 C.2   501  HEC501      0.0000
     35  C2D        1.8760  161.3270   69.7380 C.2   501  HEC501      0.0000
     36  C3D        1.8520  160.0060   69.7240 C.2   501  HEC501      0.0000
     37  C4D        2.6400  159.6340   68.5360 C.2   501  HEC501      0.0000
     38  CMD        1.2390  162.1730   70.8340 C.3   501  HEC501      0.0000
     39  CAD        1.1600  159.1500   70.7840 C.3   501  HEC501      0.0000
     40  CBD       -0.2010  158.5960   70.3800 C.3   501  HEC501      0.0000
     41  CGD       -0.8770  157.8380   71.5080 C.2   501  HEC501      0.0000
     42  O1D       -0.2720  156.8730   72.0470 O.co2 501  HEC501      0.0000
     43  O2D       -2.0230  158.2100   71.8540 O.co2 501  HEC501      0.0000
@<TRIPOS>BOND
     1    24    23    1
     2    22    19    1
     3    23    20    1
     4    20    19    2
     5    20    21    1
     6    19    18    1
     7    21     4    2
     8    21    17    1
     9    18     3    1
    10    18    17    2
    11     4    26    1
    12     3    10    2
    13    17     1    1
    14    11     9    1
    15    30    27    1
    16    10     9   ar
    17    10     6   ar
    18    26    27   ar
    19    26    25   ar
    20     9     8   ar
    21    27    28   ar
    22     6     1    1
    23     6     7   ar
    24    25     1    1
    25    25    29   ar
    26     1    33    1
    27     8    12    1
    28     8     7   ar
    29    12    13    1
    30    28    29   ar
    31    28    31    1
    32     7     2    2
    33    29     5    1
    34    16    14   ar
    35    32    31    1
    36    33    37    2
    37    33    34    1
    38     2    37    1
    39     5    34    2
    40    13    14    1
    41    37    36    1
    42    34    35    1
    43    14    15   ar
    44    36    35    2
    45    36    39    1
    46    35    38    1
    47    40    39    1
    48    40    41    1
    49    41    43   ar
    50    41    42   ar
