@<TRIPOS>MOLECULE
3h1l_3H1_C_1.pdb
 28 29 0 0 0
SMALL
GASTEIGER

@<TRIPOS>ATOM
      1  C01        4.3680  133.4390   82.3360 C.ar  2001  3H12001     0.1979
      2  C02        4.6380  134.8140   82.0320 C.ar  2001  3H12001     0.0778
      3  C03        5.9150  135.2050   81.4770 C.ar  2001  3H12001    -0.0019
      4  C04        6.9320  134.1930   81.2420 C.ar  2001  3H12001     0.0925
      5  C05        6.6420  132.8510   81.5460 C.ar  2001  3H12001     0.2052
      6  C06        5.3760  132.4390   82.1030 C.ar  2001  3H12001     0.0609
      7  C07        3.5800  135.7980   82.2730 C.2   2001  3H12001     0.2370
      8  C08        6.2180  136.6980   81.1400 C.3   2001  3H12001     0.0322
      9  O09        3.1280  133.0530   82.8770 O.3   2001  3H12001    -0.2867
     10  O10        2.5030  135.5170   82.7160 O.2   2001  3H12001    -0.2830
     11  O11        7.6170  131.9470   81.3040 O.3   2001  3H12001    -0.2859
     12 CL12        8.5660  134.5370   80.5500 Cl    2001  3H12001    -0.0792
     13  C13        5.0980  130.9260   82.4240 C.3   2001  3H12001     0.0585
     14  C14        6.2110  130.2350   83.2130 C.2   2001  3H12001    -0.0254
     15  C15        7.1380  129.3110   82.8320 C.2   2001  3H12001    -0.0261
     16  C16        7.1840  128.7850   81.3890 C.3   2001  3H12001     0.0307
     17  C17        8.0070  128.9050   83.7840 C.2   2001  3H12001    -0.0092
     18  C18        9.0300  128.0220   83.7230 C.2   2001  3H12001    -0.0267
     19  C19       10.0490  127.5700   84.8360 C.3   2001  3H12001     0.0251
     20  C20        9.8490  126.0080   85.1200 C.3   2001  3H12001     0.0046
     21  C21       10.9860  125.4650   86.0790 C.3   2001  3H12001     0.0081
     22  C22       12.4440  125.8030   85.6530 C.3   2001  3H12001     0.0645
     23  C23       12.5990  127.2740   85.2410 C.2   2001  3H12001     0.1505
     24  C24       11.5330  127.8770   84.2840 C.3   2001  3H12001     0.0613
     25  C25        8.4760  125.6030   85.7630 C.3   2001  3H12001     0.0003
     26  O26       13.5410  127.9370   85.6790 O.2   2001  3H12001    -0.2961
     27  C27       11.9320  129.3740   84.0700 C.3   2001  3H12001     0.0081
     28  C28        9.7380  128.4250   86.1230 C.3   2001  3H12001     0.0048
@<TRIPOS>BOND
     1    12     4    1
     2     8     3    1
     3     4     3   ar
     4     4     5   ar
     5    11     5    1
     6    16    15    1
     7     3     2   ar
     8     5     6   ar
     9     2     7    1
    10     2     1   ar
    11     6     1   ar
    12     6    13    1
    13     7    10    2
    14     1     9    1
    15    13    14    1
    16    15    14    2
    17    15    17    1
    18    18    17    2
    19    18    19    1
    20    27    24    1
    21    24    19    1
    22    24    23    1
    23    19    20    1
    24    19    28    1
    25    20    25    1
    26    20    21    1
    27    23    22    1
    28    23    26    2
    29    22    21    1
