@<TRIPOS>MOLECULE
3h1p_III_C_1.pdb
 35 34 0 0 0
SMALL
GASTEIGER

@<TRIPOS>ATOM
      1  C        -58.5850   30.3420   -0.9600 C.2     1  ACE1        0.2423
      2  O        -59.7860   30.5550   -0.9870 O.2     1  ACE1       -0.2733
      3  CH3      -57.7560   30.9400   -2.0450 C.3     1  ACE1        0.0964
      4  N        -58.0100   30.0580    0.2070 N.am    2  ASP2       -0.1972
      5  CA       -56.7570   29.3530    0.3220 C.3     2  ASP2        0.1839
      6  C        -56.7460   28.1430   -0.6210 C.2     2  ASP2        0.2622
      7  O        -57.7090   27.3930   -0.6780 O.2     2  ASP2       -0.2715
      8  CB       -56.4800   29.0220    1.8060 C.3     2  ASP2        0.1450
      9  CG       -56.3040   30.2910    2.6630 C.2     2  ASP2        0.3671
     10  OD1      -55.7310   31.2600    2.1150 O.co2   2  ASP2       -0.2456
     11  OD2      -56.7290   30.3550    3.8560 O.co2   2  ASP2       -0.2456
     12  N        -55.6800   28.0290   -1.4090 N.am    3  GLU3       -0.1963
     13  CA       -55.4470   26.9290   -2.3620 C.3     3  GLU3        0.1733
     14  C        -54.2450   26.1390   -1.8340 C.2     3  GLU3        0.2616
     15  O        -53.4360   26.6880   -1.0750 O.2     3  GLU3       -0.2715
     16  CB       -55.0350   27.5030   -3.7480 C.3     3  GLU3        0.0429
     17  CG       -56.1550   27.7610   -4.7990 C.3     3  GLU3        0.1163
     18  CD       -56.0740   29.1810   -5.4020 C.2     3  GLU3        0.3649
     19  OE1      -54.9770   29.5770   -5.8770 O.co2   3  GLU3       -0.2457
     20  OE2      -57.1050   29.9110   -5.3840 O.co2   3  GLU3       -0.2457
     21  N        -54.0810   24.8980   -2.2690 N.am    4  VAL4       -0.1963
     22  CA       -52.9310   24.1200   -1.8580 C.3     4  VAL4        0.1727
     23  C        -51.9340   23.9630   -3.0160 C.2     4  VAL4        0.2616
     24  O        -52.3180   24.2050   -4.1790 O.2     4  VAL4       -0.2715
     25  CB       -53.3450   22.7240   -1.3360 C.3     4  VAL4        0.0290
     26  CG1      -54.4460   22.8370   -0.2380 C.3     4  VAL4        0.0023
     27  CG2      -53.7600   21.8130   -2.4970 C.3     4  VAL4        0.0023
     28  C        -49.3910   21.9580   -4.1030 C.2     5  ASJ5        0.2293
     29  N        -50.6720   23.5770   -2.7210 N.am    5  ASJ5       -0.1971
     30  O        -48.4450   21.6020   -4.8120 O.2     5  ASJ5       -0.2864
     31  CA       -49.6520   23.4180   -3.7730 C.3     5  ASJ5        0.1709
     32  CB       -48.3530   24.1620   -3.4460 C.3     5  ASJ5        0.1436
     33  CG       -48.4360   25.6760   -3.7650 C.2     5  ASJ5        0.3671
     34  OD1      -49.2240   26.0980   -4.6480 O.co2   5  ASJ5       -0.2456
     35  OD2      -47.7250   26.4740   -3.1260 O.co2   5  ASJ5       -0.2456
@<TRIPOS>BOND
     1    19    18   ar
     2    18    20   ar
     3    18    17    1
     4    30    28    2
     5    17    16    1
     6    34    33   ar
     7    24    23    2
     8    28    31    1
     9    31    32    1
    10    31    29    1
    11    33    32    1
    12    33    35   ar
    13    16    13    1
    14    23    29   am
    15    23    22    1
    16    27    25    1
    17    13    14    1
    18    13    12    1
    19    21    22    1
    20    21    14   am
    21     3     1    1
    22    22    25    1
    23    14    15    2
    24    12     6   am
    25    25    26    1
    26     2     1    2
    27     1     4   am
    28     7     6    2
    29     6     5    1
    30     4     5    1
    31     5     8    1
    32     8     9    1
    33    10     9   ar
    34     9    11   ar
