@<TRIPOS>MOLECULE
3h1q_ATP_A_1.pdb
 31 33 0 0 0
SMALL
GASTEIGER

@<TRIPOS>ATOM
      1  PG        59.7530   35.5290    5.3780 P.3   301  ATP301      0.5373
      2  O1G       60.4150   35.2470    6.7190 O.3   301  ATP301     -0.1143
      3  O2G       60.7070   35.5220    4.2150 O.2   301  ATP301     -0.2221
      4  O3G       58.9330   36.8130    5.3620 O.3   301  ATP301     -0.1143
      5  PB        59.0560   32.8490    5.7630 P.3   301  ATP301      0.2277
      6  O1B       58.1560   31.7690    5.2690 O.2   301  ATP301     -0.5168
      7  O2B       59.1310   33.0100    7.2570 O.3   301  ATP301     -0.4368
      8  O3B       58.7970   34.2660    5.0550 O.3   301  ATP301     -0.2258
      9  PA        61.9830   32.4230    5.8260 P.3   301  ATP301      0.2189
     10  O1A       61.8900   32.3440    7.3220 O.3   301  ATP301     -0.4371
     11  O2A       62.7510   33.5670    5.2150 O.2   301  ATP301     -0.5170
     12  O3A       60.5130   32.5070    5.1460 O.3   301  ATP301     -0.2700
     13  O5'       62.4670   31.0100    5.2430 O.3   301  ATP301     -0.3112
     14  C5'       61.8100   29.7710    5.4450 C.3   301  ATP301      0.1813
     15  C4'       62.5330   28.8230    4.5120 C.3   301  ATP301      0.1821
     16  O4'       63.9220   28.7980    4.8560 O.3   301  ATP301     -0.3135
     17  C3'       62.0380   27.4050    4.6680 C.3   301  ATP301      0.2184
     18  O3'       61.8120   26.8010    3.3900 O.3   301  ATP301     -0.2174
     19  C2'       63.1830   26.6590    5.2990 C.3   301  ATP301      0.2570
     20  O2'       63.2480   25.3160    4.8350 O.3   301  ATP301     -0.2130
     21  C1'       64.4110   27.4600    4.9030 C.3   301  ATP301      0.3186
     22  N9        65.4700   27.0650    5.8930 N.pl3 301  ATP301     -0.1439
     23  C8        65.4880   27.2680    7.2290 C.3   301  ATP301      0.3377
     24  N7        66.5720   26.6880    7.8150 N.2   301  ATP301     -0.2095
     25  C5        67.2800   26.0740    6.8510 C.2   301  ATP301      0.2526
     26  C6        68.5360   25.2790    6.7590 C.2   301  ATP301      0.4393
     27  N6        69.2910   25.0110    7.8490 N.pl3 301  ATP301      0.2180
     28  N1        68.9170   24.8260    5.5360 N.2   301  ATP301      0.0021
     29  C2        68.2110   25.0630    4.4160 C.3   301  ATP301      0.5254
     30  N3        67.0710   25.7860    4.4210 N.2   301  ATP301     -0.0055
     31  C4        66.5510   26.3120    5.5850 C.2   301  ATP301      0.3518
@<TRIPOS>BOND
     1    18    17    1
     2     3     1    2
     3    29    30    1
     4    29    28    1
     5    30    31    2
     6    15    17    1
     7    15    16    1
     8    15    14    1
     9    17    19    1
    10    20    19    1
    11    16    21    1
    12    21    19    1
    13    21    22    1
    14     8     1    1
    15     8     5    1
    16    12     5    1
    17    12     9    1
    18    11     9    2
    19    13    14    1
    20    13     9    1
    21     6     5    2
    22     4     1    1
    23     1     2    1
    24    28    26    2
    25    31    22    1
    26    31    25    1
    27     5     7    1
    28     9    10    1
    29    22    23    1
    30    26    25    1
    31    26    27    1
    32    25    24    2
    33    23    24    1
