@<TRIPOS>MOLECULE
3h1v_TK1_X_1.pdb
 34 38 0 0 0
SMALL
GASTEIGER

@<TRIPOS>ATOM
      1  C1        44.9650   21.1480   68.3670 C.3   501  TK1501      0.1816
      2  C2        34.4900   21.3520   60.2950 C.ar  501  TK1501      0.0039
      3  C3        34.8950   21.0710   59.0120 C.ar  501  TK1501      0.0207
      4  C4        35.1290   20.7720   61.3630 C.ar  501  TK1501      0.0315
      5  C5        41.8390   18.8300   66.5060 C.ar  501  TK1501      0.0388
      6  C6        41.3830   17.8430   68.6610 C.ar  501  TK1501      0.0388
      7  C7        43.0610   19.2010   66.9440 C.ar  501  TK1501      0.0215
      8  C8        42.6310   18.2090   69.1150 C.ar  501  TK1501      0.0215
      9  C9        35.9590   20.2090   58.8500 C.ar  501  TK1501      0.0997
     10  C10       39.5280   17.0560   63.3800 C.ar  501  TK1501      0.0361
     11  C11       38.3760   18.7310   65.3850 C.ar  501  TK1501      0.0729
     12  C12       41.7950   12.9900   62.8050 C.2   501  TK1501      0.0630
     13  C13       40.9570   12.3340   63.9230 C.2   501  TK1501      0.0630
     14  C14       41.0360   15.9540   64.9860 C.3   501  TK1501      0.1311
     15  C15       41.0140   18.1600   67.3760 C.ar  501  TK1501      0.1454
     16  C16       43.4230   18.8900   68.2240 C.ar  501  TK1501      0.1059
     17  C17       36.1920   19.9230   61.1000 C.ar  501  TK1501      0.1662
     18  C18       39.9590   16.9730   64.6870 C.ar  501  TK1501      0.0354
     19  C19       38.5380   18.0010   63.1030 C.ar  501  TK1501      0.1741
     20  C20       37.9430   18.8370   64.0470 C.ar  501  TK1501      0.1772
     21  C21       39.4000   17.8140   65.6540 C.ar  501  TK1501      0.1456
     22  C22       36.9800   19.3110   62.1520 C.1   501  TK1501      0.1565
     23  C23       41.7670   14.4820   63.0980 C.2   501  TK1501      0.2555
     24  C24       40.5390   13.5480   64.7560 C.2   501  TK1501      0.2555
     25  N25       37.9240   18.3210   61.9090 N.2   501  TK1501     -0.3360
     26  N26       36.6290   19.6540   59.8660 N.ar  501  TK1501     -0.2318
     27  N27       36.9650   19.6310   63.4310 N.2   501  TK1501     -0.3359
     28  N28       40.9640   14.7140   64.1880 N.am  501  TK1501     -0.2184
     29  O29       42.3720   15.3410   62.4670 O.2   501  TK1501     -0.2695
     30  O30       39.9800   13.5350   65.8210 O.2   501  TK1501     -0.2695
     31  O31       45.0190   19.1140   70.1740 O.2   501  TK1501     -0.1686
     32  O32       46.0240   18.8400   67.8380 O.2   501  TK1501     -0.1686
     33  O33       39.7840   17.7270   66.9690 O.3   501  TK1501     -0.4537
     34  S34       45.0180   19.3990   68.7350 S.O2  501  TK1501      0.0105
@<TRIPOS>BOND
     1     9     3   ar
     2     9    26   ar
     3     3     2   ar
     4    26    17   ar
     5     2     4   ar
     6    17     4   ar
     7    17    22    1
     8    25    22    2
     9    25    19    2
    10    22    27    2
    11    29    23    2
    12    12    23    1
    13    12    13    2
    14    23    28   am
    15    19    10   ar
    16    19    20   ar
    17    10    18   ar
    18    27    20    2
    19    13    24    1
    20    20    11   ar
    21    28    24   am
    22    28    14    1
    23    18    14    1
    24    18    21   ar
    25    24    30    2
    26    11    21   ar
    27    21    33    1
    28     5     7   ar
    29     5    15   ar
    30     7    16   ar
    31    33    15    1
    32    15     6   ar
    33    32    34    2
    34    16    34    1
    35    16     8   ar
    36     1    34    1
    37     6     8   ar
    38    34    31    2
