@<TRIPOS>MOLECULE
3h1v_GLC_X_1.pdb
 12 12 0 0 0
SMALL
GASTEIGER

@<TRIPOS>ATOM
      1  C1        22.7930    3.6120   66.9420 C.3   500  GLC500      0.3024
      2  C2        22.7000    4.8960   66.1120 C.3   500  GLC500      0.2434
      3  C3        24.0980    5.4630   65.8650 C.3   500  GLC500      0.2199
      4  C4        24.7980    5.6200   67.1720 C.3   500  GLC500      0.2144
      5  C5        24.7730    4.3120   67.9850 C.3   500  GLC500      0.1836
      6  C6        25.5340    4.3610   69.3090 C.3   500  GLC500      0.2142
      7  O1        23.6470    2.6730   66.2290 O.3   500  GLC500     -0.1869
      8  O2        21.9710    4.6120   64.8840 O.3   500  GLC500     -0.2148
      9  O3        24.1450    6.8000   65.2440 O.3   500  GLC500     -0.2174
     10  O4        26.1430    5.9750   66.8440 O.3   500  GLC500     -0.2176
     11  O5        23.4250    3.9410   68.1770 O.3   500  GLC500     -0.3236
     12  O6        24.9460    5.3470   70.2200 O.3   500  GLC500     -0.2176
@<TRIPOS>BOND
     1     8     2    1
     2     9     3    1
     3     3     2    1
     4     3     4    1
     5     2     1    1
     6     7     1    1
     7    10     4    1
     8     1    11    1
     9     4     5    1
    10     5    11    1
    11     5     6    1
    12     6    12    1
