@<TRIPOS>MOLECULE
3h1x_IMN_A_1.pdb
 25 27 0 0 0
SMALL
GASTEIGER

@<TRIPOS>ATOM
      1  C          0.7450  -11.4340    8.4070 C.ar  301  IMN301      0.0664
      2  C1         1.2510  -12.6140    7.6690 C.ar  301  IMN301      0.0169
      3  C2         2.5830  -12.6840    7.3070 C.ar  301  IMN301      0.0381
      4  C3         3.4670  -11.6510    7.6110 C.ar  301  IMN301      0.1388
      5  C4         3.0020  -10.5440    8.3180 C.ar  301  IMN301      0.0384
      6  C5         1.6630  -10.4350    8.7020 C.ar  301  IMN301      0.0207
      7  C6         5.4300  -10.7000    6.4900 C.3   301  IMN301      0.2525
      8  C7         0.1170  -13.5310    7.4440 C.ar  301  IMN301      0.0027
      9  C8        -1.0290  -12.8260    8.1000 C.ar  301  IMN301      0.0411
     10  C9        -1.5040  -10.8930    9.2380 C.2   301  IMN301      0.2644
     11  C10       -1.4230   -9.5470    9.9220 C.ar  301  IMN301      0.0565
     12  C11       -2.6140   -9.0630   10.4610 C.ar  301  IMN301      0.0056
     13  C12       -2.6640   -7.8380   11.1110 C.ar  301  IMN301      0.0115
     14  C13       -1.5250   -7.0720   11.2430 C.ar  301  IMN301      0.0577
     15  C14       -0.3330   -7.5360   10.7080 C.ar  301  IMN301      0.0115
     16  C15       -0.2850   -8.7640   10.0540 C.ar  301  IMN301      0.0056
     17  C16       -2.4320  -13.3020    8.2730 C.3   301  IMN301      0.0501
     18  C17        0.3260  -14.8880    6.8070 C.3   301  IMN301      0.1415
     19  C18       -0.7900  -15.8200    6.4450 C.2   301  IMN301      0.3693
     20  N         -0.5620  -11.6700    8.6010 N.ar  301  IMN301     -0.2785
     21  O          4.7610  -11.7320    7.2460 O.3   301  IMN301     -0.4714
     22  O1        -2.6130  -11.3850    9.2470 O.2   301  IMN301     -0.2666
     23  O2        -1.6300  -16.2190    7.2410 O.co2 301  IMN301     -0.2453
     24  O3        -0.7810  -16.2810    5.2120 O.co2 301  IMN301     -0.2453
     25 CL         -1.6480   -5.5060   12.1090 Cl    301  IMN301     -0.0822
@<TRIPOS>BOND
     1    24    19   ar
     2    19    18    1
     3    19    23   ar
     4     7    21    1
     5    18     8    1
     6    21     4    1
     7     3     4   ar
     8     3     2   ar
     9     8     2   ar
    10     8     9   ar
    11     4     5   ar
    12     2     1   ar
    13     9    17    1
    14     9    20   ar
    15     5     6   ar
    16     1    20   ar
    17     1     6   ar
    18    20    10   am
    19    10    22    2
    20    10    11    1
    21    11    16   ar
    22    11    12   ar
    23    16    15   ar
    24    12    13   ar
    25    15    14   ar
    26    13    14   ar
    27    14    25    1
