@<TRIPOS>MOLECULE
3h1y_F6P_A_1.pdb
 16 16 0 0 0
SMALL
GASTEIGER

@<TRIPOS>ATOM
      1  O1        11.5650   41.3270   25.3750 O.3   392  F6P392     -0.2148
      2  C1        12.4210   40.7980   24.3670 C.3   392  F6P392      0.2434
      3  C2        12.2490   41.3470   22.9470 C.3   392  F6P392      0.2807
      4  O2        12.7410   42.6960   22.9120 O.3   392  F6P392     -0.1896
      5  C3        10.8080   41.3620   22.5560 C.3   392  F6P392      0.2409
      6  O3        10.3660   42.6600   22.7800 O.3   392  F6P392     -0.2149
      7  C4        10.7410   41.0350   21.0830 C.3   392  F6P392      0.2167
      8  O4         9.6640   40.1730   20.8280 O.3   392  F6P392     -0.2175
      9  C5        12.0300   40.3060   20.8270 C.3   392  F6P392      0.1808
     10  O5        12.8980   40.5970   21.9270 O.3   392  F6P392     -0.3254
     11  C6        12.6080   40.5870   19.4420 C.3   392  F6P392      0.1859
     12  O6        11.7650   41.4930   18.7890 O.3   392  F6P392     -0.2675
     13  P         11.9240   43.0540   19.1340 P.3   392  F6P392      0.5327
     14  O1P       11.9470   43.2110   20.6480 O.3   392  F6P392     -0.1145
     15  O2P       10.7930   43.8720   18.5790 O.2   392  F6P392     -0.2224
     16  O3P       13.2270   43.5680   18.5880 O.3   392  F6P392     -0.1145
@<TRIPOS>BOND
     1    15    13    2
     2    16    13    1
     3    12    13    1
     4    12    11    1
     5    13    14    1
     6    11     9    1
     7     9     7    1
     8     9    10    1
     9     8     7    1
    10     7     5    1
    11    10     3    1
    12     5     6    1
    13     5     3    1
    14     4     3    1
    15     3     2    1
    16     2     1    1
