@<TRIPOS>MOLECULE
3h21_B52_A_1.pdb
 19 20 0 0 0
SMALL
GASTEIGER

@<TRIPOS>ATOM
      1  C2       -76.9280   84.3450   92.9620 C.2   278  B52278      0.2167
      2  C3       -77.4740   83.1930   90.9850 C.1   278  B52278      0.2525
      3  C4       -78.8020   85.0770   91.4940 C.1   278  B52278      0.2067
      4  C1       -78.0110   85.3210   92.7190 C.3   278  B52278      0.2500
      5  O18      -79.5400   86.6940   96.8720 O.co2 278  B52278     -0.2452
      6  C17      -78.8750   87.7490   96.5790 C.2   278  B52278      0.3700
      7  O19      -79.3650   88.9260   96.7820 O.co2 278  B52278     -0.2452
      8  C15      -77.4420   87.5820   96.0070 C.3   278  B52278      0.1478
      9  C16      -76.8600   88.9210   95.5770 C.3   278  B52278      0.0184
     10  C11      -77.3370   86.5400   94.9020 C.2   278  B52278      0.1230
     11  C12      -78.2370   86.4350   93.6950 C.2   278  B52278      0.2130
     12  O13      -79.1570   87.2540   93.5150 O.2   278  B52278     -0.2883
     13  N3       -76.3690   85.5900   95.0040 N.2   278  B52278     -0.1770
     14  N4       -76.1330   84.5260   94.0940 N.pl3 278  B52278     -0.1847
     15  C14      -75.0610   83.5710   94.3530 C.3   278  B52278      0.1422
     16  O4       -79.7250   85.8360   91.1930 O.2   278  B52278     -0.2125
     17  N1       -76.7130   83.3270   92.0940 N.2   278  B52278     -0.3112
     18  N6       -77.2250   82.1530   90.1590 N.pl3 278  B52278     -0.0226
     19  N2       -78.4900   84.0320   90.7060 N.2   278  B52278     -0.2535
@<TRIPOS>BOND
     1    18     2    1
     2    19     2    2
     3    19     3    2
     4     2    17    2
     5    16     3    2
     6     3     4    1
     7    17     1    2
     8     4     1    1
     9     4    11    1
    10     1    14    1
    11    12    11    2
    12    11    10    1
    13    14    15    1
    14    14    13    1
    15    10    13    2
    16    10     8    1
    17     9     8    1
    18     8     6    1
    19     6     7   ar
    20     6     5   ar
