@<TRIPOS>MOLECULE
3h22_B53_A_1.pdb
 11 11 0 0 0
SMALL
GASTEIGER

@<TRIPOS>ATOM
      1  O10      -80.0240   87.7900   94.3790 O.2   901  B53901     -0.1467
      2  N9       -78.9710   87.2090   94.1400 N.2   901  B53901     -0.0311
      3  C4       -78.8800   86.1680   93.2150 C.3   901  B53901      0.3329
      4  C1       -79.8080   86.0040   92.0710 C.1   901  B53901      0.2261
      5  O2       -80.7810   86.7530   91.8750 O.2   901  B53901     -0.2108
      6  C7       -77.7830   85.1720   93.3290 C.2   901  B53901      0.2530
      7  N12      -76.8700   85.2890   94.3160 N.pl3 901  B53901     -0.0935
      8  N6       -77.6950   84.1660   92.4140 N.2   901  B53901     -0.3080
      9  C5       -78.5970   84.0870   91.3970 C.1   901  B53901      0.2527
     10  N8       -78.5100   83.0950   90.5000 N.pl3 901  B53901     -0.0226
     11  N3       -79.6180   84.9600   91.2470 N.2   901  B53901     -0.2519
@<TRIPOS>BOND
     1    10     9    1
     2    11     9    2
     3    11     4    2
     4     9     8    2
     5     5     4    2
     6     4     3    1
     7     8     6    2
     8     3     6    1
     9     3     2    1
    10     6     7    1
    11     2     1    2
