@<TRIPOS>MOLECULE
3h23_B54_A_1.pdb
 24 25 0 0 0
SMALL
GASTEIGER

@<TRIPOS>ATOM
      1  O22      -78.7880   86.1580  101.2010 O.co2 511  B54511     -0.2406
      2  C21      -77.8490   85.3570  101.0800 C.2   511  B54511      0.3878
      3  O23      -77.4620   84.6210  102.0270 O.co2 511  B54511     -0.2406
      4  C18      -77.1040   85.3590   99.7820 C.ar  511  B54511      0.0800
      5  C19      -75.9060   84.6230   99.6930 C.ar  511  B54511      0.0097
      6  C20      -75.1650   84.6380   98.5090 C.ar  511  B54511      0.0371
      7  C17      -77.5390   86.1620   98.7210 C.ar  511  B54511      0.0097
      8  C16      -76.7940   86.1590   97.5440 C.ar  511  B54511      0.0371
      9  C15      -75.5980   85.4180   97.4230 C.ar  511  B54511      0.1386
     10  O14      -74.8800   85.4560   96.2350 O.3   511  B54511     -0.4754
     11  C13      -73.5530   84.9670   96.0900 C.3   511  B54511      0.2072
     12  C12      -73.3220   84.6750   94.6210 C.3   511  B54511      0.0707
     13  C11      -74.2340   83.5950   94.0230 C.3   511  B54511      0.1188
     14  N10      -75.5400   84.1280   93.7050 N.pl3 511  B54511     -0.2068
     15  C4       -76.2410   83.9210   92.5590 C.2   511  B54511      0.2464
     16  C5       -77.4340   84.7430   92.2340 C.2   511  B54511      0.2643
     17  N9       -77.9520   85.7360   93.0600 N.2   511  B54511     -0.0123
     18  O24      -77.3740   86.2230   94.0150 O.2   511  B54511     -0.1423
     19  C2       -78.1340   84.4720   90.9770 C.1   511  B54511      0.2410
     20  O8       -79.1580   85.1450   90.7130 O.2   511  B54511     -0.2068
     21  N2       -77.7030   83.4560   90.2030 N.2   511  B54511     -0.2484
     22  C1       -76.6070   82.7520   90.5190 C.1   511  B54511      0.2532
     23  N1       -75.9290   82.9750   91.6600 N.2   511  B54511     -0.3059
     24  N7       -76.1430   81.8010   89.7050 N.pl3 511  B54511     -0.0226
@<TRIPOS>BOND
     1    24    22    1
     2    21    22    2
     3    21    19    2
     4    22    23    2
     5    20    19    2
     6    19    16    1
     7    23    15    2
     8    16    15    1
     9    16    17    2
    10    15    14    1
    11    17    18    1
    12    14    13    1
    13    13    12    1
    14    12    11    1
    15    11    10    1
    16    10     9    1
    17     9     8   ar
    18     9     6   ar
    19     8     7   ar
    20     6     5   ar
    21     7     4   ar
    22     5     4   ar
    23     4     2    1
    24     2     1   ar
    25     2     3   ar
