@<TRIPOS>MOLECULE
3h24_B55_A_1.pdb
 12 13 0 0 0
SMALL
GASTEIGER

@<TRIPOS>ATOM
      1  O1       -79.6360   85.7360   91.8010 O.2   901  B55901     -0.2051
      2  C5       -78.6600   84.8100   91.9810 C.1   901  B55901      0.2590
      3  C2       -77.7480   84.9480   93.0120 C.2   901  B55901      0.3236
      4  N1       -77.5860   85.8890   93.9560 N.2   901  B55901     -0.3081
      5  N4       -78.5380   83.7050   91.1880 N.2   901  B55901     -0.2465
      6  C4       -77.5440   82.7680   91.3870 C.1   901  B55901      0.2618
      7  N3       -77.4620   81.7000   90.5680 N.pl3 901  B55901     -0.0220
      8  N2       -76.6440   82.8740   92.3890 N.2   901  B55901     -0.2543
      9  C3       -76.7480   83.9550   93.1910 C.1   901  B55901      0.2060
     10  N5       -75.9330   84.2470   94.2190 N.2   901  B55901     -0.2639
     11  C1       -76.5060   85.4010   94.6090 C.1   901  B55901      0.1914
     12  S1       -75.8740   86.3150   95.9610 S.2   901  B55901      0.0582
@<TRIPOS>BOND
     1     7     6    1
     2     5     6    2
     3     5     2    2
     4     6     8    2
     5     1     2    2
     6     2     3    1
     7     8     9    2
     8     3     9    1
     9     3     4    2
    10     9    10    2
    11     4    11    2
    12    10    11    2
    13    11    12    2
