@<TRIPOS>MOLECULE
3h26_B56_A_1.pdb
 16 17 0 0 0
SMALL
GASTEIGER

@<TRIPOS>ATOM
      1  O9       -80.1420   85.8730   91.1380 O.2   901  B56901     -0.2058
      2  C8       -79.2090   85.1030   91.4650 C.1   901  B56901      0.2498
      3  N7       -78.9780   83.9900   90.7340 N.2   901  B56901     -0.2475
      4  C5       -77.9770   83.1340   91.0560 C.1   901  B56901      0.2532
      5  N6       -77.7820   82.0340   90.2930 N.pl3 901  B56901     -0.0226
      6  N4       -77.1830   83.3700   92.1290 N.2   901  B56901     -0.3064
      7  C10      -78.4010   85.3630   92.5730 C.2   901  B56901      0.2701
      8  C3       -77.3730   84.4730   92.9010 C.2   901  B56901      0.2397
      9  N1       -76.5890   84.7200   93.9700 N.pl3 901  B56901     -0.2716
     10  C2       -75.5120   83.8050   94.3320 C.3   901  B56901      0.1151
     11  C16      -76.7830   85.8080   94.7270 C.3   901  B56901      0.1596
     12  N11      -78.6000   86.4620   93.3340 N.2   901  B56901     -0.3813
     13  C12      -77.8080   86.7000   94.4060 C.2   901  B56901      0.2092
     14  C13      -78.0340   87.9250   95.2440 C.2   901  B56901      0.4144
     15  O15      -78.9570   88.7110   94.9370 O.co2 901  B56901     -0.2380
     16  O14      -77.2930   88.1400   96.2290 O.co2 901  B56901     -0.2380
@<TRIPOS>BOND
     1     5     4    1
     2     3     4    2
     3     3     2    2
     4     4     6    2
     5     1     2    2
     6     2     7    1
     7     6     8    2
     8     7     8    1
     9     7    12    2
    10     8     9    1
    11    12    13    2
    12     9    10    1
    13     9    11    1
    14    13    11    1
    15    13    14    1
    16    15    14   ar
    17    14    16   ar
