@<TRIPOS>MOLECULE
3h2a_B57_A_1.pdb
 12 12 0 0 0
SMALL
GASTEIGER

@<TRIPOS>ATOM
      1  O7       -79.7200   85.6490   91.1270 O.2   901  B57901     -0.2108
      2  C1       -78.7460   84.8850   91.2890 C.1   901  B57901      0.2278
      3  C6       -77.7700   85.0420   92.4050 C.3   901  B57901      0.3520
      4  N8       -77.8570   86.0470   93.3340 N.pl3 901  B57901      0.0583
      5  O10      -77.0190   86.1350   94.2280 O.2   901  B57901     -0.1294
      6  O9       -78.7620   86.8770   93.3090 O.2   901  B57901     -0.1294
      7  N2       -78.5860   83.8540   90.4300 N.2   901  B57901     -0.2518
      8  C3       -77.5610   82.9680   90.5430 C.1   901  B57901      0.2527
      9  N11      -77.4690   81.9680   89.6340 N.pl3 901  B57901     -0.0226
     10  N4       -76.6360   83.0440   91.5400 N.2   901  B57901     -0.3079
     11  C5       -76.6780   84.0240   92.4760 C.2   901  B57901      0.2546
     12  N12      -75.7220   84.0730   93.4390 N.pl3 901  B57901     -0.0934
@<TRIPOS>BOND
     1     9     8    1
     2     7     8    2
     3     7     2    2
     4     8    10    2
     5     1     2    2
     6     2     3    1
     7    10    11    2
     8     3    11    1
     9     3     4    1
    10    11    12    1
    11     6     4    2
    12     4     5    2
