@<TRIPOS>MOLECULE
3h2b_SAH_A_1.pdb
 26 28 0 0 0
SMALL
GASTEIGER

@<TRIPOS>ATOM
      1  N         27.7560   41.1650   34.3030 N.3   301  SAH301     -0.1159
      2  CA        26.5240   40.4280   34.0160 C.3   301  SAH301      0.2168
      3  CB        25.5750   40.6190   35.2250 C.2   301  SAH301      0.0105
      4  CG        24.2220   39.8980   35.1410 C.2   301  SAH301      0.0284
      5  SD        22.9190   40.1790   36.3830 S.3   301  SAH301     -0.1108
      6  C         25.8700   40.9750   32.6980 C.2   301  SAH301      0.3860
      7  O         25.9650   42.2230   32.4840 O.co2 301  SAH301     -0.2437
      8  OXT       25.2730   40.1850   31.9130 O.co2 301  SAH301     -0.2437
      9  C5'       23.9290   40.0600   37.9380 C.3   301  SAH301      0.0945
     10  C4'       24.6270   38.7430   38.2110 C.3   301  SAH301      0.1634
     11  O4'       25.1860   38.8260   39.5360 O.3   301  SAH301     -0.3152
     12  C3'       23.6990   37.4500   38.0920 C.3   301  SAH301      0.2168
     13  O3'       24.2850   36.4850   37.1420 O.3   301  SAH301     -0.2175
     14  C2'       23.5800   36.9420   39.5290 C.3   301  SAH301      0.2569
     15  O2'       23.7130   35.5210   39.7560 O.3   301  SAH301     -0.2130
     16  C1'       24.5760   37.7720   40.3360 C.3   301  SAH301      0.3185
     17  N9        25.0160   37.8590   41.7170 N.pl3 301  SAH301     -0.1439
     18  C8        24.2390   38.2650   42.8260 C.3   301  SAH301      0.3377
     19  N7        24.9420   38.2080   43.9400 N.2   301  SAH301     -0.2095
     20  C5        26.2140   37.7540   43.5830 C.2   301  SAH301      0.2526
     21  C6        27.4540   37.4650   44.2930 C.2   301  SAH301      0.4393
     22  N6        27.5580   37.6120   45.6230 N.pl3 301  SAH301      0.2180
     23  N1        28.5800   37.0150   43.5970 N.2   301  SAH301      0.0021
     24  C2        28.4880   36.8630   42.2720 C.3   301  SAH301      0.5254
     25  N3        27.4280   37.0810   41.4990 N.2   301  SAH301     -0.0055
     26  C4        26.2950   37.5360   42.1950 C.2   301  SAH301      0.3518
@<TRIPOS>BOND
     1     8     6   ar
     2     7     6   ar
     3     6     2    1
     4     2     1    1
     5     2     3    1
     6     4     3    2
     7     4     5    1
     8     5     9    1
     9    13    12    1
    10     9    10    1
    11    12    10    1
    12    12    14    1
    13    10    11    1
    14    14    15    1
    15    14    16    1
    16    11    16    1
    17    16    17    1
    18    25    26    2
    19    25    24    1
    20    17    26    1
    21    17    18    1
    22    26    20    1
    23    24    23    1
    24    18    19    1
    25    20    19    2
    26    20    21    1
    27    23    21    2
    28    21    22    1
