@<TRIPOS>MOLECULE
3h2c_B58_A_1.pdb
 11 12 0 0 0
SMALL
GASTEIGER

@<TRIPOS>ATOM
      1  N10      -77.4520   82.1780   91.0700 N.pl3 901  B58901     -0.1037
      2  C6       -77.3210   83.1420   92.0090 C.ar  901  B58901      0.2097
      3  N1       -76.3370   83.1050   92.9470 N.ar  901  B58901     -0.1266
      4  N2       -76.1670   84.1110   93.9430 N.ar  901  B58901     -0.1266
      5  C5       -78.2590   84.2860   91.9790 C.ar  901  B58901      0.1348
      6  N7       -79.3290   84.6500   91.2260 N.2   901  B58901     -0.2396
      7  C8       -79.8470   85.8010   91.7260 C.3   901  B58901      0.2509
      8  N9       -79.1120   86.2080   92.7990 N.2   901  B58901     -0.2396
      9  C4       -78.1150   85.3210   93.0100 C.ar  901  B58901      0.1348
     10  C3       -77.0210   85.1700   94.0200 C.ar  901  B58901      0.2097
     11  N11      -76.9040   86.1190   94.9730 N.pl3 901  B58901     -0.1037
@<TRIPOS>BOND
     1     1     2    1
     2     6     7    1
     3     6     5    2
     4     7     8    1
     5     5     2   ar
     6     5     9   ar
     7     2     3   ar
     8     8     9    2
     9     3     4   ar
    10     9    10   ar
    11     4    10   ar
    12    10    11    1
