@<TRIPOS>MOLECULE
3h2e_B59_B_1.pdb
 17 18 0 0 0
SMALL
GASTEIGER

@<TRIPOS>ATOM
      1  O17      -66.6710   87.9350  142.7790 O.2   901  B59901     -0.2639
      2  C1       -65.5780   87.4760  142.3490 C.ar  901  B59901      0.2982
      3  N2       -64.3330   88.0510  142.7260 N.ar  901  B59901     -0.2445
      4  C16      -64.3040   89.2070  143.6490 C.3   901  B59901      0.1383
      5  C6       -65.5730   86.3130  141.4230 C.ar  901  B59901      0.2355
      6  C5       -64.2520   85.8160  140.9520 C.ar  901  B59901      0.2463
      7  N4       -63.0640   86.4250  141.3640 N.ar  901  B59901     -0.2514
      8  C14      -61.7690   85.9210  140.8910 C.3   901  B59901      0.1377
      9  C3       -63.1100   87.5220  142.2300 C.ar  901  B59901      0.3358
     10  O15      -62.0140   88.0160  142.5630 O.2   901  B59901     -0.2461
     11  N7       -66.7180   85.7110  141.0110 N.2   901  B59901     -0.3768
     12  C8       -66.6280   84.6570  140.1650 C.2   901  B59901      0.2672
     13  C11      -67.8400   83.9570  139.6820 C.2   901  B59901      0.2791
     14  O12      -68.4210   84.2840  138.6440 O.2   901  B59901     -0.2794
     15  C9       -65.2920   84.1920  139.7280 C.1   901  B59901      0.2401
     16  O13      -65.1630   83.2300  138.9650 O.2   901  B59901     -0.2065
     17  N10      -64.1790   84.7820  140.1290 N.2   901  B59901     -0.3097
@<TRIPOS>BOND
     1    14    13    2
     2    16    15    2
     3    13    12    1
     4    15    17    2
     5    15    12    1
     6    17     6    2
     7    12    11    2
     8     8     7    1
     9     6     7   ar
    10     6     5   ar
    11    11     5    2
    12     7     9   ar
    13     5     2   ar
    14     9    10    2
    15     9     3   ar
    16     2     3   ar
    17     2     1    2
    18     3     4    1
