@<TRIPOS>MOLECULE
3h2f_B60_A_1.pdb
 13 14 0 0 0
SMALL
GASTEIGER

@<TRIPOS>ATOM
      1  O2       -81.6760   87.3650   91.8050 O.2   901  B60901     -0.2069
      2  C1       -80.7100   86.6190   92.0500 C.1   901  B60901      0.2376
      3  C4       -79.8520   86.9020   93.2290 C.2   901  B60901      0.2216
      4  C7       -78.7350   85.9650   93.4480 C.2   901  B60901      0.2310
      5  N6       -78.5410   84.9380   92.5690 N.2   901  B60901     -0.3072
      6  C5       -79.3640   84.7570   91.4960 C.1   901  B60901      0.2531
      7  N8       -79.1200   83.7030   90.6710 N.pl3 901  B60901     -0.0226
      8  N3       -80.4410   85.5520   91.2660 N.2   901  B60901     -0.2485
      9  N9       -80.0730   87.9340   94.0980 N.2   901  B60901     -0.2265
     10  C10      -79.2420   88.1640   95.1480 C.2   901  B60901      0.1160
     11  C11      -78.0850   87.3220   95.4660 C.2   901  B60901      0.0883
     12  N12      -77.8700   86.1900   94.5370 N.pl3 901  B60901     -0.2559
     13  C13      -76.7530   85.2630   94.7110 C.3   901  B60901      0.1199
@<TRIPOS>BOND
     1     7     6    1
     2     8     6    2
     3     8     2    2
     4     6     5    2
     5     1     2    2
     6     2     3    1
     7     5     4    2
     8     3     4    1
     9     3     9    2
    10     4    12    1
    11     9    10    1
    12    12    13    1
    13    12    11    1
    14    10    11    2
