@<TRIPOS>MOLECULE
3h2k_BOG_A_1.pdb
 20 20 0 0 0
SMALL
GASTEIGER

@<TRIPOS>ATOM
      1  C1        15.4220  -14.6810   11.4960 C.3   398  BOG398      0.2695
      2  O1        16.3730  -14.1490   12.4300 O.3   398  BOG398     -0.3286
      3  C2        14.6560  -15.8430   12.1290 C.3   398  BOG398      0.2406
      4  O2        15.5590  -16.8770   12.5300 O.3   398  BOG398     -0.2149
      5  C3        13.6480  -16.3990   11.1220 C.3   398  BOG398      0.2198
      6  O3        12.8460  -17.4000   11.7550 O.3   398  BOG398     -0.2174
      7  C4        12.7470  -15.2700   10.6180 C.3   398  BOG398      0.2144
      8  O4        11.9580  -15.7650    9.5330 O.3   398  BOG398     -0.2176
      9  C5        13.5880  -14.0910   10.1240 C.3   398  BOG398      0.1835
     10  O5        14.4890  -13.6460   11.1490 O.3   398  BOG398     -0.3256
     11  C6        12.6590  -12.9240    9.7830 C.3   398  BOG398      0.2142
     12  O6        11.9660  -12.5130   10.9640 O.3   398  BOG398     -0.2176
     13  C1'       17.0650  -13.0430   11.8330 C.3   398  BOG398      0.1449
     14  C2'       17.7560  -12.2530   12.9470 C.3   398  BOG398      0.0322
     15  C3'       18.4870  -11.0230   12.4060 C.3   398  BOG398      0.0026
     16  C4'       19.0320  -10.1960   13.5720 C.3   398  BOG398      0.0001
     17  C5'       19.7220   -8.9130   13.1040 C.3   398  BOG398      0.0000
     18  C6'       20.1350   -8.0730   14.3150 C.3   398  BOG398      0.0000
     19  C7'       20.7480   -6.7390   13.8860 C.3   398  BOG398      0.0000
     20  C8'       21.0840   -5.8770   15.1050 C.3   398  BOG398      0.0000
@<TRIPOS>BOND
     1     8     7    1
     2    11     9    1
     3    11    12    1
     4     9     7    1
     5     9    10    1
     6     7     5    1
     7     5     6    1
     8     5     3    1
     9    10     1    1
    10     1     3    1
    11     1     2    1
    12    13     2    1
    13    13    14    1
    14     3     4    1
    15    15    14    1
    16    15    16    1
    17    17    16    1
    18    17    18    1
    19    19    18    1
    20    19    20    1
