@<TRIPOS>MOLECULE
3h2l_YAK_A_1.pdb
 36 40 0 0 0
SMALL
GASTEIGER

@<TRIPOS>ATOM
      1  F34       90.9170    9.8960   50.2060 F     601  YAK601     -0.2042
      2  C11       92.1420   10.2110   50.6610 C.ar  601  YAK601      0.1401
      3  C5        93.1470   10.6550   49.7790 C.ar  601  YAK601      0.0294
      4  C6        92.3960   10.0910   52.0300 C.ar  601  YAK601      0.0294
      5  C2        93.6580   10.4100   52.5330 C.ar  601  YAK601     -0.0003
      6  C8        94.6540   10.8560   51.6660 C.ar  601  YAK601     -0.0022
      7  C1        94.4130   10.9680   50.2890 C.ar  601  YAK601     -0.0003
      8  C23       96.0060   11.1730   52.2240 C.3   601  YAK601      0.1204
      9  N26       96.5830    9.9270   52.7330 N.am  601  YAK601     -0.2725
     10  C21       97.3180    9.0960   51.7910 C.3   601  YAK601      0.0832
     11  C19       98.7460    9.6050   51.5250 C.3   601  YAK601      0.0203
     12  C17       99.4370    8.4100   50.8770 C.3   601  YAK601      0.0022
     13  C20       97.4610    7.6070   52.1960 C.3   601  YAK601      0.0810
     14  C18       98.7700    7.1740   51.4950 C.3   601  YAK601      0.0094
     15  C14       97.4250    7.3630   53.7080 C.2   601  YAK601      0.1890
     16  O33       97.8120    6.1300   54.1600 O.2   601  YAK601     -0.2904
     17  C16       96.3850    9.5730   54.0730 C.2   601  YAK601      0.2625
     18  O28       95.7110   10.2290   54.8710 O.2   601  YAK601     -0.2690
     19  C13       97.0120    8.3200   54.5780 C.2   601  YAK601      0.1632
     20  C15       97.1990    8.3030   56.0480 C.1   601  YAK601      0.1132
     21  N24       96.6610    9.2260   56.8020 N.2   601  YAK601     -0.3515
     22  C9        96.7740    9.2690   58.2070 C.2   601  YAK601      0.1438
     23  C3        96.2250   10.3800   58.8860 C.3   601  YAK601      0.0887
     24  N25       98.0230    7.2520   56.5210 N.2   601  YAK601     -0.0614
     25  S35       98.1090    6.8910   58.1610 S.O2  601  YAK601      0.1112
     26  O29       99.5030    6.8430   58.5670 O.2   601  YAK601     -0.1456
     27  O30       97.1750    5.8110   58.3950 O.2   601  YAK601     -0.1456
     28  C12       97.4170    8.2910   58.9760 C.2   601  YAK601      0.1576
     29  C7        97.5070    8.3850   60.3720 C.2   601  YAK601      0.0405
     30  C10       96.9420    9.4870   61.0310 C.2   601  YAK601      0.0882
     31  C4        96.3050   10.4870   60.2810 C.2   601  YAK601     -0.0005
     32  N27       97.0200    9.6530   62.4560 N.pl3 601  YAK601     -0.1009
     33  S36       97.4500    8.3840   63.5320 S.O2  601  YAK601      0.0750
     34  O31       96.9970    8.7530   64.8690 O.2   601  YAK601     -0.1528
     35  O32       97.0160    7.1160   62.9760 O.2   601  YAK601     -0.1528
     36  C22       99.2290    8.4090   63.5860 C.3   601  YAK601      0.2016
@<TRIPOS>BOND
     1     3     7   ar
     2     3     2   ar
     3     1     2    1
     4     7     6   ar
     5     2     4   ar
     6    12    14    1
     7    12    11    1
     8    14    13    1
     9    11    10    1
    10     6     8    1
    11     6     5   ar
    12    10    13    1
    13    10     9    1
    14     4     5   ar
    15    13    15    1
    16     8     9    1
    17     9    17   am
    18    15    16    1
    19    15    19    2
    20    17    19    1
    21    17    18    2
    22    19    20    1
    23    20    24    2
    24    20    21    2
    25    24    25    1
    26    21    22    2
    27    25    27    2
    28    25    26    2
    29    25    28    1
    30    22    23    1
    31    22    28    1
    32    23    31    1
    33    28    29    2
    34    31    30    2
    35    29    30    1
    36    30    32    1
    37    32    33    1
    38    35    33    2
    39    33    36    1
    40    33    34    2
