@<TRIPOS>MOLECULE
3h2m_B61_A_1.pdb
 18 19 0 0 0
SMALL
GASTEIGER

@<TRIPOS>ATOM
      1  O2       -81.4830   87.1920   90.8780 O.2   901  B61901     -0.2058
      2  C1       -80.5160   86.5170   91.2410 C.1   901  B61901      0.2498
      3  C4       -79.7110   86.8730   92.4420 C.2   901  B61901      0.2696
      4  C7       -78.5540   85.9750   92.7200 C.2   901  B61901      0.2397
      5  N6       -78.3210   84.9040   91.9070 N.2   901  B61901     -0.3064
      6  C5       -79.1000   84.6640   90.8160 C.1   901  B61901      0.2532
      7  N8       -78.8470   83.6300   89.9850 N.pl3 901  B61901     -0.0226
      8  N3       -80.1650   85.4310   90.5300 N.2   901  B61901     -0.2475
      9  N9       -79.9770   87.9410   93.2550 N.2   901  B61901     -0.3924
     10  C10      -79.1970   88.2160   94.3530 C.2   901  B61901      0.1103
     11  C17      -79.6120   89.4690   95.1200 C.3   901  B61901      0.0865
     12  C23      -80.2140   89.3620   96.5300 C.3   901  B61901      0.1331
     13  O24      -80.9310   88.0480   96.7550 O.3   901  B61901     -0.2252
     14  C25      -79.0170   89.6730   97.4610 C.3   901  B61901      0.0334
     15  C26      -81.1940   90.5630   96.7770 C.3   901  B61901      0.0334
     16  C11      -77.9750   87.3920   94.7480 C.3   901  B61901      0.1480
     17  N12      -77.7380   86.2330   93.8330 N.pl3 901  B61901     -0.2721
     18  C13      -76.6340   85.2740   94.0060 C.3   901  B61901      0.1151
@<TRIPOS>BOND
     1     7     6    1
     2     8     6    2
     3     8     2    2
     4     6     5    2
     5     1     2    2
     6     2     3    1
     7     5     4    2
     8     3     4    1
     9     3     9    2
    10     4    17    1
    11     9    10    2
    12    17    18    1
    13    17    16    1
    14    10    16    1
    15    10    11    1
    16    11    12    1
    17    12    13    1
    18    12    15    1
    19    12    14    1
