@<TRIPOS>MOLECULE
3h2n_B62_A_1.pdb
 13 14 0 0 0
SMALL
GASTEIGER

@<TRIPOS>ATOM
      1  O12      -80.4690   86.2800   91.2880 O.2   901  B62901     -0.2063
      2  C1       -79.5350   85.5190   91.4840 C.1   901  B62901      0.2441
      3  N2       -79.3450   84.4240   90.7420 N.2   901  B62901     -0.2474
      4  C6       -78.6560   85.7770   92.6300 C.2   901  B62901      0.2462
      5  N7       -78.8680   86.8500   93.4290 N.2   901  B62901     -0.2488
      6  C8       -78.1650   86.9190   94.7040 C.3   901  B62901      0.1300
      7  C11      -78.2110   88.3530   95.2410 C.3   901  B62901      0.0285
      8  C9       -76.7470   86.3230   94.5540 C.3   901  B62901      0.1615
      9  N10      -76.7160   84.9900   93.9230 N.2   901  B62901     -0.2055
     10  C5       -77.5720   84.7700   92.8890 C.1   901  B62901      0.1270
     11  N4       -77.4600   83.7050   92.0490 N.2   901  B62901     -0.2683
     12  C3       -78.3130   83.5640   90.9830 C.1   901  B62901      0.2608
     13  N13      -78.1790   82.4880   90.1580 N.pl3 901  B62901     -0.0220
@<TRIPOS>BOND
     1    13    12    1
     2     3    12    2
     3     3     2    2
     4    12    11    2
     5     1     2    2
     6     2     4    1
     7    11    10    2
     8     4    10    1
     9     4     5    2
    10    10     9    2
    11     5     6    1
    12     9     8    1
    13     8     6    1
    14     6     7    1
