@<TRIPOS>MOLECULE
3h2o_B63_A_1.pdb
 24 26 0 0 0
SMALL
GASTEIGER

@<TRIPOS>ATOM
      1  O3       -82.9760   95.4260   94.3410 O.co2 501  B63501     -0.2406
      2  C15      -82.7060   94.8080   95.4130 C.2   501  B63501      0.3878
      3  O2       -83.4110   94.8740   96.4430 O.co2 501  B63501     -0.2406
      4  C12      -81.5120   93.9070   95.4640 C.ar  501  B63501      0.0799
      5  C11      -81.1900   93.2080   96.6260 C.ar  501  B63501      0.0079
      6  C10      -80.0860   92.3640   96.6170 C.ar  501  B63501      0.0163
      7  C13      -80.7200   93.7750   94.3310 C.ar  501  B63501      0.0079
      8  C14      -79.6190   92.9410   94.3180 C.ar  501  B63501      0.0163
      9  C9       -79.3110   92.2390   95.4580 C.ar  501  B63501      0.0653
     10  N6       -78.2250   91.4520   95.4110 N.pl3 501  B63501     -0.2372
     11  C2       -78.2000   90.1920   96.1360 C.3   501  B63501      0.1193
     12  C1       -79.4190   89.3320   95.8930 C.3   501  B63501      0.0799
     13  C3       -79.0020   88.2220   95.0070 C.2   501  B63501      0.1156
     14  C4       -77.7640   87.4290   95.3280 C.3   501  B63501      0.1913
     15  N2       -77.5000   86.3650   94.3420 N.2   501  B63501     -0.1993
     16  C5       -78.2950   86.1330   93.2830 C.1   501  B63501      0.1401
     17  N5       -78.0180   85.1600   92.3790 N.2   501  B63501     -0.2672
     18  C8       -78.8700   84.9680   91.3110 C.1   501  B63501      0.2609
     19  N4       -78.5920   83.9840   90.4280 N.pl3 501  B63501     -0.0220
     20  N3       -79.9970   85.7060   91.0700 N.2   501  B63501     -0.2466
     21  C7       -80.3680   86.7180   91.8650 C.1   501  B63501      0.2569
     22  O1       -81.4010   87.3690   91.6120 O.2   501  B63501     -0.2052
     23  C6       -79.5110   86.9970   93.0550 C.2   501  B63501      0.2988
     24  N1       -79.7920   87.9910   93.9320 N.2   501  B63501     -0.3856
@<TRIPOS>BOND
     1    19    18    1
     2    20    18    2
     3    20    21    2
     4    18    17    2
     5    22    21    2
     6    21    23    1
     7    17    16    2
     8    23    16    1
     9    23    24    2
    10    16    15    2
    11    24    13    2
    12     8     7   ar
    13     8     9   ar
    14     7     4   ar
    15     1     2   ar
    16    15    14    1
    17    13    14    1
    18    13    12    1
    19    10     9    1
    20    10    11    1
    21     2     4    1
    22     2     3   ar
    23     9     6   ar
    24     4     5   ar
    25    12    11    1
    26     6     5   ar
