@<TRIPOS>MOLECULE
3h2s_NDP_A_1.pdb
 48 52 0 0 0
SMALL
GASTEIGER

@<TRIPOS>ATOM
      1  PA        27.2840   45.3260   48.1190 P.3   301  NDP301      0.2189
      2  O1A       28.7890   45.6900   47.9660 O.2   301  NDP301     -0.5170
      3  O2A       26.7880   44.9220   49.4650 O.3   301  NDP301     -0.4371
      4  O5B       27.3370   44.0200   47.0410 O.3   301  NDP301     -0.3112
      5  C5B       26.2790   44.1830   46.0620 C.3   301  NDP301      0.1813
      6  C4B       26.0190   42.8180   45.3140 C.3   301  NDP301      0.1820
      7  O4B       26.8350   42.7880   44.1600 O.3   301  NDP301     -0.3136
      8  C3B       26.4530   41.5690   46.1530 C.3   301  NDP301      0.2157
      9  O3B       25.3400   40.7320   46.1960 O.3   301  NDP301     -0.2175
     10  C2B       27.6100   40.9530   45.2640 C.3   301  NDP301      0.2314
     11  O2B       27.7640   39.5780   45.3000 O.3   301  NDP301     -0.2630
     12  C1B       27.1290   41.4540   43.8670 C.3   301  NDP301      0.3158
     13  N9A       28.2450   41.4650   42.9070 N.pl3 301  NDP301     -0.1439
     14  C8A       29.3700   42.3250   43.0000 C.3   301  NDP301      0.3377
     15  N7A       30.2310   42.1660   41.9920 N.2   301  NDP301     -0.2095
     16  C5A       29.6330   41.1790   41.1800 C.2   301  NDP301      0.2526
     17  C6A       30.0720   40.6270   39.9640 C.2   301  NDP301      0.4393
     18  N6A       31.2710   41.0300   39.4580 N.pl3 301  NDP301      0.2180
     19  N1A       29.4410   39.4900   39.4960 N.2   301  NDP301      0.0021
     20  C2A       28.2420   39.1760   40.0710 C.3   301  NDP301      0.5254
     21  N3A       27.6120   39.7680   41.1300 N.2   301  NDP301     -0.0055
     22  C4A       28.3940   40.7350   41.7210 C.2   301  NDP301      0.3518
     23  O3        26.6740   46.7270   47.7270 O.3   301  NDP301     -0.2703
     24  PN        25.6580   47.8410   48.3280 P.3   301  NDP301      0.2189
     25  O1N       24.3930   47.1200   48.8300 O.2   301  NDP301     -0.5170
     26  O2N       26.4520   48.4810   49.4260 O.3   301  NDP301     -0.4371
     27  O5D       25.1730   48.8850   47.1700 O.3   301  NDP301     -0.3112
     28  C5D       23.9870   48.6710   46.3990 C.3   301  NDP301      0.1813
     29  C4D       23.8360   49.8750   45.4520 C.3   301  NDP301      0.1799
     30  O4D       23.9510   51.0240   46.2740 O.3   301  NDP301     -0.3327
     31  C3D       24.8680   50.0210   44.2950 C.3   301  NDP301      0.2158
     32  O3D       24.2620   50.5750   43.1850 O.3   301  NDP301     -0.2175
     33  C2D       25.9250   50.9720   44.9660 C.3   301  NDP301      0.2309
     34  O2D       26.6030   51.7420   44.0060 O.3   301  NDP301     -0.2158
     35  C1D       24.9200   51.8960   45.7430 C.3   301  NDP301      0.2261
     36  N1N       25.6150   52.7360   46.7160 N.pl3 301  NDP301     -0.2828
     37  C2N       25.6110   54.1690   46.4460 C.3   301  NDP301      0.1025
     38  C3N       26.5400   54.9900   47.3410 C.3   301  NDP301      0.1040
     39  C7N       26.0940   56.4420   47.3550 C.2   301  NDP301      0.2623
     40  O7N       25.7250   56.9730   46.3170 O.2   301  NDP301     -0.2716
     41  N7N       26.2730   57.1840   48.5130 N.am  301  NDP301     -0.0877
     42  C4N       26.9150   54.4530   48.7070 C.3   301  NDP301      0.0383
     43  C5N       27.1480   52.9640   48.7490 C.2   301  NDP301     -0.0098
     44  C6N       26.4030   52.0970   47.7590 C.2   301  NDP301      0.0584
     45  P2B       28.5250   38.8650   46.5530 P.3   301  NDP301      0.5328
     46  O1X       27.6070   38.9640   47.8250 O.3   301  NDP301     -0.1145
     47  O2X       28.5440   37.3250   46.2290 O.2   301  NDP301     -0.2224
     48  O3X       29.8710   39.4510   46.8100 O.3   301  NDP301     -0.1145
@<TRIPOS>BOND
     1    18    17    1
     2    19    17    2
     3    19    20    1
     4    17    16    1
     5    20    21    1
     6    21    22    2
     7    16    22    1
     8    16    15    2
     9    22    13    1
    10    15    14    1
    11    13    14    1
    12    13    12    1
    13    32    31    1
    14    12     7    1
    15    12    10    1
    16    34    33    1
    17     7     6    1
    18    31    33    1
    19    31    29    1
    20    33    35    1
    21    10    11    1
    22    10     8    1
    23    11    45    1
    24     6     5    1
    25     6     8    1
    26    29    30    1
    27    29    28    1
    28    35    30    1
    29    35    36    1
    30     5     4    1
    31     8     9    1
    32    47    45    2
    33    40    39    2
    34    28    27    1
    35    37    36    1
    36    37    38    1
    37    45    48    1
    38    45    46    1
    39    36    44    1
    40     4     1    1
    41    27    24    1
    42    38    39    1
    43    38    42    1
    44    39    41   am
    45    23     1    1
    46    23    24    1
    47    44    43    2
    48     2     1    2
    49     1     3    1
    50    24    25    2
    51    24    26    1
    52    42    43    1
