@<TRIPOS>MOLECULE
3h2w_BGC_A_1.pdb
 11 11 0 0 0
SMALL
GASTEIGER

@<TRIPOS>ATOM
      1  C2        -9.8540   32.9760  -21.9230 C.3   601  BGC601      0.2141
      2  C3        -8.5500   33.7780  -21.8720 C.3   601  BGC601      0.2173
      3  C4        -7.7360   33.4810  -23.1230 C.3   601  BGC601      0.2142
      4  C5        -8.5850   33.8270  -24.3430 C.3   601  BGC601      0.1810
      5  C6        -7.8090   33.6870  -25.6470 C.3   601  BGC601      0.2141
      6  C1       -10.5910   33.2710  -23.2320 C.3   601  BGC601      0.1777
      7  O2       -10.6650   33.2300  -20.7860 O.3   601  BGC601     -0.2176
      8  O3        -7.7920   33.4660  -20.7230 O.3   601  BGC601     -0.2175
      9  O4        -6.5580   34.2410  -23.1140 O.3   601  BGC601     -0.2176
     10  O5        -9.7550   33.0180  -24.3550 O.3   601  BGC601     -0.3481
     11  O6        -7.4030   32.3500  -25.8090 O.3   601  BGC601     -0.2176
@<TRIPOS>BOND
     1    11     5    1
     2     5     4    1
     3    10     4    1
     4    10     6    1
     5     4     3    1
     6     6     1    1
     7     3     9    1
     8     3     2    1
     9     1     2    1
    10     1     7    1
    11     2     8    1
