@<TRIPOS>MOLECULE
3h2w_GLC_A_1.pdb
 12 12 0 0 0
SMALL
GASTEIGER

@<TRIPOS>ATOM
      1  C1       -15.1460   32.8160  -25.8070 C.3   602  GLC602      0.3024
      2  C2       -13.8530   32.2560  -26.4230 C.3   602  GLC602      0.2434
      3  C3       -12.8250   31.8350  -25.3520 C.3   602  GLC602      0.2199
      4  C4       -12.6110   32.9690  -24.3400 C.3   602  GLC602      0.2144
      5  C5       -13.9350   33.5960  -23.8420 C.3   602  GLC602      0.1836
      6  C6       -13.7140   34.8260  -22.9390 C.3   602  GLC602      0.2142
      7  O1       -15.8580   31.7710  -25.1420 O.3   602  GLC602     -0.1869
      8  O2       -14.2110   31.1820  -27.2610 O.3   602  GLC602     -0.2148
      9  O3       -11.5630   31.4690  -25.8940 O.3   602  GLC602     -0.2174
     10  O4       -11.7930   32.4940  -23.2850 O.3   602  GLC602     -0.2176
     11  O5       -14.8310   33.8970  -24.9280 O.3   602  GLC602     -0.3236
     12  O6       -13.3870   36.0170  -23.6290 O.3   602  GLC602     -0.2176
@<TRIPOS>BOND
     1     8     2    1
     2     2     1    1
     3     2     3    1
     4     9     3    1
     5     1     7    1
     6     1    11    1
     7     3     4    1
     8    11     5    1
     9     4     5    1
    10     4    10    1
    11     5     6    1
    12    12     6    1
