@<TRIPOS>MOLECULE
3h2y_DGI_A_1.pdb
 27 29 0 0 0
SMALL
GASTEIGER

@<TRIPOS>ATOM
      1  O1B       -5.0690   -4.4260    8.9820 O.2   369  DGI369     -0.2221
      2  PB        -5.7550   -3.5930   10.0240 P.3   369  DGI369      0.5373
      3  O2B       -5.1370   -2.2150   10.0910 O.3   369  DGI369     -0.1143
      4  O3B       -7.2290   -3.4410    9.7440 O.3   369  DGI369     -0.1143
      5  O3A       -5.6640   -4.2900   11.4760 O.3   369  DGI369     -0.2261
      6  PA        -4.5350   -5.3280   11.9480 P.3   369  DGI369      0.2231
      7  O1A       -3.1500   -4.8680   11.5740 O.3   369  DGI369     -0.4370
      8  O2A       -4.7810   -6.7320   11.4790 O.2   369  DGI369     -0.5169
      9  O5'       -4.8050   -5.2670   13.5250 O.3   369  DGI369     -0.3111
     10  C5'       -4.7750   -3.9940   14.1730 C.3   369  DGI369      0.1812
     11  C4'       -4.5040   -4.1900   15.6590 C.3   369  DGI369      0.1772
     12  O4'       -5.6210   -4.8510   16.2520 O.3   369  DGI369     -0.3347
     13  C3'       -3.2850   -5.0610   15.8950 C.3   369  DGI369      0.1857
     14  O3'       -2.5430   -4.5230   17.0010 O.3   369  DGI369     -0.2203
     15  C2'       -3.8320   -6.4260   16.2590 C.3   369  DGI369      0.0865
     16  C1'       -5.2150   -6.0990   16.8110 C.3   369  DGI369      0.1981
     17  N9        -6.2210   -7.1450   16.5220 N.pl3 369  DGI369     -0.2374
     18  C8        -6.5380   -7.6870   15.3270 C.3   369  DGI369      0.2245
     19  N7        -7.5150   -8.6120   15.4700 N.2   369  DGI369     -0.2322
     20  C5        -7.8440   -8.6540   16.7760 C.2   369  DGI369      0.2182
     21  C4        -6.9850   -7.6820   17.4580 C.2   369  DGI369      0.2299
     22  N3        -7.1000   -7.5080   18.8010 N.2   369  DGI369     -0.3074
     23  C2        -7.9960   -8.2320   19.5200 C.1   369  DGI369      0.2531
     24  N2        -8.0620   -8.0260   20.8630 N.pl3 369  DGI369     -0.0226
     25  N1        -8.8050   -9.1400   18.9490 N.2   369  DGI369     -0.2485
     26  C6        -8.7920   -9.4030   17.6250 C.1   369  DGI369      0.2372
     27  O6        -9.5610  -10.2620   17.1330 O.2   369  DGI369     -0.2069
@<TRIPOS>BOND
     1     1     2    2
     2     4     2    1
     3     2     3    1
     4     2     5    1
     5     5     6    1
     6     8     6    2
     7     7     6    1
     8     6     9    1
     9     9    10    1
    10    10    11    1
    11    18    19    1
    12    18    17    1
    13    19    20    2
    14    11    13    1
    15    11    12    1
    16    13    15    1
    17    13    14    1
    18    12    16    1
    19    15    16    1
    20    17    16    1
    21    17    21    1
    22    20    21    1
    23    20    26    1
    24    27    26    2
    25    21    22    2
    26    26    25    2
    27    22    23    2
    28    25    23    2
    29    23    24    1
