@<TRIPOS>MOLECULE
3h30_RFZ_A_1.pdb
 20 22 0 0 0
SMALL
GASTEIGER

@<TRIPOS>ATOM
      1  C6        18.0160   -2.9300    6.7590 C.2   336  RFZ336      0.0655
      2  C5        18.9360   -3.9750    6.7390 C.2   336  RFZ336      0.0277
      3  C4        19.4540   -4.4220    5.5280 C.2   336  RFZ336      0.0658
      4 CL2        20.5960   -5.7220    5.5180 Cl    336  RFZ336     -0.0816
      5  C3        19.0450   -3.8210    4.3370 C.2   336  RFZ336      0.0520
      6 CL1        19.6730   -4.3670    2.8260 Cl    336  RFZ336     -0.0856
      7  C2        18.1240   -2.7760    4.3580 C.3   336  RFZ336      0.0854
      8  C7        17.6120   -2.3310    5.5740 C.2   336  RFZ336      0.0743
      9  N2        16.7420   -1.3780    5.8940 N.2   336  RFZ336     -0.2507
     10  C1        16.5990   -1.3700    7.2180 C.3   336  RFZ336      0.2213
     11  N1        17.3780   -2.3150    7.7470 N.pl3 336  RFZ336     -0.2620
     12  C1'       17.5060   -2.6470    9.1810 C.3   336  RFZ336      0.2275
     13  O4'       16.4260   -2.0430    9.9320 O.3   336  RFZ336     -0.3325
     14  C4'       16.8820   -1.8890   11.3070 C.3   336  RFZ336      0.1828
     15  C5'       16.5630   -0.4580   11.7490 C.3   336  RFZ336      0.2142
     16  O5'       15.1450   -0.2690   11.7620 O.3   336  RFZ336     -0.2176
     17  C3'       18.4160   -2.1350   11.2660 C.3   336  RFZ336      0.2159
     18  O3'       18.7000   -3.4580   11.7500 O.3   336  RFZ336     -0.2175
     19  C2'       18.7600   -2.0390    9.7780 C.3   336  RFZ336      0.2309
     20  O2'       19.8860   -2.8600    9.4660 O.3   336  RFZ336     -0.2158
@<TRIPOS>BOND
     1     6     5    1
     2     5     7    1
     3     5     3    2
     4     7     8    1
     5     4     3    1
     6     3     2    1
     7     8     9    2
     8     8     1    1
     9     9    10    1
    10     2     1    2
    11     1    11    1
    12    10    11    1
    13    11    12    1
    14    12    19    1
    15    12    13    1
    16    20    19    1
    17    19    17    1
    18    13    14    1
    19    17    14    1
    20    17    18    1
    21    14    15    1
    22    15    16    1
