@<TRIPOS>MOLECULE
3h32_III_M_1.pdb
 45 47 0 0 0
SMALL
GASTEIGER

@<TRIPOS>ATOM
      1  N        225.5380   46.3470  -18.9920 N.3     1  GLY1       -0.1210
      2  CA       226.1340   45.3780  -19.9560 C.3     1  GLY1        0.1956
      3  C        225.2240   45.0140  -21.1200 C.2     1  GLY1        0.2612
      4  O        224.0380   44.7510  -20.9330 O.2     1  GLY1       -0.2717
      5  N        225.7760   45.0070  -22.3290 N.am    2  HIS2       -0.1961
      6  CA       225.0110   44.6670  -23.5310 C.3     2  HIS2        0.1784
      7  C        225.5130   43.3180  -24.0480 C.2     2  HIS2        0.2620
      8  O        226.4260   42.7380  -23.4620 O.2     2  HIS2       -0.2715
      9  CB       225.2330   45.7310  -24.6060 C.3     2  HIS2        0.0745
     10  CG       226.6690   45.8930  -24.9950 C.2     2  HIS2        0.0653
     11  ND1      227.6280   46.3420  -24.1120 N.2     2  HIS2       -0.2310
     12  CD2      227.3190   45.6120  -26.1500 C.3     2  HIS2        0.1683
     13  CE1      228.8080   46.3240  -24.7050 C.2     2  HIS2        0.1939
     14  NE2      228.6490   45.8840  -25.9410 N.2     2  HIS2       -0.2440
     15  N        224.9290   42.8150  -25.1340 N.am    3  ARG3       -0.1964
     16  CA       225.3810   41.5400  -25.6970 C.3     3  ARG3        0.1714
     17  C        225.3600   41.5110  -27.2210 C.2     3  ARG3        0.2458
     18  O        224.3010   41.4000  -27.8230 O.2     3  ARG3       -0.2730
     19  CB       224.5400   40.3820  -25.1830 C.3     3  ARG3        0.0347
     20  CG       224.6190   40.1570  -23.6950 C.3     3  ARG3        0.0492
     21  CD       226.0310   39.9280  -23.2020 C.3     3  ARG3        0.2205
     22  NE       225.9910   39.0430  -22.0450 N.pl3   3  ARG3       -0.0865
     23  CZ       225.5140   39.3670  -20.8460 C.cat   3  ARG3        0.5346
     24  NH1      225.0360   40.5840  -20.6070 N.pl3   3  ARG3        0.1354
     25  NH2      225.4770   38.4470  -19.8910 N.pl3   3  ARG3        0.1354
     26  N        226.5430   41.5630  -27.8580 N.am    4  PRO4       -0.2716
     27  CA       226.7080   41.5520  -29.3150 C.3     4  PRO4        0.1536
     28  C        225.9690   40.4320  -30.0150 C.2     4  PRO4        0.2599
     29  O        225.4850   39.5010  -29.3810 O.2     4  PRO4       -0.2715
     30  CB       228.2120   41.4140  -29.4900 C.3     4  PRO4        0.0310
     31  CG       228.7610   42.0400  -28.2700 C.3     4  PRO4        0.0237
     32  CD       227.8610   41.4880  -27.2050 C.3     4  PRO4        0.0939
     33  N        225.9170   40.5220  -31.3380 N.am    5  TYR5       -0.1938
     34  CA       225.2270   39.5250  -32.1410 C.3     5  TYR5        0.2021
     35  C        226.1620   38.7260  -33.0660 C.2     5  TYR5        0.3845
     36  O        226.6130   37.6340  -32.6560 O.co2   5  TYR5       -0.2437
     37  CB       224.1420   40.2090  -32.9840 C.3     5  TYR5        0.0596
     38  CG       223.2150   41.1320  -32.2110 C.ar    5  TYR5       -0.0197
     39  CD1      223.6210   42.4090  -31.8170 C.ar    5  TYR5       -0.0009
     40  CD2      221.9330   40.7150  -31.8530 C.ar    5  TYR5       -0.0009
     41  CE1      222.7670   43.2430  -31.0780 C.ar    5  TYR5        0.0417
     42  CE2      221.0750   41.5400  -31.1160 C.ar    5  TYR5        0.0417
     43  CZ       221.4970   42.7950  -30.7300 C.ar    5  TYR5        0.1957
     44  OH       220.6500   43.5730  -29.9720 O.3     5  TYR5       -0.2866
     45  OXT      226.4400   39.2020  -34.1900 O.co2   5  TYR5       -0.2437
@<TRIPOS>BOND
     1    45    35   ar
     2    35    36   ar
     3    35    34    1
     4    37    38    1
     5    37    34    1
     6    38    40   ar
     7    38    39   ar
     8    34    33    1
     9    40    42   ar
    10    39    41   ar
    11    33    28   am
    12    42    43   ar
    13    41    43   ar
    14    43    44    1
    15    28    29    2
    16    28    27    1
    17    30    27    1
    18    30    31    1
    19    27    26    1
    20    31    32    1
    21    26    17   am
    22    26    32    1
    23    18    17    2
    24    17    16    1
    25    12    14    1
    26    12    10    1
    27    14    13    2
    28    16    19    1
    29    16    15    1
    30    19    20    1
    31    15     7   am
    32    10     9    1
    33    10    11    2
    34    13    11    1
    35     9     6    1
    36     7     6    1
    37     7     8    2
    38    20    21    1
    39     6     5    1
    40    21    22    1
    41     5     3   am
    42    22    23    2
    43     3     4    2
    44     3     2    1
    45    23    24    1
    46    23    25    1
    47     2     1    1
