@<TRIPOS>MOLECULE
3h33_HEM_A_1.pdb
 43 50 0 0 0
SMALL
GASTEIGER

@<TRIPOS>ATOM
      1  CHA       21.5360   17.6840    2.8580 C.2    75  HEM75       0.0000
      2  CHB       18.2090   16.7980    6.1950 C.2    75  HEM75       0.0000
      3  CHC       20.7360   13.0710    7.7520 C.2    75  HEM75       0.0000
      4  CHD       24.4510   14.7250    5.1830 C.2    75  HEM75       0.0000
      5  C1A       20.3200   17.6200    3.5070 C.2    75  HEM75       0.0000
      6  C2A       19.2280   18.5460    3.2310 C.2    75  HEM75       0.0000
      7  C3A       18.3430   18.3940    4.2510 C.2    75  HEM75       0.0000
      8  C4A       18.8740   17.3330    5.1040 C.2    75  HEM75       0.0000
      9  CMA       17.0780   19.2090    4.5120 C.3    75  HEM75       0.0000
     10  CAA       19.1870   19.5510    2.0660 C.3    75  HEM75       0.0000
     11  CBA       19.8790   20.8550    2.4380 C.3    75  HEM75       0.0000
     12  CGA       19.9730   21.8370    1.2760 C.2    75  HEM75       0.0000
     13  O1A       19.3170   21.6140    0.2310 O.co2  75  HEM75       0.0000
     14  O2A       20.7050   22.8430    1.4190 O.co2  75  HEM75       0.0000
     15  C1B       18.6110   15.7280    6.9520 C.ar   75  HEM75       0.0000
     16  C2B       17.8160   15.0900    7.9890 C.ar   75  HEM75       0.0000
     17  C3B       18.4930   13.9750    8.3680 C.ar   75  HEM75       0.0000
     18  C4B       19.7090   13.9700    7.5940 C.ar   75  HEM75       0.0000
     19  CMB       16.4680   15.5860    8.5090 C.3    75  HEM75       0.0000
     20  CAB       18.1120   12.9040    9.3980 C.3    75  HEM75       0.0000
     21  CBB       16.7520   12.2570    9.2120 C.3    75  HEM75       0.0000
     22  C1C       21.9730   13.1680    7.1400 C.2    75  HEM75       0.0000
     23  C2C       23.1150   12.3120    7.4500 C.2    75  HEM75       0.0000
     24  C3C       24.1770   12.8100    6.7830 C.2    75  HEM75       0.0000
     25  C4C       23.6760   13.9680    6.0480 C.2    75  HEM75       0.0000
     26  CMC       23.1250   11.1410    8.4320 C.3    75  HEM75       0.0000
     27  CAC       25.6430   12.3920    6.9220 C.3    75  HEM75       0.0000
     28  CBC       25.9360   10.9640    6.4890 C.3    75  HEM75       0.0000
     29  C1D       24.0060   15.7130    4.3330 C.ar   75  HEM75       0.0000
     30  C2D       24.8190   16.3980    3.3570 C.ar   75  HEM75       0.0000
     31  C3D       23.9890   17.2340    2.6640 C.ar   75  HEM75       0.0000
     32  C4D       22.6720   17.0130    3.2380 C.ar   75  HEM75       0.0000
     33  CMD       26.3230   16.2260    3.1860 C.3    75  HEM75       0.0000
     34  CAD       24.3430   18.3280    1.6610 C.3    75  HEM75       0.0000
     35  CBD       24.6230   19.6320    2.4100 C.3    75  HEM75       0.0000
     36  CGD       24.8470   20.8190    1.4810 C.2    75  HEM75       0.0000
     37  O1D       25.1470   21.9230    1.9820 O.co2  75  HEM75       0.0000
     38  O2D       24.7250   20.6510    0.2530 O.co2  75  HEM75       0.0000
     39  NA        20.0890   16.8770    4.6410 N.2    75  HEM75       0.0000
     40  NB        19.7720   15.0440    6.7280 N.ar   75  HEM75       0.0000
     41  NC        22.3310   14.1760    6.2770 N.2    75  HEM75       0.0000
     42  ND        22.7020   16.1080    4.2720 N.ar   75  HEM75       0.0000
     43 FE         21.2180   15.5240    5.4840 Fe     75  HEM75       0.0000
@<TRIPOS>BOND
     1    13    12   ar
     2    38    36   ar
     3    12    14   ar
     4    12    11    1
     5    36    37   ar
     6    36    35    1
     7    34    35    1
     8    34    31    1
     9    10    11    1
    10    10     6    1
    11    31    32   ar
    12    31    30   ar
    13     1    32    2
    14     1     5    1
    15    33    30    1
    16     6     5    1
    17     6     7    2
    18    32    42   ar
    19    30    29   ar
    20     5    39    2
    21     7     9    1
    22     7     8    1
    23    42    29   ar
    24    42    43    1
    25    29     4    2
    26    39     8    1
    27    39    43    1
    28     8     2    2
    29     4    25    1
    30    43    41    1
    31    43    40    1
    32    25    41    2
    33    25    24    1
    34     2    15    1
    35    41    22    1
    36    28    27    1
    37    40    15   ar
    38    40    18   ar
    39    24    27    1
    40    24    23    2
    41    15    16   ar
    42    22    23    1
    43    22     3    2
    44    23    26    1
    45    18     3    1
    46    18    17   ar
    47    16    17   ar
    48    16    19    1
    49    17    20    1
    50    21    20    1
