@<TRIPOS>MOLECULE
3h34_HEM_A_1.pdb
 43 50 0 0 0
SMALL
GASTEIGER

@<TRIPOS>ATOM
      1  CHA        2.3350   16.0750    3.5150 C.2    72  HEM72       0.0000
      2  CHB        1.1130   20.7610    3.5770 C.2    72  HEM72       0.0000
      3  CHC        5.7540   21.9630    2.7390 C.2    72  HEM72       0.0000
      4  CHD        6.7520   17.3030    1.9150 C.2    72  HEM72       0.0000
      5  C1A        1.6380   17.2610    3.6910 C.2    72  HEM72       0.0000
      6  C2A        0.2180   17.3160    3.9710 C.2    72  HEM72       0.0000
      7  C3A       -0.1180   18.6240    3.9350 C.2    72  HEM72       0.0000
      8  C4A        1.0660   19.3770    3.6360 C.2    72  HEM72       0.0000
      9  CMA       -1.5080   19.1990    4.1610 C.3    72  HEM72       0.0000
     10  CAA       -0.7290   16.1370    4.1600 C.3    72  HEM72       0.0000
     11  CBA       -0.8120   15.6680    5.6000 C.3    72  HEM72       0.0000
     12  CGA       -1.7150   14.4620    5.7640 C.2    72  HEM72       0.0000
     13  O1A       -1.3640   13.3790    5.2500 O.co2  72  HEM72       0.0000
     14  O2A       -2.7800   14.6000    6.4020 O.co2  72  HEM72       0.0000
     15  C1B        2.2780   21.4770    3.3110 C.ar   72  HEM72       0.0000
     16  C2B        2.3190   22.9220    3.2190 C.ar   72  HEM72       0.0000
     17  C3B        3.6230   23.2670    3.0280 C.ar   72  HEM72       0.0000
     18  C4B        4.3790   22.0310    2.9690 C.ar   72  HEM72       0.0000
     19  CMB        1.1140   23.8660    3.2750 C.3    72  HEM72       0.0000
     20  CAB        4.1760   24.6810    2.8380 C.3    72  HEM72       0.0000
     21  CBB        3.9970   25.6020    4.0410 C.3    72  HEM72       0.0000
     22  C1C        6.4350   20.7760    2.5290 C.2    72  HEM72       0.0000
     23  C2C        7.8290   20.7260    2.1030 C.2    72  HEM72       0.0000
     24  C3C        8.1060   19.4230    1.8440 C.2    72  HEM72       0.0000
     25  C4C        6.8810   18.6780    2.0930 C.2    72  HEM72       0.0000
     26  CMC        8.7530   21.9240    1.9040 C.3    72  HEM72       0.0000
     27  CAC        9.4000   18.8400    1.2570 C.3    72  HEM72       0.0000
     28  CBC       10.6940   19.2340    1.9640 C.3    72  HEM72       0.0000
     29  C1D        5.6030   16.5860    2.2410 C.ar   72  HEM72       0.0000
     30  C2D        5.5390   15.1490    2.1980 C.ar   72  HEM72       0.0000
     31  C3D        4.3250   14.7980    2.6870 C.ar   72  HEM72       0.0000
     32  C4D        3.6450   16.0190    3.0530 C.ar   72  HEM72       0.0000
     33  CMD        6.6360   14.2090    1.6800 C.3    72  HEM72       0.0000
     34  CAD        3.7570   13.3940    2.7330 C.3    72  HEM72       0.0000
     35  CBD        2.9260   13.1000    1.4880 C.3    72  HEM72       0.0000
     36  CGD        2.3610   11.6920    1.4780 C.2    72  HEM72       0.0000
     37  O1D        1.6010   11.3650    0.5460 O.co2  72  HEM72       0.0000
     38  O2D        2.6760   10.9120    2.4000 O.co2  72  HEM72       0.0000
     39  NA         2.1530   18.5390    3.4630 N.2    72  HEM72       0.0000
     40  NB         3.5500   20.9270    3.1120 N.ar   72  HEM72       0.0000
     41  NC         5.8650   19.5090    2.5400 N.2    72  HEM72       0.0000
     42  ND         4.4260   17.1270    2.7650 N.ar   72  HEM72       0.0000
     43 FE          4.0080   19.0290    3.0020 Fe     72  HEM72       0.0000
@<TRIPOS>BOND
     1    37    36   ar
     2    27    24    1
     3    27    28    1
     4    36    35    1
     5    36    38   ar
     6    35    34    1
     7    33    30    1
     8    24    25    1
     9    24    23    2
    10    26    23    1
    11     4    25    1
    12     4    29    2
    13    25    41    2
    14    23    22    1
    15    30    29   ar
    16    30    31   ar
    17    29    42   ar
    18    22    41    1
    19    22     3    2
    20    41    43    1
    21    31    34    1
    22    31    32   ar
    23     3    18    1
    24    42    43    1
    25    42    32   ar
    26    20    17    1
    27    20    21    1
    28    18    17   ar
    29    18    40   ar
    30    43    40    1
    31    43    39    1
    32    17    16   ar
    33    32     1    2
    34    40    15   ar
    35    16    19    1
    36    16    15   ar
    37    15     2    1
    38    39     8    1
    39    39     5    2
    40     1     5    1
    41     2     8    2
    42     8     7    1
    43     5     6    1
    44     7     6    2
    45     7     9    1
    46     6    10    1
    47    10    11    1
    48    13    12   ar
    49    11    12    1
    50    12    14   ar
