@<TRIPOS>MOLECULE
3h39_ATP_A_1.pdb
 31 33 0 0 0
SMALL
GASTEIGER

@<TRIPOS>ATOM
      1  PG        49.4870   24.2190   82.1990 P.3   501  ATP501      0.5373
      2  O1G       49.8460   23.1590   83.1960 O.3   501  ATP501     -0.1143
      3  O2G       50.5990   24.9500   81.4870 O.2   501  ATP501     -0.2221
      4  O3G       48.4000   25.1240   82.7190 O.3   501  ATP501     -0.1143
      5  PB        47.6000   22.4590   81.1840 P.3   501  ATP501      0.2277
      6  O1B       47.9830   21.0190   80.9900 O.2   501  ATP501     -0.5168
      7  O2B       46.8290   22.9030   82.4120 O.3   501  ATP501     -0.4368
      8  O3B       48.8830   23.3890   80.9760 O.3   501  ATP501     -0.2258
      9  PA        45.9800   24.3050   79.8020 P.3   501  ATP501      0.2189
     10  O1A       45.3780   24.5790   81.1520 O.3   501  ATP501     -0.4371
     11  O2A       46.8760   25.3360   79.1620 O.2   501  ATP501     -0.5170
     12  O3A       46.8320   22.9450   79.8760 O.3   501  ATP501     -0.2700
     13  O5'       44.8450   23.6430   78.8730 O.3   501  ATP501     -0.3112
     14  C5'       44.2800   22.4490   79.4290 C.3   501  ATP501      0.1813
     15  C4'       44.1870   21.2910   78.4610 C.3   501  ATP501      0.1821
     16  O4'       43.7740   21.8470   77.2310 O.3   501  ATP501     -0.3135
     17  C3'       45.4990   20.6040   78.1270 C.3   501  ATP501      0.2184
     18  O3'       45.7890   19.5360   79.0260 O.3   501  ATP501     -0.2174
     19  C2'       45.2950   20.1380   76.6930 C.3   501  ATP501      0.2570
     20  O2'       44.5520   18.9260   76.6520 O.3   501  ATP501     -0.2130
     21  C1'       44.3500   21.1620   76.1310 C.3   501  ATP501      0.3186
     22  N9        45.0050   22.2400   75.3850 N.pl3 501  ATP501     -0.1439
     23  C8        45.3220   23.4430   75.8900 C.3   501  ATP501      0.3377
     24  N7        45.8810   24.2270   74.9220 N.2   501  ATP501     -0.2095
     25  C5        45.9230   23.5230   73.7710 C.2   501  ATP501      0.2526
     26  C6        46.3960   23.7360   72.3880 C.2   501  ATP501      0.4393
     27  N6        46.9580   24.8790   71.9780 N.pl3 501  ATP501      0.2180
     28  N1        46.2510   22.7260   71.5190 N.2   501  ATP501      0.0021
     29  C2        45.6990   21.5460   71.8810 C.3   501  ATP501      0.5254
     30  N3        45.2640   21.2630   73.1190 N.2   501  ATP501     -0.0055
     31  C4        45.3330   22.2070   74.0890 C.2   501  ATP501      0.3518
@<TRIPOS>BOND
     1    28    29    1
     2    28    26    2
     3    29    30    1
     4    27    26    1
     5    26    25    1
     6    30    31    2
     7    25    31    1
     8    25    24    2
     9    31    22    1
    10    24    23    1
    11    22    23    1
    12    22    21    1
    13    21    19    1
    14    21    16    1
    15    20    19    1
    16    19    17    1
    17    16    15    1
    18    17    15    1
    19    17    18    1
    20    15    14    1
    21    13    14    1
    22    13     9    1
    23    11     9    2
    24     9    12    1
    25     9    10    1
    26    12     5    1
    27     8     5    1
    28     8     1    1
    29     6     5    2
    30     5     7    1
    31     3     1    2
    32     1     4    1
    33     1     2    1
