@<TRIPOS>MOLECULE
3h3a_CTP_A_1.pdb
 29 30 0 0 0
SMALL
GASTEIGER

@<TRIPOS>ATOM
      1  N1        25.5060    2.7060   40.9890 N.am  501  CTP501     -0.1778
      2  C2        24.8480    1.5220   41.2950 C.1   501  CTP501      0.2756
      3  N3        24.6160    1.1500   42.6080 N.2   501  CTP501     -0.3024
      4  C4        24.8790    2.0500   43.6230 C.2   501  CTP501      0.2346
      5  C5        25.5170    3.2570   43.3220 C.2   501  CTP501      0.0687
      6  C6        25.8620    3.5600   42.0010 C.2   501  CTP501      0.0836
      7  O2        24.4650    0.7970   40.3840 O.2   501  CTP501     -0.1925
      8  N4        24.5260    1.7620   44.8720 N.pl3 501  CTP501     -0.0921
      9  C1'       25.9940    2.9390   39.6110 C.3   501  CTP501      0.2400
     10  C2'       24.9350    3.6490   38.7950 C.3   501  CTP501      0.2319
     11  O2'       25.0230    3.1440   37.4880 O.3   501  CTP501     -0.2157
     12  C3'       25.3780    5.0940   38.7880 C.3   501  CTP501      0.2158
     13  C4'       26.8890    4.9680   38.9060 C.3   501  CTP501      0.1799
     14  O4'       27.1220    3.7900   39.6490 O.3   501  CTP501     -0.3320
     15  O3'       24.9650    5.7560   37.6160 O.3   501  CTP501     -0.2175
     16  C5'       27.5660    6.1600   39.5760 C.3   501  CTP501      0.1813
     17  O5'       27.1930    6.3160   40.9270 O.3   501  CTP501     -0.3112
     18  PA        26.7080    7.7940   41.3220 P.3   501  CTP501      0.2189
     19  O1A       27.9360    8.6460   41.1250 O.2   501  CTP501     -0.5170
     20  O2A       26.1420    8.0030   42.7210 O.3   501  CTP501     -0.4371
     21  O3A       25.6040    8.0400   40.1650 O.3   501  CTP501     -0.2700
     22  PB        24.6670    9.3450   40.1580 P.3   501  CTP501      0.2277
     23  O1B       23.4430    9.0920   40.9900 O.3   501  CTP501     -0.4368
     24  O2B       24.3030    9.8040   38.7700 O.2   501  CTP501     -0.5168
     25  O3B       25.6090   10.4180   40.8980 O.3   501  CTP501     -0.2258
     26  PG        24.9690   11.1490   42.1710 P.3   501  CTP501      0.5373
     27  O1G       23.6820   11.7390   41.6450 O.2   501  CTP501     -0.2221
     28  O2G       24.7850   10.0990   43.2600 O.3   501  CTP501     -0.1143
     29  O3G       25.8740   12.2560   42.6740 O.3   501  CTP501     -0.1143
@<TRIPOS>BOND
     1    11    10    1
     2    15    12    1
     3    24    22    2
     4    12    10    1
     5    12    13    1
     6    10     9    1
     7    13    16    1
     8    13    14    1
     9    16    17    1
    10     9    14    1
    11     9     1    1
    12    22    21    1
    13    22    25    1
    14    22    23    1
    15    21    18    1
    16     7     2    2
    17    25    26    1
    18    17    18    1
    19     1     2   am
    20     1     6    1
    21    19    18    2
    22     2     3    2
    23    18    20    1
    24    27    26    2
    25     6     5    2
    26    26    29    1
    27    26    28    1
    28     3     4    2
    29     5     4    1
    30     4     8    1
