@<TRIPOS>MOLECULE
3h3c_P1E_A_1.pdb
 31 33 0 0 0
SMALL
GASTEIGER

@<TRIPOS>ATOM
      1  C4        16.9110  -10.3060    1.1380 C.ar  999  P1E999      0.0827
      2  C6        18.8950  -10.7860    2.4290 C.ar  999  P1E999      0.0213
      3  C9        14.6980   -9.5710    2.0190 C.1   999  P1E999      0.1709
      4  C13       12.5790   -8.7150    2.4970 C.2   999  P1E999      0.1196
      5  F22       12.2010   -7.7260    5.7620 F     999  P1E999     -0.1656
      6  C15       11.7480   -8.6460    4.8470 C.3   999  P1E999      0.4237
      7  F16       10.7250   -7.9740    4.2090 F     999  P1E999     -0.1656
      8  F21       11.3180   -9.8180    5.4780 F     999  P1E999     -0.1656
      9  C12       12.8050   -8.9840    3.8250 C.2   999  P1E999      0.1374
     10  N14       13.5630   -9.0200    1.6430 N.2   999  P1E999     -0.1683
     11  C11       14.0260   -9.5520    4.2190 C.2   999  P1E999      0.2174
     12  N8        14.2920   -9.8180    5.5540 N.pl3 999  P1E999     -0.2094
     13  C25       15.5940  -10.3650    5.9030 C.3   999  P1E999      0.1096
     14  C28       15.5630  -11.9050    5.7560 C.3   999  P1E999      0.0231
     15  C31       15.7660  -12.4540    7.1820 C.3   999  P1E999      0.0032
     16  C27       16.3970  -11.3130    8.0170 C.3   999  P1E999      0.0178
     17  C24       15.9710   -9.9870    7.3760 C.3   999  P1E999      0.0775
     18  N26       17.1250   -9.0630    7.4200 N.3   999  P1E999     -0.2700
     19  C30       17.4810   -8.6910    8.8030 C.3   999  P1E999      0.0897
     20  C29       16.7650   -7.7880    6.7900 C.3   999  P1E999      0.0897
     21  N10       14.9340   -9.8600    3.2990 N.2   999  P1E999     -0.3193
     22  N7        15.6110   -9.8330    1.0280 N.pl3 999  P1E999     -0.1357
     23  C5        17.5890  -10.3440    2.3740 C.ar  999  P1E999      0.0187
     24  C3        17.5600  -10.6950   -0.0500 C.ar  999  P1E999      0.0187
     25  C2        18.8740  -11.1500    0.0340 C.ar  999  P1E999      0.0213
     26  C1        19.5570  -11.1970    1.2570 C.ar  999  P1E999      0.1236
     27  S18       21.2710  -11.7650    1.3980 S.O2  999  P1E999      0.0769
     28  O19       21.2630  -13.0550    2.0400 O.2   999  P1E999     -0.1516
     29  O20       21.9290  -11.4690    0.1760 O.2   999  P1E999     -0.1516
     30  N17       21.8560  -10.6820    2.5200 N.3   999  P1E999     -0.0762
     31  C23       22.0240   -9.2280    2.2960 C.3   999  P1E999      0.1362
@<TRIPOS>BOND
     1    24    25   ar
     2    24     1   ar
     3    25    26   ar
     4    29    27    2
     5    22     1    1
     6    22     3    1
     7     1    23   ar
     8    26    27    1
     9    26     2   ar
    10    27    28    2
    11    27    30    1
    12    10     3    2
    13    10     4    1
    14     3    21    2
    15    31    30    1
    16    23     2   ar
    17     4     9    2
    18    21    11    2
    19     9    11    1
    20     9     6    1
    21     7     6    1
    22    11    12    1
    23     6     8    1
    24     6     5    1
    25    12    13    1
    26    14    13    1
    27    14    15    1
    28    13    17    1
    29    20    18    1
    30    15    16    1
    31    17    18    1
    32    17    16    1
    33    18    19    1
