@<TRIPOS>MOLECULE
3h3f_NAI_A_1.pdb
 44 48 0 0 0
SMALL
GASTEIGER

@<TRIPOS>ATOM
      1  PA         8.2960   -0.0960  -28.5600 P.3   332  NAI332      0.2189
      2  O1A        9.0670   -0.2710  -29.8560 O.2   332  NAI332     -0.5170
      3  O2A        6.8980    0.5360  -28.4770 O.3   332  NAI332     -0.4371
      4  O5B        9.3430    0.8790  -27.8090 O.3   332  NAI332     -0.3112
      5  C5B       10.6350    0.3690  -27.4900 C.3   332  NAI332      0.1813
      6  C4B       11.2800    1.6500  -27.0580 C.3   332  NAI332      0.1821
      7  O4B       12.7070    1.5590  -27.1070 O.3   332  NAI332     -0.3135
      8  C3B       10.8590    2.6260  -28.1500 C.3   332  NAI332      0.2184
      9  O3B       10.1660    3.7220  -27.5480 O.3   332  NAI332     -0.2174
     10  C2B       12.1720    3.0360  -28.8200 C.3   332  NAI332      0.2570
     11  O2B       12.2320    4.3710  -29.3640 O.3   332  NAI332     -0.2130
     12  C1B       13.1140    2.8320  -27.6400 C.3   332  NAI332      0.3186
     13  N9A       14.4880    2.7960  -28.1120 N.pl3 332  NAI332     -0.1439
     14  C8A       14.8840    2.2400  -29.2810 C.3   332  NAI332      0.3377
     15  N7A       16.2220    2.3840  -29.4030 N.2   332  NAI332     -0.2095
     16  C5A       16.6560    3.0610  -28.3040 C.2   332  NAI332      0.2526
     17  C6A       17.9190    3.4960  -27.9050 C.2   332  NAI332      0.4393
     18  N6A       18.9510    3.2180  -28.7310 N.pl3 332  NAI332      0.2180
     19  N1A       18.0430    4.1790  -26.7150 N.2   332  NAI332      0.0021
     20  C2A       16.9620    4.4300  -25.9370 C.3   332  NAI332      0.5254
     21  N3A       15.7150    4.0330  -26.3120 N.2   332  NAI332     -0.0055
     22  C4A       15.5470    3.3340  -27.4800 C.2   332  NAI332      0.3518
     23  O3         8.3590   -1.5990  -27.8300 O.3   332  NAI332     -0.2703
     24  PN         7.6840   -2.2660  -26.4770 P.3   332  NAI332      0.2189
     25  O1N        6.3310   -2.9470  -26.7230 O.2   332  NAI332     -0.5170
     26  O2N        7.8900   -1.2810  -25.3320 O.3   332  NAI332     -0.4371
     27  O5D        8.7340   -3.4510  -26.1370 O.3   332  NAI332     -0.3112
     28  C5D        9.8970   -2.9930  -25.4510 C.3   332  NAI332      0.1813
     29  C4D       10.9370   -4.0900  -25.4400 C.3   332  NAI332      0.1799
     30  O4D       10.5830   -4.9650  -24.3700 O.3   332  NAI332     -0.3327
     31  C3D       10.9190   -4.9470  -26.7100 C.3   332  NAI332      0.2158
     32  O3D       12.2580   -5.0710  -27.2130 O.3   332  NAI332     -0.2175
     33  C2D       10.4300   -6.3210  -26.2580 C.3   332  NAI332      0.2309
     34  O2D       11.1540   -7.3780  -26.9070 O.3   332  NAI332     -0.2158
     35  C1D       10.7580   -6.3130  -24.7700 C.3   332  NAI332      0.2263
     36  N1N        9.7680   -7.1220  -24.1090 N.pl3 332  NAI332     -0.2787
     37  C2N       10.1860   -8.1000  -23.3080 C.3   332  NAI332      0.1244
     38  C3N        9.2700   -8.9220  -22.6730 C.2   332  NAI332      0.0544
     39  C7N        9.7440  -10.0150  -21.7670 C.2   332  NAI332      0.2818
     40  O7N        8.8690  -10.5450  -20.9070 O.2   332  NAI332     -0.2670
     41  N7N       10.9520  -10.4300  -21.8320 N.am  332  NAI332     -0.0839
     42  C4N        7.9100   -8.7030  -22.8940 C.2   332  NAI332      0.0033
     43  C5N        7.5120   -7.6670  -23.7600 C.2   332  NAI332      0.0157
     44  C6N        8.4810   -6.8940  -24.3730 C.2   332  NAI332      0.0633
@<TRIPOS>BOND
     1     2     1    2
     2    15    14    1
     3    15    16    2
     4    11    10    1
     5    14    13    1
     6    10     8    1
     7    10    12    1
     8    18    17    1
     9     1     3    1
    10     1    23    1
    11     1     4    1
    12    16    17    1
    13    16    22    1
    14     8     9    1
    15     8     6    1
    16    13    12    1
    17    13    22    1
    18    17    19    2
    19    23    24    1
    20     4     5    1
    21    12     7    1
    22     5     6    1
    23    22    21    2
    24    32    31    1
    25     7     6    1
    26    34    33    1
    27    25    24    2
    28    19    20    1
    29    31    33    1
    30    31    29    1
    31    24    27    1
    32    24    26    1
    33    21    20    1
    34    33    35    1
    35    27    28    1
    36    28    29    1
    37    29    30    1
    38    35    30    1
    39    35    36    1
    40    44    36    1
    41    44    43    2
    42    36    37    1
    43    43    42    1
    44    37    38    1
    45    42    38    2
    46    38    39    1
    47    41    39   am
    48    39    40    2
