@<TRIPOS>MOLECULE
3h3g_MAL_A_1.pdb
 23 24 0 0 0
SMALL
GASTEIGER

@<TRIPOS>ATOM
      1  C1        36.1920   -4.6910  -21.9500 C.3   194  MAL194      0.2695
      2  C2        35.6800   -6.0880  -22.2430 C.3   194  MAL194      0.2406
      3  C3        36.6570   -7.1050  -21.6440 C.3   194  MAL194      0.2198
      4  C4        38.0550   -6.8770  -22.2160 C.3   194  MAL194      0.2144
      5  C5        38.4990   -5.4090  -21.9960 C.3   194  MAL194      0.1835
      6  C6        39.7770   -5.0280  -22.7410 C.3   194  MAL194      0.2142
      7  O1        36.2460   -4.5170  -20.5470 O.3   194  MAL194     -0.3257
      8  O2        34.3860   -6.2680  -21.6980 O.3   194  MAL194     -0.2149
      9  O3        36.2360   -8.4120  -21.9510 O.3   194  MAL194     -0.2174
     10  O4        38.9170   -7.8140  -21.5980 O.3   194  MAL194     -0.2176
     11  O5        37.4990   -4.5150  -22.4680 O.3   194  MAL194     -0.3256
     12  O6        40.2370   -3.7750  -22.2590 O.3   194  MAL194     -0.2176
     13  C1'       34.8520   -1.6460  -17.8110 C.3   194  MAL194      0.3023
     14  C2'       33.8340   -2.2580  -18.7780 C.3   194  MAL194      0.2433
     15  C3'       34.3550   -3.5280  -19.4600 C.3   194  MAL194      0.2168
     16  C4'       35.7590   -3.3100  -20.0150 C.3   194  MAL194      0.1804
     17  C5'       36.6840   -2.8680  -18.8970 C.3   194  MAL194      0.1804
     18  C6'       38.0390   -2.4710  -19.4650 C.3   194  MAL194      0.2141
     19  O1'       34.8470   -2.3390  -16.6060 O.3   194  MAL194     -0.1869
     20  O2'       32.6260   -2.5710  -18.1030 O.3   194  MAL194     -0.2148
     21  O3'       33.4750   -3.8200  -20.5200 O.3   194  MAL194     -0.2175
     22  O5'       36.1870   -1.6940  -18.2920 O.3   194  MAL194     -0.3237
     23  O6'       38.9050   -2.3980  -18.3740 O.3   194  MAL194     -0.2176
@<TRIPOS>BOND
     1     6    12    1
     2     6     5    1
     3    11     5    1
     4    11     1    1
     5     2     1    1
     6     2     8    1
     7     2     3    1
     8     4     5    1
     9     4     3    1
    10     4    10    1
    11     9     3    1
    12     1     7    1
    13     7    16    1
    14    21    15    1
    15    16    15    1
    16    16    17    1
    17    18    17    1
    18    18    23    1
    19    15    14    1
    20    17    22    1
    21    14    20    1
    22    14    13    1
    23    22    13    1
    24    13    19    1
