@<TRIPOS>MOLECULE
3h3h_UNL_B_1.pdb
 14 6 0 0 0
SMALL
GASTEIGER

@<TRIPOS>ATOM
      1  O1        16.9270   -3.1090   34.0430 O.3   122  UNL122      0.0000
      2  O2        18.2530   -3.8800   33.8100 O.3   122  UNL122      0.0000
      3  O3        19.5070   -2.9530   33.7950 O.3   122  UNL122      0.0000
      4  O4        18.1980   -4.4450   32.3320 O.3   122  UNL122      0.0000
      5  O5        16.9110   -5.5930   31.9930 O.3   122  UNL122      0.0000
      6  O6        17.1760   -5.9660   30.8850 O.3   122  UNL122      0.0000
      7  O7        20.3190   -8.2890   35.2020 O.3   122  UNL122      0.0000
      8  O8        16.0760   -5.5500   32.8140 O.3   122  UNL122      0.0000
      9  O9        18.4700   -5.0960   34.8390 O.3   122  UNL122      0.0000
     10  O10       18.7200   -9.1860   35.3560 O.3   122  UNL122      0.0000
     11  O11       19.7780   -6.6160   35.5160 O.3   122  UNL122      0.0000
     12  O12       16.3780   -7.9780   35.7940 O.3   122  UNL122      0.0000
     13  O13       18.0350   -7.9080   35.5410 O.3   122  UNL122      0.0000
     14  O14       15.7930  -10.2880   35.0050 O.3   122  UNL122      0.0000
@<TRIPOS>BOND
     1     6     5    1
     2     5     8    1
     3     3     2    1
     4     2     1    1
     5    10    13    1
     6    13    12    1
