@<TRIPOS>MOLECULE
3h3j_NAD_A_1.pdb
 44 48 0 0 0
SMALL
GASTEIGER

@<TRIPOS>ATOM
      1  PA       -33.9720   -8.1240   -5.5140 P.3   500  NAD500      0.2189
      2  O1A      -34.4530   -8.3580   -4.1090 O.3   500  NAD500     -0.4371
      3  O2A      -34.4240   -6.8990   -6.2100 O.2   500  NAD500     -0.5170
      4  O5B      -34.3540   -9.3800   -6.3730 O.3   500  NAD500     -0.3112
      5  C5B      -34.0400  -10.7080   -6.0070 C.3   500  NAD500      0.1813
      6  C4B      -34.9250  -11.6430   -6.8300 C.3   500  NAD500      0.1821
      7  O4B      -34.4830  -13.0090   -6.6150 O.3   500  NAD500     -0.3135
      8  C3B      -36.4080  -11.5890   -6.3660 C.3   500  NAD500      0.2184
      9  O3B      -37.2780  -11.4790   -7.5000 O.3   500  NAD500     -0.2174
     10  C2B      -36.6070  -12.9550   -5.7290 C.3   500  NAD500      0.2570
     11  O2B      -37.9490  -13.4060   -5.9060 O.3   500  NAD500     -0.2130
     12  C1B      -35.6990  -13.7650   -6.6260 C.3   500  NAD500      0.3186
     13  N9A      -35.4870  -15.0850   -6.0660 N.pl3 500  NAD500     -0.1439
     14  C8A      -35.0970  -15.3210   -4.6820 C.3   500  NAD500      0.3377
     15  N7A      -35.0180  -16.7790   -4.6730 N.2   500  NAD500     -0.2095
     16  C5A      -35.3480  -17.2530   -5.8620 C.2   500  NAD500      0.2526
     17  C6A      -35.3980  -18.5450   -6.3230 C.2   500  NAD500      0.4393
     18  N6A      -35.1270  -19.5220   -5.4640 N.pl3 500  NAD500      0.2180
     19  N1A      -35.7650  -18.8460   -7.6310 N.2   500  NAD500      0.0021
     20  C2A      -36.1190  -17.8070   -8.6310 C.3   500  NAD500      0.5254
     21  N3A      -35.9980  -16.4580   -8.0650 N.2   500  NAD500     -0.0055
     22  C4A      -35.6220  -16.2180   -6.7260 C.2   500  NAD500      0.3518
     23  O3       -32.3680   -8.2680   -5.4850 O.3   500  NAD500     -0.2703
     24  PN       -31.4090   -7.5270   -6.5710 P.3   500  NAD500      0.2189
     25  O1N      -31.2430   -6.1300   -6.1980 O.3   500  NAD500     -0.4371
     26  O2N      -31.9530   -7.8420   -7.9250 O.2   500  NAD500     -0.5170
     27  O5D      -30.0520   -8.3470   -6.3210 O.3   500  NAD500     -0.3112
     28  C5D      -29.9200   -9.6700   -6.7610 C.3   500  NAD500      0.1813
     29  C4D      -28.5420  -10.2070   -6.3730 C.3   500  NAD500      0.1799
     30  O4D      -27.5580   -9.4970   -7.1530 O.3   500  NAD500     -0.3327
     31  C3D      -28.1910   -9.9260   -4.8980 C.3   500  NAD500      0.2158
     32  O3D      -27.4310  -11.0110   -4.4260 O.3   500  NAD500     -0.2175
     33  C2D      -27.2540   -8.7550   -4.9990 C.3   500  NAD500      0.2309
     34  O2D      -26.3220   -8.7790   -3.9080 O.3   500  NAD500     -0.2158
     35  C1D      -26.5080   -9.1650   -6.2630 C.3   500  NAD500      0.2263
     36  N1N      -25.8260   -8.0190   -6.8930 N.pl3 500  NAD500     -0.2787
     37  C2N      -24.6230   -8.2310   -7.5410 C.3   500  NAD500      0.1244
     38  C3N      -23.9750   -7.1780   -8.1460 C.2   500  NAD500      0.0544
     39  C7N      -22.6680   -7.4450   -8.8570 C.2   500  NAD500      0.2818
     40  O7N      -21.9350   -6.4340   -9.3490 O.2   500  NAD500     -0.2670
     41  N7N      -22.3550   -8.7250   -9.0880 N.am  500  NAD500     -0.0839
     42  C4N      -24.5180   -5.8880   -8.1270 C.2   500  NAD500      0.0033
     43  C5N      -25.7430   -5.6890   -7.4950 C.2   500  NAD500      0.0157
     44  C6N      -26.4040   -6.7450   -6.8870 C.2   500  NAD500      0.0633
@<TRIPOS>BOND
     1    40    39    2
     2    41    39   am
     3    39    38    1
     4    20    21    1
     5    20    19    1
     6    38    42    2
     7    38    37    1
     8    42    43    1
     9    21    22    2
    10    26    24    2
    11    19    17    2
    12    37    36    1
    13     9     8    1
    14    43    44    2
    15    30    29    1
    16    30    35    1
    17    36    44    1
    18    36    35    1
    19     6     7    1
    20     6     8    1
    21     6     5    1
    22    28    29    1
    23    28    27    1
    24    22    13    1
    25    22    16    1
    26    12     7    1
    27    12    13    1
    28    12    10    1
    29    24    27    1
    30    24    25    1
    31    24    23    1
    32     4     5    1
    33     4     1    1
    34    29    31    1
    35     8    10    1
    36    17    16    1
    37    17    18    1
    38    35    33    1
    39     3     1    2
    40    13    14    1
    41    11    10    1
    42    16    15    2
    43     1    23    1
    44     1     2    1
    45    33    31    1
    46    33    34    1
    47    31    32    1
    48    14    15    1
