@<TRIPOS>MOLECULE
3h3k_BGC_A_1.pdb
 11 11 0 0 0
SMALL
GASTEIGER

@<TRIPOS>ATOM
      1  C2        -9.3840   32.9560  -22.3470 C.3   603  BGC603      0.2141
      2  C3        -8.1040   33.7590  -22.1650 C.3   603  BGC603      0.2173
      3  C4        -7.2380   33.7060  -23.4180 C.3   603  BGC603      0.2142
      4  C5        -8.0460   33.9460  -24.6940 C.3   603  BGC603      0.1810
      5  C6        -7.2050   33.6650  -25.9380 C.3   603  BGC603      0.2141
      6  C1       -10.0850   33.3960  -23.6250 C.3   603  BGC603      0.1777
      7  O2       -10.2300   33.1450  -21.2280 O.3   603  BGC603     -0.2176
      8  O3        -7.3860   33.2770  -21.0450 O.3   603  BGC603     -0.2175
      9  O4        -6.3120   34.7660  -23.3370 O.3   603  BGC603     -0.2176
     10  O5        -9.2440   33.1960  -24.7410 O.3   603  BGC603     -0.3481
     11  O6        -7.3380   32.3130  -26.3200 O.3   603  BGC603     -0.2176
@<TRIPOS>BOND
     1    11     5    1
     2     5     4    1
     3    10     4    1
     4    10     6    1
     5     4     3    1
     6     6     1    1
     7     3     9    1
     8     3     2    1
     9     1     2    1
    10     1     7    1
    11     2     8    1
