@<TRIPOS>MOLECULE
3h3k_GLC_A_1.pdb
 12 12 0 0 0
SMALL
GASTEIGER

@<TRIPOS>ATOM
      1  C1       -14.5980   32.4490  -26.0370 C.2   604  GLC604      0.3505
      2  C2       -13.3500   32.0290  -26.8010 C.3   604  GLC604      0.2823
      3  C3       -12.2020   31.8460  -25.7960 C.3   604  GLC604      0.2270
      4  C4       -12.1040   33.0300  -24.8010 C.3   604  GLC604      0.2276
      5  C5       -13.4630   33.4040  -24.1890 C.3   604  GLC604      0.2344
      6  C6       -13.4080   34.5840  -23.2110 C.3   604  GLC604      0.2281
      7  O1       -15.6620   31.5090  -25.9160 O.2   604  GLC604     -0.2472
      8  O2       -13.6710   30.8650  -27.5290 O.3   604  GLC604     -0.2082
      9  O3       -10.9830   31.6360  -26.4770 O.3   604  GLC604     -0.2169
     10  O4       -11.2910   32.6330  -23.7180 O.3   604  GLC604     -0.2163
     11  O5       -14.4400   33.6040  -25.2080 O.3   604  GLC604     -0.4450
     12  O6       -12.7300   35.6970  -23.7460 O.3   604  GLC604     -0.2163
@<TRIPOS>BOND
     1     8     2    1
     2     2     1    1
     3     2     3    1
     4     9     3    1
     5     1     7    2
     6     1    11    1
     7     3     4    1
     8    11     5    1
     9     4     5    1
    10     4    10    1
    11     5     6    1
    12    12     6    1
