@<TRIPOS>MOLECULE
3h3q_H13_A_1.pdb
 27 27 0 0 0
SMALL
GASTEIGER

@<TRIPOS>ATOM
      1  O21        8.7150    1.1760   33.6300 O.2   600  H13600     -0.2733
      2  C21        8.3110    1.7260   32.5940 C.2   600  H13600      0.2414
      3  N2         7.4820    1.1870   31.6570 N.am  600  H13600     -0.2044
      4  C2         6.7080   -0.0350   31.8630 C.3   600  H13600      0.1310
      5  C1         5.3860    0.0980   31.1450 C.3   600  H13600      0.2036
      6  O1         5.7220    0.3230   29.7730 O.3   600  H13600     -0.2185
      7  C3         7.4820   -1.2040   31.2180 C.3   600  H13600      0.0618
      8  C4         8.8250   -1.0610   31.9000 C.3   600  H13600      0.1760
      9  C5        10.0990   -0.8420   31.1310 C.ar  600  H13600      0.0077
     10  C6        10.2150   -0.9610   29.7580 C.ar  600  H13600     -0.0018
     11  C7        11.4170   -0.6210   29.1440 C.ar  600  H13600     -0.0002
     12  C8        12.4830   -0.1300   29.8810 C.ar  600  H13600     -0.0000
     13  C9        12.3490    0.0240   31.2700 C.ar  600  H13600     -0.0002
     14  C10       11.1640   -0.3110   31.8590 C.ar  600  H13600     -0.0018
     15  O4         8.8250   -1.6500   33.2110 O.3   600  H13600     -0.2182
     16  C22        8.7420    3.1420   32.3240 C.3   600  H13600      0.0868
     17  C23       10.1980    3.1830   31.9370 C.3   600  H13600      0.0096
     18  C24       10.4960    4.6040   31.4840 C.3   600  H13600      0.0005
     19  C25       11.9430    4.8620   31.0480 C.3   600  H13600      0.0000
     20  C26       12.3820    3.8870   29.9760 C.3   600  H13600      0.0000
     21  C27       13.6630    4.3640   29.3420 C.3   600  H13600      0.0000
     22  C28       13.6010    3.9190   27.8850 C.3   600  H13600      0.0000
     23  C29       14.6760    2.9070   27.4900 C.3   600  H13600      0.0000
     24  C30       14.3650    2.2560   26.1290 C.3   600  H13600      0.0000
     25  C31       13.6630    0.9200   26.3010 C.3   600  H13600      0.0000
     26  C32       14.0770   -0.0890   25.2340 C.3   600  H13600      0.0000
     27  C33       14.0650   -1.5050   25.7920 C.3   600  H13600      0.0000
@<TRIPOS>BOND
     1    26    27    1
     2    26    25    1
     3    24    25    1
     4    24    23    1
     5    23    22    1
     6    22    21    1
     7    11    10   ar
     8    11    12   ar
     9    21    20    1
    10    10     9   ar
    11     6     5    1
    12    12    13   ar
    13    20    19    1
    14    19    18    1
    15     9    14   ar
    16     9     8    1
    17     5     4    1
    18     7     4    1
    19     7     8    1
    20    13    14   ar
    21    18    17    1
    22     3     4    1
    23     3     2   am
    24     8    15    1
    25    17    16    1
    26    16     2    1
    27     2     1    2
