@<TRIPOS>MOLECULE
3h3r_14H_A_1.pdb
 28 28 0 0 0
SMALL
GASTEIGER

@<TRIPOS>ATOM
      1  O21        8.6530    1.2990   33.6910 O.2   600  14H600     -0.2733
      2  C21        8.2230    1.7660   32.6190 C.2   600  14H600      0.2414
      3  N2         7.2830    1.2600   31.7930 N.am  600  14H600     -0.2044
      4  C2         6.5530   -0.0170   31.8410 C.3   600  14H600      0.1310
      5  C1         5.2450    0.1620   31.0620 C.3   600  14H600      0.2036
      6  O1         5.5760    0.4800   29.6920 O.3   600  14H600     -0.2185
      7  C3         7.3500   -1.1480   31.1770 C.3   600  14H600      0.0618
      8  C4         8.6390   -1.0200   31.9500 C.3   600  14H600      0.1760
      9  C5         9.8940   -0.7160   31.2110 C.ar  600  14H600      0.0077
     10  C6         9.9800   -0.7530   29.8190 C.ar  600  14H600     -0.0018
     11  C7        11.1710   -0.3570   29.2150 C.ar  600  14H600     -0.0002
     12  C8        12.2450    0.0740   29.9710 C.ar  600  14H600     -0.0000
     13  C9        12.1500    0.1400   31.3510 C.ar  600  14H600     -0.0002
     14  C10       10.9620   -0.2420   31.9520 C.ar  600  14H600     -0.0018
     15  O4         8.6610   -1.6580   33.2310 O.3   600  14H600     -0.2182
     16  C22        8.6680    3.1380   32.1770 C.3   600  14H600      0.0868
     17  C23       10.1700    3.3330   32.0660 C.3   600  14H600      0.0096
     18  C24       10.3860    4.6790   31.3830 C.3   600  14H600      0.0005
     19  C25       11.8300    4.9970   30.9570 C.3   600  14H600      0.0000
     20  C26       12.2680    4.1810   29.7420 C.3   600  14H600      0.0000
     21  C27       13.7360    4.3940   29.4100 C.3   600  14H600      0.0000
     22  C28       13.9420    3.8920   27.9870 C.3   600  14H600      0.0000
     23  C29       14.9750    2.7840   27.9360 C.3   600  14H600      0.0000
     24  C30       14.9940    2.0680   26.5830 C.3   600  14H600      0.0000
     25  C31       13.6890    1.4240   26.1470 C.3   600  14H600      0.0000
     26  C32       13.9390    0.1410   25.3400 C.3   600  14H600      0.0000
     27  C33       14.4060   -1.0240   26.2110 C.3   600  14H600      0.0000
     28  C34       13.2930   -2.0430   26.4120 C.3   600  14H600      0.0000
@<TRIPOS>BOND
     1    26    25    1
     2    26    27    1
     3    25    24    1
     4    27    28    1
     5    24    23    1
     6    23    22    1
     7    22    21    1
     8    11    10   ar
     9    11    12   ar
    10    21    20    1
    11     6     5    1
    12    20    19    1
    13    10     9   ar
    14    12    13   ar
    15    19    18    1
    16     5     4    1
    17     7     4    1
    18     7     8    1
    19     9     8    1
    20     9    14   ar
    21    13    14   ar
    22    18    17    1
    23     3     4    1
    24     3     2   am
    25     8    15    1
    26    17    16    1
    27    16     2    1
    28     2     1    2
