@<TRIPOS>MOLECULE
3h3s_H15_A_1.pdb
 29 29 0 0 0
SMALL
GASTEIGER

@<TRIPOS>ATOM
      1  O21        8.3790    1.2550   33.4940 O.2   600  H15600     -0.2733
      2  C21        8.0690    1.8090   32.4250 C.2   600  H15600      0.2414
      3  N2         7.2890    1.3070   31.4640 N.am  600  H15600     -0.2044
      4  C2         6.4910    0.0710   31.5880 C.3   600  H15600      0.1310
      5  C1         5.1350    0.2450   30.8690 C.3   600  H15600      0.2036
      6  O1         5.3850    0.4940   29.4540 O.3   600  H15600     -0.2185
      7  C3         7.2100   -1.1660   31.0190 C.3   600  H15600      0.0618
      8  C4         8.5220   -1.0750   31.7550 C.3   600  H15600      0.1760
      9  C5         9.7730   -0.7020   31.0570 C.ar  600  H15600      0.0077
     10  C6         9.9420   -0.7040   29.6690 C.ar  600  H15600     -0.0018
     11  C7        11.1540   -0.2270   29.1850 C.ar  600  H15600     -0.0002
     12  C8        12.1570    0.2660   30.0000 C.ar  600  H15600     -0.0000
     13  C9        11.9930    0.2790   31.3750 C.ar  600  H15600     -0.0002
     14  C10       10.7850   -0.1830   31.8630 C.ar  600  H15600     -0.0018
     15  O4         8.5230   -1.6110   33.0810 O.3   600  H15600     -0.2182
     16  C22        8.5280    3.2270   32.1830 C.3   600  H15600      0.0868
     17  C23        9.9880    3.3120   31.8190 C.3   600  H15600      0.0096
     18  C24       10.3130    4.7020   31.2580 C.3   600  H15600      0.0005
     19  C25       11.8120    4.8730   31.0060 C.3   600  H15600      0.0000
     20  C26       12.2610    4.4520   29.6080 C.3   600  H15600      0.0000
     21  C27       13.7630    4.6510   29.4120 C.3   600  H15600      0.0000
     22  C28       14.1380    4.3000   27.9800 C.3   600  H15600      0.0000
     23  C29       14.8820    2.9740   27.9120 C.3   600  H15600      0.0000
     24  C30       14.9990    2.4490   26.4830 C.3   600  H15600      0.0000
     25  C31       13.7140    1.9370   25.8410 C.3   600  H15600      0.0000
     26  C32       14.0210    0.7000   25.0060 C.3   600  H15600      0.0000
     27  C33       14.3520   -0.4930   25.8940 C.3   600  H15600      0.0000
     28  C34       13.2860   -1.5580   25.7260 C.3   600  H15600      0.0000
     29  C35       13.0550   -2.2460   27.0520 C.3   600  H15600      0.0000
@<TRIPOS>BOND
     1    26    25    1
     2    26    27    1
     3    28    27    1
     4    28    29    1
     5    25    24    1
     6    24    23    1
     7    23    22    1
     8    22    21    1
     9    11    10   ar
    10    11    12   ar
    11    21    20    1
    12     6     5    1
    13    20    19    1
    14    10     9   ar
    15    12    13   ar
    16     5     4    1
    17    19    18    1
    18     7     4    1
    19     7     8    1
    20     9     8    1
    21     9    14   ar
    22    18    17    1
    23    13    14   ar
    24     3     4    1
    25     3     2   am
    26     8    15    1
    27    17    16    1
    28    16     2    1
    29     2     1    2
