@<TRIPOS>MOLECULE
3h3t_16H_A_1.pdb
 30 30 0 0 0
SMALL
GASTEIGER

@<TRIPOS>ATOM
      1  O21        8.3160    0.9210   33.6370 O.2   600  16H600     -0.2733
      2  C21        7.8890    1.4800   32.6400 C.2   600  16H600      0.2414
      3  N2         7.0670    0.9550   31.7190 N.am  600  16H600     -0.2044
      4  C2         6.3470   -0.3100   31.8090 C.3   600  16H600      0.1310
      5  C1         4.9810   -0.2560   31.1180 C.3   600  16H600      0.2036
      6  O1         5.0610    0.2630   29.7760 O.3   600  16H600     -0.2185
      7  C3         7.2260   -1.4480   31.2720 C.3   600  16H600      0.0618
      8  C4         8.4420   -1.1950   32.1590 C.3   600  16H600      0.1760
      9  C5         9.7300   -0.9450   31.4660 C.ar  600  16H600      0.0077
     10  C6         9.8660   -1.1220   30.1030 C.ar  600  16H600     -0.0018
     11  C7        11.0940   -0.7900   29.5340 C.ar  600  16H600     -0.0002
     12  C8        12.1470   -0.2670   30.2800 C.ar  600  16H600     -0.0000
     13  C9        11.9870   -0.0650   31.6370 C.ar  600  16H600     -0.0002
     14  C10       10.7720   -0.3880   32.2030 C.ar  600  16H600     -0.0018
     15  O4         8.4620   -1.9100   33.3930 O.3   600  16H600     -0.2182
     16  C22        8.2980    2.9130   32.4340 C.3   600  16H600      0.0868
     17  C23        9.6150    3.0120   31.6870 C.3   600  16H600      0.0096
     18  C24        9.8380    4.4700   31.3250 C.3   600  16H600      0.0005
     19  C25       11.3210    4.7470   31.1550 C.3   600  16H600      0.0000
     20  C26       11.7830    4.1310   29.8450 C.3   600  16H600      0.0000
     21  C27       13.2650    3.8250   29.8800 C.3   600  16H600      0.0000
     22  C28       13.8720    4.1480   28.5180 C.3   600  16H600      0.0000
     23  C29       15.2310    3.4690   28.3190 C.3   600  16H600      0.0000
     24  C30       15.2140    2.6170   27.0530 C.3   600  16H600      0.0000
     25  C31       13.7800    2.1720   26.7130 C.3   600  16H600      0.0000
     26  C32       13.6900    1.3400   25.4370 C.3   600  16H600      0.0000
     27  C33       14.9130    0.4470   25.2960 C.3   600  16H600      0.0000
     28  C34       14.9710   -0.5620   26.4320 C.3   600  16H600      0.0000
     29  C35       13.8100   -1.5260   26.2630 C.3   600  16H600      0.0000
     30  C36       13.4890   -2.1840   27.5800 C.3   600  16H600      0.0000
@<TRIPOS>BOND
     1    27    26    1
     2    27    28    1
     3    26    25    1
     4    29    28    1
     5    29    30    1
     6    25    24    1
     7    24    23    1
     8    23    22    1
     9    22    21    1
    10    11    10   ar
    11    11    12   ar
    12     6     5    1
    13    20    21    1
    14    20    19    1
    15    10     9   ar
    16    12    13   ar
    17     5     4    1
    18    19    18    1
    19     7     4    1
    20     7     8    1
    21    18    17    1
    22     9     8    1
    23     9    14   ar
    24    13    14   ar
    25    17    16    1
    26     3     4    1
    27     3     2   am
    28     8    15    1
    29    16     2    1
    30     2     1    2
