@<TRIPOS>MOLECULE
3h3u_CMP_B_1.pdb
 22 25 0 0 0
SMALL
GASTEIGER

@<TRIPOS>ATOM
      1  P          3.5670   31.6830   -3.4090 P.3   226  CMP226      0.2141
      2  O1P        3.7110   31.7470   -1.9480 O.3   226  CMP226     -0.4373
      3  O2P        4.7370   31.9380   -4.2730 O.2   226  CMP226     -0.5172
      4  O5'        2.9400   30.2510   -3.7170 O.3   226  CMP226     -0.3114
      5  C5'        1.5720   29.9590   -3.3930 C.3   226  CMP226      0.1812
      6  C4'        0.7090   31.0490   -3.9440 C.3   226  CMP226      0.1793
      7  O4'       -0.6880   30.9130   -3.6030 O.3   226  CMP226     -0.3136
      8  C3'        1.0740   32.3650   -3.3110 C.3   226  CMP226      0.1884
      9  O3'        2.3630   32.6770   -3.8020 O.3   226  CMP226     -0.3111
     10  C2'       -0.1060   33.2120   -3.7150 C.3   226  CMP226      0.2541
     11  O2'       -0.0650   33.5070   -5.0890 O.3   226  CMP226     -0.2131
     12  C1'       -1.2440   32.2200   -3.4590 C.3   226  CMP226      0.3185
     13  N9        -1.7960   32.3460   -2.1110 N.pl3 226  CMP226     -0.1439
     14  C8        -1.2630   31.9580   -0.9010 C.3   226  CMP226      0.3377
     15  N7        -2.0410   32.2170    0.1240 N.2   226  CMP226     -0.2095
     16  C5        -3.1590   32.8110   -0.4530 C.2   226  CMP226      0.2526
     17  C6        -4.3590   33.3140    0.0910 C.2   226  CMP226      0.4393
     18  N6        -4.6450   33.3270    1.3980 N.pl3 226  CMP226      0.2180
     19  N1        -5.2640   33.8220   -0.7670 N.2   226  CMP226      0.0021
     20  C2        -4.9730   33.8450   -2.0650 C.3   226  CMP226      0.5254
     21  N3        -3.8930   33.4200   -2.6930 N.2   226  CMP226     -0.0055
     22  C4        -3.0160   32.9020   -1.8200 C.2   226  CMP226      0.3518
@<TRIPOS>BOND
     1    11    10    1
     2     3     1    2
     3     6     7    1
     4     6     5    1
     5     6     8    1
     6     9     1    1
     7     9     8    1
     8     4     1    1
     9     4     5    1
    10    10    12    1
    11    10     8    1
    12     7    12    1
    13    12    13    1
    14     1     2    1
    15    21    20    1
    16    21    22    2
    17    13    22    1
    18    13    14    1
    19    20    19    1
    20    22    16    1
    21    14    15    1
    22    19    17    2
    23    16    17    1
    24    16    15    2
    25    17    18    1
