@<TRIPOS>MOLECULE
3h41_DGL_A_1.pdb
 10 9 0 0 0
SMALL
GASTEIGER

@<TRIPOS>ATOM
      1  N         17.9060   17.7070   14.7260 N.3   502  DGL502     -0.1208
      2  CA        16.6110   17.3100   15.2840 C.3   502  DGL502      0.1949
      3  C         16.6910   17.1070   16.7680 C.2   502  DGL502      0.3819
      4  O         15.9340   16.3210   17.3540 O.co2 502  DGL502     -0.2441
      5  CB        15.5500   18.3710   14.9490 C.3   502  DGL502      0.0424
      6  CG        14.1150   17.9750   15.3470 C.3   502  DGL502      0.1161
      7  CD        13.6900   16.5570   14.9710 C.2   502  DGL502      0.3649
      8  OE1       12.8960   16.4400   14.0200 O.co2 502  DGL502     -0.2457
      9  OE2       14.0860   15.5540   15.6270 O.co2 502  DGL502     -0.2457
     10  OXT       17.4860   17.7770   17.4390 O.co2 502  DGL502     -0.2441
@<TRIPOS>BOND
     1     8     7   ar
     2     1     2    1
     3     5     2    1
     4     5     6    1
     5     7     6    1
     6     7     9   ar
     7     2     3    1
     8     3     4   ar
     9     3    10   ar
