@<TRIPOS>MOLECULE
3h44_III_C_1.pdb
 24 23 0 0 0
SMALL
GASTEIGER

@<TRIPOS>ATOM
      1  N       -110.6960   61.6180   26.9630 N.3     1  ALA1       -0.1231
      2  CA      -111.3650   60.6180   26.1010 C.3     1  ALA1        0.1694
      3  C       -112.3350   59.7500   26.9530 C.2     1  ALA1        0.2593
      4  O       -112.0180   59.4260   28.1100 O.2     1  ALA1       -0.2718
      5  CB      -110.2970   59.7480   25.3500 C.3     1  ALA1        0.0304
      6  N       -113.5200   59.4340   26.3950 N.am    2  SER2       -0.1938
      7  CA      -114.4320   58.3550   26.8630 C.3     2  SER2        0.2055
      8  C       -113.6710   57.0780   26.4810 C.2     2  SER2        0.2643
      9  O       -112.9670   57.1320   25.5050 O.2     2  SER2       -0.2714
     10  CB      -115.7600   58.4570   26.0660 C.3     2  SER2        0.2130
     11  OG      -116.9640   58.0210   26.7170 O.3     2  SER2       -0.2179
     12  N       -113.7340   55.9570   27.2160 N.am    3  LEU3       -0.1963
     13  CA      -113.0300   54.7250   26.7250 C.3     3  LEU3        0.1728
     14  C       -113.7200   54.1610   25.4660 C.2     3  LEU3        0.2616
     15  O       -114.9550   54.2480   25.3370 O.2     3  LEU3       -0.2715
     16  CB      -112.8040   53.6160   27.7930 C.3     3  LEU3        0.0311
     17  CG      -111.9170   52.3960   27.3290 C.3     3  LEU3        0.0022
     18  CD1     -110.6260   52.0650   28.1800 C.3     3  LEU3        0.0001
     19  CD2     -112.7170   51.0910   27.0390 C.3     3  LEU3        0.0001
     20  N       -112.9140   53.6170   24.5410 N.am    4  ALA4       -0.1977
     21  CA      -113.4140   53.1110   23.2440 C.3     4  ALA4        0.1597
     22  C       -113.7720   51.6060   23.2960 C.2     4  ALA4        0.2287
     23  O       -112.9810   50.7710   23.7730 O.2     4  ALA4       -0.2864
     24  CB      -112.3920   53.4190   22.0980 C.3     4  ALA4        0.0319
@<TRIPOS>BOND
     1    24    21    1
     2    21    22    1
     3    21    20    1
     4    22    23    2
     5    20    14   am
     6    15    14    2
     7     5     2    1
     8    14    13    1
     9     9     8    2
    10    10    11    1
    11    10     7    1
    12     2     3    1
    13     2     1    1
    14     6     7    1
    15     6     3   am
    16     8     7    1
    17     8    12   am
    18    13    12    1
    19    13    16    1
    20     3     4    2
    21    19    17    1
    22    17    16    1
    23    17    18    1
