@<TRIPOS>MOLECULE
3h4b_DTP_A_1.pdb
 30 32 0 0 0
SMALL
GASTEIGER

@<TRIPOS>ATOM
      1  PG         0.9020   18.8790   14.6060 P.3   875  DTP875      0.5373
      2  O1G        0.8970   17.4120   14.4360 O.3   875  DTP875     -0.1143
      3  O2G        0.7360   19.1360   16.0990 O.3   875  DTP875     -0.1143
      4  O3G        2.1000   19.5440   13.9420 O.2   875  DTP875     -0.2221
      5  PB        -0.7550   19.5150   12.3480 P.3   875  DTP875      0.2277
      6  O1B        0.4550   19.0550   11.6190 O.2   875  DTP875     -0.5168
      7  O2B       -1.9280   18.4910   11.9910 O.3   875  DTP875     -0.4368
      8  O3B       -0.4260   19.5350   13.9190 O.3   875  DTP875     -0.2258
      9  PA        -0.4610   22.4090   12.5690 P.3   875  DTP875      0.2189
     10  O1A       -1.0130   22.5070   13.8890 O.3   875  DTP875     -0.4371
     11  O2A        1.0510   22.2260   12.6010 O.2   875  DTP875     -0.5170
     12  O3A       -0.9130   21.0370   11.8440 O.3   875  DTP875     -0.2700
     13  O5'       -0.8110   23.6500   11.6380 O.3   875  DTP875     -0.3112
     14  C5'       -1.5620   24.4150   12.5430 C.3   875  DTP875      0.1813
     15  C4'       -2.0090   25.7460   11.9770 C.3   875  DTP875      0.1795
     16  O4'       -2.3320   26.4720   13.1910 O.3   875  DTP875     -0.3155
     17  C3'       -1.0960   26.9050   11.2210 C.3   875  DTP875      0.1883
     18  O3'       -1.8820   27.9990   10.6600 O.3   875  DTP875     -0.2202
     19  C2'       -0.2790   27.3330   12.4180 C.3   875  DTP875      0.1151
     20  C1'       -1.3290   27.4290   13.5170 C.3   875  DTP875      0.2873
     21  N9        -0.8240   27.1600   14.9010 N.pl3 875  DTP875     -0.1460
     22  C8        -0.0070   26.1300   15.3250 C.3   875  DTP875      0.3377
     23  N7         0.2620   26.1430   16.6120 N.2   875  DTP875     -0.2095
     24  C5        -0.4180   27.2510   17.0810 C.2   875  DTP875      0.2526
     25  C6        -0.5560   27.8290   18.3790 C.2   875  DTP875      0.4393
     26  N6         0.0280   27.3280   19.4650 N.pl3 875  DTP875      0.2180
     27  N1        -1.3210   28.9540   18.5130 N.2   875  DTP875      0.0021
     28  C2        -1.9240   29.4750   17.4060 C.3   875  DTP875      0.5254
     29  N3        -1.8720   29.0220   16.1300 N.2   875  DTP875     -0.0055
     30  C4        -1.0980   27.8940   16.0370 C.2   875  DTP875      0.3518
@<TRIPOS>BOND
     1    18    17    1
     2    17    15    1
     3    17    19    1
     4     6     5    2
     5    13    14    1
     6    13     9    1
     7    12     5    1
     8    12     9    1
     9    15    14    1
    10    15    16    1
    11     7     5    1
    12     5     8    1
    13    19    20    1
    14     9    11    2
    15     9    10    1
    16    16    20    1
    17    20    21    1
    18     8     1    1
    19     4     1    2
    20     2     1    1
    21     1     3    1
    22    21    22    1
    23    21    30    1
    24    22    23    1
    25    30    29    2
    26    30    24    1
    27    29    28    1
    28    23    24    2
    29    24    25    1
    30    28    27    1
    31    25    27    2
    32    25    26    1
