@<TRIPOS>MOLECULE
3h4d_DGT_T_1.pdb
 31 33 0 0 0
SMALL
GASTEIGER

@<TRIPOS>ATOM
      1  PG         1.5400   18.0510   13.6210 P.3   875  DGT875      0.5373
      2  O1G        2.9390   18.5810   13.2300 O.3   875  DGT875     -0.1143
      3  O2G        0.3160   18.7140   12.8680 O.2   875  DGT875     -0.2221
      4  O3G        1.5760   16.4560   13.7170 O.3   875  DGT875     -0.1143
      5  O3B        1.1980   18.3720   15.1350 O.3   875  DGT875     -0.2258
      6  PB         1.8630   19.4980   16.0270 P.3   875  DGT875      0.2277
      7  O1B        1.1910   19.6960   17.2970 O.3   875  DGT875     -0.4368
      8  O2B        3.3080   19.0380   16.5050 O.2   875  DGT875     -0.5168
      9  O3A        1.6670   20.8850   15.2820 O.3   875  DGT875     -0.2700
     10  PA         2.7410   22.1220   15.1990 P.3   875  DGT875      0.2189
     11  O1A        3.8890   21.5380   14.6250 O.3   875  DGT875     -0.4371
     12  O2A        2.1410   23.2320   14.3190 O.2   875  DGT875     -0.5170
     13  O5'        3.0270   22.6600   16.6930 O.3   875  DGT875     -0.3112
     14  C5'        3.5810   21.7490   17.6760 C.3   875  DGT875      0.1812
     15  C4'        3.4140   22.0930   19.0900 C.3   875  DGT875      0.1772
     16  O4'        3.2300   23.4280   19.1700 O.3   875  DGT875     -0.3347
     17  C3'        2.1820   21.4010   19.7060 C.3   875  DGT875      0.1857
     18  O3'        2.5980   20.5970   20.7680 O.3   875  DGT875     -0.2203
     19  C2'        1.2820   22.5720   20.1580 C.3   875  DGT875      0.0865
     20  C1'        2.0330   23.8620   19.7590 C.3   875  DGT875      0.1981
     21  N9         1.4080   24.8130   18.9490 N.pl3 875  DGT875     -0.2374
     22  C8         1.3350   25.0020   17.5450 C.3   875  DGT875      0.2245
     23  N7         0.6240   26.0580   17.1300 N.2   875  DGT875     -0.2322
     24  C5         0.2020   26.5930   18.3020 C.2   875  DGT875      0.2182
     25  C6        -0.5990   27.7540   18.6510 C.1   875  DGT875      0.2372
     26  O6        -1.0860   28.4880   17.8160 O.2   875  DGT875     -0.2069
     27  N1        -0.7790   27.9360   20.0280 N.2   875  DGT875     -0.2485
     28  C2        -0.2210   27.0900   21.0290 C.1   875  DGT875      0.2531
     29  N2        -0.4420   27.3610   22.3290 N.pl3 875  DGT875     -0.0226
     30  N3         0.5170   26.0200   20.7190 N.2   875  DGT875     -0.3074
     31  C4         0.7010   25.8500   19.4110 C.2   875  DGT875      0.2299
@<TRIPOS>BOND
     1     3     1    2
     2     2     1    1
     3     1     4    1
     4     1     5    1
     5    12    10    2
     6    11    10    1
     7     5     6    1
     8    10     9    1
     9    10    13    1
    10     9     6    1
    11     6     8    2
    12     6     7    1
    13    13    14    1
    14    23    22    1
    15    23    24    2
    16    22    21    1
    17    14    15    1
    18    26    25    2
    19    24    25    1
    20    24    31    1
    21    25    27    2
    22    21    31    1
    23    21    20    1
    24    15    16    1
    25    15    17    1
    26    16    20    1
    27    31    30    2
    28    17    19    1
    29    17    18    1
    30    20    19    1
    31    27    28    2
    32    30    28    2
    33    28    29    1
