@<TRIPOS>MOLECULE
3h4g_FID_A_1.pdb
 20 22 0 0 0
SMALL
GASTEIGER

@<TRIPOS>ATOM
      1  C2I        2.2890  -25.6640   -6.3500 C.1   2401  FID2401     0.3075
      2  N4         2.1030  -24.9830   -5.2050 N.2   2401  FID2401    -0.2446
      3  C5         1.7060  -25.9500   -4.3640 C.1   2401  FID2401     0.2166
      4  C7I        1.6540  -27.3090   -4.9880 C.3   2401  FID2401     0.2260
      5  C12        2.6870  -28.2220   -4.3770 C.ar  2401  FID2401     0.0506
      6  C13        4.0430  -27.9760   -4.6020 C.ar  2401  FID2401     0.0313
      7  C14        5.0160  -28.8020   -4.0520 C.ar  2401  FID2401     0.1401
      8  F17        6.3160  -28.5410   -4.2890 F     2401  FID2401    -0.2042
      9  C15        4.6350  -29.8910   -3.2710 C.ar  2401  FID2401     0.0327
     10  C16        3.2810  -30.1430   -3.0440 C.ar  2401  FID2401     0.0390
     11  C11        2.3050  -29.3110   -3.5950 C.ar  2401  FID2401     0.1380
     12  O10        0.9750  -29.5800   -3.3620 O.3   2401  FID2401    -0.4699
     13  C9        -0.0560  -28.6250   -3.6530 C.3   2401  FID2401     0.2477
     14  C19       -1.4120  -29.2760   -3.7190 C.2   2401  FID2401     0.3010
     15  N21       -1.5070  -30.5630   -4.0510 N.am  2401  FID2401    -0.0846
     16  O20       -2.4130  -28.6110   -3.4780 O.2   2401  FID2401    -0.2677
     17  C8I        0.2570  -27.9430   -4.9820 C.3   2401  FID2401     0.0980
     18  N1I        2.0480  -26.9890   -6.3560 N.2   2401  FID2401    -0.1582
     19  O6I        1.4220  -25.7390   -3.1320 O.2   2401  FID2401    -0.2111
     20  O3I        2.6810  -25.0690   -7.4240 O.2   2401  FID2401    -0.1881
@<TRIPOS>BOND
     1    20     1    2
     2    18     1    2
     3    18     4    1
     4     1     2    2
     5     2     3    2
     6     4    17    1
     7     4     5    1
     8     4     3    1
     9    17    13    1
    10     6     5   ar
    11     6     7   ar
    12     5    11   ar
    13     3    19    2
    14     8     7    1
    15     7     9   ar
    16    15    14   am
    17    14    13    1
    18    14    16    2
    19    13    12    1
    20    11    12    1
    21    11    10   ar
    22     9    10   ar
