@<TRIPOS>MOLECULE
3h4g_NAP_A_1.pdb
 48 52 0 0 0
SMALL
GASTEIGER

@<TRIPOS>ATOM
      1  PA        -0.1710  -26.9230  -16.0890 P.3   2350  NAP2350     0.2189
      2  O1A       -1.6200  -26.7010  -16.2290 O.3   2350  NAP2350    -0.4371
      3  O2A        0.6900  -25.8090  -16.5130 O.2   2350  NAP2350    -0.5170
      4  O5B        0.2090  -28.2560  -16.9020 O.3   2350  NAP2350    -0.3112
      5  C5B        1.5440  -28.7150  -16.9010 C.3   2350  NAP2350     0.1813
      6  C4B        1.5720  -30.0070  -17.7140 C.3   2350  NAP2350     0.1820
      7  O4B        1.0950  -29.7660  -19.0240 O.3   2350  NAP2350    -0.3136
      8  C3B        2.9740  -30.5640  -17.8760 C.3   2350  NAP2350     0.2157
      9  O3B        2.8330  -31.9660  -17.7960 O.3   2350  NAP2350    -0.2175
     10  C2B        3.3840  -30.1870  -19.2810 C.3   2350  NAP2350     0.2314
     11  O2B        4.2090  -31.2020  -19.8220 O.3   2350  NAP2350    -0.2630
     12  C1B        2.0450  -30.1270  -20.0000 C.3   2350  NAP2350     0.3158
     13  N9A        1.9990  -29.1450  -21.1010 N.pl3 2350  NAP2350    -0.1439
     14  C8A        2.5160  -27.8710  -21.1060 C.3   2350  NAP2350     0.3377
     15  N7A        2.2440  -27.3040  -22.2970 N.2   2350  NAP2350    -0.2095
     16  C5A        1.5590  -28.1940  -23.0480 C.2   2350  NAP2350     0.2526
     17  C6A        1.0460  -28.1390  -24.3350 C.2   2350  NAP2350     0.4393
     18  N6A        1.1850  -27.0340  -25.0650 N.pl3 2350  NAP2350     0.2180
     19  N1A        0.3590  -29.2290  -24.8400 N.2   2350  NAP2350     0.0021
     20  C2A        0.2030  -30.3750  -24.0840 C.3   2350  NAP2350     0.5254
     21  N3A        0.7320  -30.4390  -22.8100 N.2   2350  NAP2350    -0.0055
     22  C4A        1.3910  -29.3560  -22.3030 C.2   2350  NAP2350     0.3518
     23  O3         0.1160  -27.4070  -14.5720 O.3   2350  NAP2350    -0.2703
     24  PN         0.8950  -26.8290  -13.2970 P.3   2350  NAP2350     0.2189
     25  O1N        2.3500  -26.9420  -13.5210 O.2   2350  NAP2350    -0.5170
     26  O2N        0.2640  -27.4860  -12.1320 O.3   2350  NAP2350    -0.4371
     27  O5D        0.4780  -25.2770  -13.2100 O.3   2350  NAP2350    -0.3112
     28  C5D        1.2910  -24.3230  -13.8420 C.3   2350  NAP2350     0.1813
     29  C4D        2.1130  -23.5450  -12.8260 C.3   2350  NAP2350     0.1799
     30  O4D        1.2870  -22.8610  -11.8980 O.3   2350  NAP2350    -0.3327
     31  C3D        3.0330  -24.3770  -11.9460 C.3   2350  NAP2350     0.2158
     32  O3D        4.1610  -24.8760  -12.6320 O.3   2350  NAP2350    -0.2175
     33  C2D        3.3400  -23.3870  -10.8410 C.3   2350  NAP2350     0.2309
     34  O2D        4.3160  -22.4590  -11.2780 O.3   2350  NAP2350    -0.2158
     35  C1D        1.9870  -22.7000  -10.6780 C.3   2350  NAP2350     0.2263
     36  N1N        1.1990  -23.3360   -9.6000 N.pl3 2350  NAP2350    -0.2787
     37  C2N        1.0350  -22.6250   -8.4390 C.3   2350  NAP2350     0.1244
     38  C3N        0.2960  -23.1830   -7.3970 C.2   2350  NAP2350     0.0544
     39  C7N        0.0350  -22.3720   -6.1600 C.2   2350  NAP2350     0.2818
     40  O7N       -0.4560  -23.0410   -5.0340 O.2   2350  NAP2350    -0.2670
     41  N7N        0.2490  -21.0540   -6.1600 N.am  2350  NAP2350    -0.0839
     42  C4N       -0.2680  -24.4530   -7.5240 C.2   2350  NAP2350     0.0033
     43  C5N       -0.0950  -25.1770   -8.7090 C.2   2350  NAP2350     0.0157
     44  C6N        0.6350  -24.5890   -9.7420 C.2   2350  NAP2350     0.0633
     45  P2B        5.7670  -30.9550  -20.1500 P.3   2350  NAP2350     0.5328
     46  O1X        6.4250  -30.0840  -19.1070 O.3   2350  NAP2350    -0.1145
     47  O2X        6.4770  -32.2940  -20.2020 O.3   2350  NAP2350    -0.1145
     48  O3X        5.8460  -30.2800  -21.4940 O.2   2350  NAP2350    -0.2224
@<TRIPOS>BOND
     1    18    17    1
     2    19    17    2
     3    19    20    1
     4    17    16    1
     5    20    21    1
     6    16    22    1
     7    16    15    2
     8    21    22    2
     9    22    13    1
    10    15    14    1
    11    48    45    2
    12    14    13    1
    13    13    12    1
    14    47    45    1
    15    45    11    1
    16    45    46    1
    17    12    10    1
    18    12     7    1
    19    11    10    1
    20    10     8    1
    21     7     6    1
    22     8     9    1
    23     8     6    1
    24     6     5    1
    25     4     5    1
    26     4     1    1
    27     3     1    2
    28     2     1    1
    29     1    23    1
    30    23    24    1
    31    28    27    1
    32    28    29    1
    33    25    24    2
    34    24    27    1
    35    24    26    1
    36    29    31    1
    37    29    30    1
    38    32    31    1
    39    31    33    1
    40    30    35    1
    41    34    33    1
    42    33    35    1
    43    35    36    1
    44    44    36    1
    45    44    43    2
    46    36    37    1
    47    43    42    1
    48    37    38    1
    49    42    38    2
    50    38    39    1
    51    39    41   am
    52    39    40    2
