@<TRIPOS>MOLECULE
3h4i_U2F_A_1.pdb
 36 38 0 0 0
SMALL
GASTEIGER

@<TRIPOS>ATOM
      1  C1        33.0580   30.6590   18.7280 C.3   547  U2F547      0.2764
      2  O1        33.1280   31.7990   17.9200 O.3   547  U2F547     -0.2856
      3  PB        32.6450   32.0440   16.4470 P.3   547  U2F547      0.2208
      4  O1B       32.3350   33.5100   16.3790 O.3   547  U2F547     -0.4371
      5  O2B       31.5930   31.0640   16.0290 O.2   547  U2F547     -0.5170
      6  O3A       33.9250   31.6880   15.5450 O.3   547  U2F547     -0.2703
      7  PA        35.4750   32.1220   15.5410 P.3   547  U2F547      0.2189
      8  O1A       35.6850   33.4980   16.0790 O.2   547  U2F547     -0.5170
      9  O2A       36.3140   31.0020   16.0890 O.3   547  U2F547     -0.4371
     10  O5'       35.7530   32.0690   13.9680 O.3   547  U2F547     -0.3112
     11  C5'       34.9270   32.7400   13.0230 C.3   547  U2F547      0.1813
     12  C4'       35.5410   32.5120   11.6470 C.3   547  U2F547      0.1799
     13  O4'       34.6400   32.9810   10.6300 O.3   547  U2F547     -0.3320
     14  C1'       35.2700   33.9900    9.8540 C.3   547  U2F547      0.2401
     15  C2'       36.3380   34.5380   10.8070 C.3   547  U2F547      0.2319
     16  C3'       36.8330   33.2910   11.5010 C.3   547  U2F547      0.2158
     17  O3'       37.7200   32.5580   10.6380 O.3   547  U2F547     -0.2175
     18  O2'       37.4020   35.2730   10.1860 O.3   547  U2F547     -0.2157
     19  N1        34.3120   35.0330    9.5000 N.am  547  U2F547     -0.1766
     20  C6'       34.4350   35.6610    8.2530 C.1   547  U2F547      0.2845
     21  O6'       35.3230   35.3000    7.4420 O.2   547  U2F547     -0.1918
     22  N3        33.5930   36.6520    7.9490 N.2   547  U2F547     -0.2452
     23  C7'       32.6300   37.0730    8.7810 C.1   547  U2F547      0.2182
     24  O7'       31.8730   38.0110    8.4210 O.2   547  U2F547     -0.2085
     25  C8'       32.4800   36.4560   10.0220 C.2   547  U2F547      0.1242
     26  C9'       33.3580   35.4280   10.3660 C.2   547  U2F547      0.0929
     27  C2        33.0230   31.0650   19.9570 C.3   547  U2F547      0.2498
     28  F1        32.0590   31.7800   20.4580 F     547  U2F547     -0.2290
     29  C3        34.3750   30.9770   20.5590 C.3   547  U2F547      0.2220
     30  O3        34.3130   31.0690   21.9770 O.3   547  U2F547     -0.2172
     31  C4        35.1540   29.7630   20.0400 C.3   547  U2F547      0.2146
     32  O4        36.5380   30.1030   20.1630 O.3   547  U2F547     -0.2176
     33  C5        34.8690   29.4060   18.5630 C.3   547  U2F547      0.1835
     34  C6        35.5490   28.1030   18.1570 C.3   547  U2F547      0.2142
     35  O6        35.0360   27.0380   18.9630 O.3   547  U2F547     -0.2176
     36  O5        33.4570   29.3620   18.2870 O.3   547  U2F547     -0.3253
@<TRIPOS>BOND
     1    21    20    2
     2    22    20    2
     3    22    23    2
     4    20    19   am
     5    24    23    2
     6    23    25    1
     7    19    14    1
     8    19    26    1
     9    14    13    1
    10    14    15    1
    11    25    26    2
    12    18    15    1
    13    13    12    1
    14    17    16    1
    15    15    16    1
    16    16    12    1
    17    12    11    1
    18    11    10    1
    19    10     7    1
    20     7     6    1
    21     7     8    2
    22     7     9    1
    23     6     3    1
    24     5     3    2
    25     4     3    1
    26     3     2    1
    27     2     1    1
    28    34    33    1
    29    34    35    1
    30    36    33    1
    31    36     1    1
    32    33    31    1
    33     1    27    1
    34    27    28    1
    35    27    29    1
    36    31    32    1
    37    31    29    1
    38    29    30    1
