@<TRIPOS>MOLECULE
3h4k_GSH_A_1.pdb
 20 19 0 0 0
SMALL
GASTEIGER

@<TRIPOS>ATOM
      1  N1        20.6330   29.2670   41.7520 N.3   604  GSH604     -0.1208
      2  CA1       20.0300   28.4250   42.7710 C.3   604  GSH604      0.1948
      3  C1        19.4740   27.1800   42.1400 C.2   604  GSH604      0.3819
      4  O11       20.1760   26.4660   41.3880 O.co2 604  GSH604     -0.2441
      5  O12       18.2930   26.8420   42.3670 O.co2 604  GSH604     -0.2441
      6  CB1       21.0350   28.0510   43.8640 C.3   604  GSH604      0.0402
      7  CG1       22.4570   27.8260   43.3510 C.3   604  GSH604      0.0889
      8  CD1       23.3400   29.0070   43.6880 C.2   604  GSH604      0.2418
      9  OE1       23.0470   29.8400   44.7890 O.2   604  GSH604     -0.2733
     10  N2        24.3910   29.2010   42.8910 N.am  604  GSH604     -0.1968
     11  CA2       25.7290   29.4240   43.4110 C.3   604  GSH604      0.1843
     12  C2        26.5810   30.2180   42.4650 C.2   604  GSH604      0.2627
     13  O2        26.9100   29.7010   41.1950 O.2   604  GSH604     -0.2714
     14  CB2       26.4080   28.0890   43.6940 C.3   604  GSH604      0.0997
     15  SG2       27.1670   28.0430   45.3340 S.3   604  GSH604     -0.0797
     16  N3        27.0030   31.4050   42.8960 N.am  604  GSH604     -0.1917
     17  CA3       27.4050   32.4630   41.9840 C.3   604  GSH604      0.2285
     18  C3        28.8400   32.3280   41.5260 C.2   604  GSH604      0.3865
     19  O31       29.3850   33.2520   40.8840 O.co2 604  GSH604     -0.2437
     20  O32       29.5060   31.2990   41.7770 O.co2 604  GSH604     -0.2437
@<TRIPOS>BOND
     1    19    18   ar
     2    13    12    2
     3     4     3   ar
     4    18    20   ar
     5    18    17    1
     6     1     2    1
     7    17    16    1
     8     3     5   ar
     9     3     2    1
    10    12    16   am
    11    12    11    1
    12     2     6    1
    13    10    11    1
    14    10     8   am
    15     7     8    1
    16     7     6    1
    17    11    14    1
    18     8     9    2
    19    14    15    1
