@<TRIPOS>MOLECULE
3h4l_ANP_A_1.pdb
 31 33 0 0 0
SMALL
GASTEIGER

@<TRIPOS>ATOM
      1  PG        40.2040    6.7160   14.7790 P.3   397  ANP397      0.4884
      2  O1G       38.8550    6.1690   14.6460 O.3   397  ANP397     -0.1240
      3  O2G       40.9890    6.5950   13.5690 O.2   397  ANP397     -0.2331
      4  O3G       40.2510    8.1210   15.2840 O.3   397  ANP397     -0.1240
      5  PB        40.8970    4.2170   16.0310 P.3   397  ANP397      0.4669
      6  O1B       41.9680    3.8140   16.9750 O.3   397  ANP397     -0.1253
      7  O2B       40.8740    3.4880   14.7670 O.2   397  ANP397     -0.2351
      8  N3B       40.9560    5.8190   15.8920 N.3   397  ANP397     -0.0163
      9  PA        38.2070    3.1090   16.4200 P.3   397  ANP397      0.2220
     10  O1A       37.8530    3.3790   15.0320 O.2   397  ANP397     -0.5170
     11  O2A       37.1610    3.2020   17.4680 O.3   397  ANP397     -0.4370
     12  O3A       39.5130    3.9760   16.7940 O.3   397  ANP397     -0.2360
     13  O5'       38.5990    1.5490   16.6190 O.3   397  ANP397     -0.3111
     14  C5'       39.7960    1.3300   17.3120 C.3   397  ANP397      0.1813
     15  C4'       40.5020    0.0670   17.6670 C.3   397  ANP397      0.1821
     16  O4'       39.7260   -1.0790   17.3070 O.3   397  ANP397     -0.3135
     17  C3'       41.6300    0.1820   16.7090 C.3   397  ANP397      0.2184
     18  O3'       42.6450    1.0470   17.2530 O.3   397  ANP397     -0.2174
     19  C2'       41.9750   -1.2760   16.4350 C.3   397  ANP397      0.2570
     20  O2'       42.9440   -1.7210   17.3680 O.3   397  ANP397     -0.2130
     21  C1'       40.5790   -1.9370   16.5480 C.3   397  ANP397      0.3186
     22  N9        39.8440   -2.2050   15.2760 N.pl3 397  ANP397     -0.1439
     23  C8        38.6640   -1.6760   14.7580 C.3   397  ANP397      0.3377
     24  N7        38.2810   -2.1230   13.6020 N.2   397  ANP397     -0.2095
     25  C5        39.2710   -3.0390   13.3030 C.2   397  ANP397      0.2526
     26  C6        39.5310   -3.9160   12.1840 C.2   397  ANP397      0.4393
     27  N6        38.6990   -3.9800   11.1460 N.pl3 397  ANP397      0.2180
     28  N1        40.6580   -4.7430   12.1730 N.2   397  ANP397      0.0021
     29  C2        41.5350   -4.7060   13.2300 C.3   397  ANP397      0.5254
     30  N3        41.3790   -3.9100   14.3280 N.2   397  ANP397     -0.0055
     31  C4        40.2550   -3.1010   14.3070 C.2   397  ANP397      0.3518
@<TRIPOS>BOND
     1    27    26    1
     2    28    26    2
     3    28    29    1
     4    26    25    1
     5    29    30    1
     6    25    24    2
     7    25    31    1
     8     3     1    2
     9    24    23    1
    10    31    30    2
    11    31    22    1
    12     2     1    1
    13    23    22    1
    14     7     5    2
    15     1     4    1
    16     1     8    1
    17    10     9    2
    18    22    21    1
    19     8     5    1
    20     5    12    1
    21     5     6    1
    22     9    13    1
    23     9    12    1
    24     9    11    1
    25    19    21    1
    26    19    17    1
    27    19    20    1
    28    21    16    1
    29    13    14    1
    30    17    18    1
    31    17    15    1
    32    16    15    1
    33    14    15    1
