@<TRIPOS>MOLECULE
3h4m_ADP_A_1.pdb
 27 29 0 0 0
SMALL
GASTEIGER

@<TRIPOS>ATOM
      1  PB         1.0100  -44.8300  -10.0980 P.3   439  ADP439      0.5373
      2  O1B        2.3250  -45.0280  -10.8120 O.2   439  ADP439     -0.2221
      3  O2B        1.1940  -44.0950   -8.7950 O.3   439  ADP439     -0.1143
      4  O3B        0.0690  -46.0130   -9.9770 O.3   439  ADP439     -0.1143
      5  PA         0.8880  -42.9310  -12.1440 P.3   439  ADP439      0.2231
      6  O1A        2.1320  -42.2790  -11.5780 O.3   439  ADP439     -0.4370
      7  O2A        0.9350  -43.6480  -13.4620 O.2   439  ADP439     -0.5169
      8  O3A        0.1610  -43.8850  -11.0790 O.3   439  ADP439     -0.2261
      9  O5'       -0.2570  -41.8370  -12.3080 O.3   439  ADP439     -0.3111
     10  C5'       -1.3570  -42.0260  -13.2080 C.3   439  ADP439      0.1813
     11  C4'       -1.7560  -40.6910  -13.8580 C.3   439  ADP439      0.1821
     12  O4'       -2.7040  -40.0270  -13.0200 O.3   439  ADP439     -0.3135
     13  C3'       -0.6010  -39.7050  -14.0210 C.3   439  ADP439      0.2184
     14  O3'       -0.1230  -39.6670  -15.3540 O.3   439  ADP439     -0.2174
     15  C2'       -1.1900  -38.3590  -13.7130 C.3   439  ADP439      0.2570
     16  O2'       -1.7740  -37.8190  -14.8980 O.3   439  ADP439     -0.2130
     17  C1'       -2.3080  -38.6780  -12.7540 C.3   439  ADP439      0.3186
     18  N9        -1.8120  -38.5240  -11.3650 N.pl3 439  ADP439     -0.1439
     19  C8        -1.8420  -39.4570  -10.4020 C.3   439  ADP439      0.3377
     20  N7        -1.3040  -38.9880   -9.2470 N.2   439  ADP439     -0.2095
     21  C5        -0.9080  -37.7190   -9.4730 C.2   439  ADP439      0.2526
     22  C6        -0.2610  -36.6210   -8.6920 C.2   439  ADP439      0.4393
     23  N6         0.0960  -36.7820   -7.3910 N.pl3 439  ADP439      0.2180
     24  N1        -0.0280  -35.4380   -9.3190 N.2   439  ADP439      0.0021
     25  C2        -0.3740  -35.2410  -10.6070 C.3   439  ADP439      0.5254
     26  N3        -0.9610  -36.1900  -11.3640 N.2   439  ADP439     -0.0055
     27  C4        -1.2440  -37.4230  -10.8720 C.2   439  ADP439      0.3518
@<TRIPOS>BOND
     1    14    13    1
     2    16    15    1
     3    13    11    1
     4    13    15    1
     5    11    10    1
     6    11    12    1
     7    15    17    1
     8     7     5    2
     9    10     9    1
    10    12    17    1
    11    17    18    1
    12     9     5    1
    13     5     6    1
    14     5     8    1
    15    18    27    1
    16    18    19    1
    17    26    27    2
    18    26    25    1
    19     8     1    1
    20    27    21    1
    21     2     1    2
    22    25    24    1
    23    19    20    1
    24     1     4    1
    25     1     3    1
    26    21    20    2
    27    21    22    1
    28    24    22    2
    29    22    23    1
