@<TRIPOS>MOLECULE
3h4n_HEM_A_1.pdb
 43 50 0 0 0
SMALL
GASTEIGER

@<TRIPOS>ATOM
      1  CHA       19.3440    7.4620    3.4340 C.2    72  HEM72       0.0000
      2  CHB       23.1730    4.5330    3.7640 C.2    72  HEM72       0.0000
      3  CHC       20.4960    1.1710    5.8860 C.2    72  HEM72       0.0000
      4  CHD       16.5590    3.7520    4.8920 C.2    72  HEM72       0.0000
      5  C1A       20.6200    6.9690    3.3330 C.ar   72  HEM72       0.0000
      6  C2A       21.7490    7.6370    2.7560 C.ar   72  HEM72       0.0000
      7  C3A       22.8150    6.8350    2.8410 C.ar   72  HEM72       0.0000
      8  C4A       22.3770    5.6200    3.4840 C.ar   72  HEM72       0.0000
      9  CMA       24.2500    7.1010    2.3470 C.3    72  HEM72       0.0000
     10  CAA       21.7040    9.0340    2.1080 C.3    72  HEM72       0.0000
     11  CBA       21.7380   10.1560    3.1100 C.3    72  HEM72       0.0000
     12  CGA       21.7760   11.4840    2.3830 C.2    72  HEM72       0.0000
     13  O1A       21.3030   12.4390    3.0350 O.co2  72  HEM72       0.0000
     14  O2A       22.2660   11.6050    1.2130 O.co2  72  HEM72       0.0000
     15  C1B       22.7930    3.3830    4.3870 C.2    72  HEM72       0.0000
     16  C2B       23.6730    2.2930    4.7410 C.2    72  HEM72       0.0000
     17  C3B       22.9290    1.3670    5.3470 C.2    72  HEM72       0.0000
     18  C4B       21.5750    1.8490    5.3880 C.2    72  HEM72       0.0000
     19  CMB       25.1860    2.2640    4.4540 C.3    72  HEM72       0.0000
     20  CAB       23.3850    0.0310    5.9640 C.3    72  HEM72       0.0000
     21  CBB       24.3120    0.0910    6.9830 C.3    72  HEM72       0.0000
     22  C1C       19.1890    1.5420    5.7230 C.ar   72  HEM72       0.0000
     23  C2C       18.0410    0.7160    6.0170 C.ar   72  HEM72       0.0000
     24  C3C       16.9370    1.4240    5.7450 C.ar   72  HEM72       0.0000
     25  C4C       17.3730    2.7180    5.2590 C.ar   72  HEM72       0.0000
     26  CMC       18.1340   -0.7330    6.5510 C.3    72  HEM72       0.0000
     27  CAC       15.4460    0.9970    5.8880 C.2    72  HEM72       0.0000
     28  CBC       15.0920    0.2810    6.9870 C.2    72  HEM72       0.0000
     29  C1D       16.9470    4.9780    4.4510 C.2    72  HEM72       0.0000
     30  C2D       16.0400    6.0470    4.1420 C.2    72  HEM72       0.0000
     31  C3D       16.9020    7.1770    3.6940 C.2    72  HEM72       0.0000
     32  C4D       18.2560    6.6950    3.7850 C.2    72  HEM72       0.0000
     33  CMD       14.5220    6.0280    4.2430 C.3    72  HEM72       0.0000
     34  CAD       16.4410    8.5470    3.1870 C.3    72  HEM72       0.0000
     35  CBD       16.3270    8.3770    1.6670 C.3    72  HEM72       0.0000
     36  CGD       15.7680    9.5640    0.9160 C.2    72  HEM72       0.0000
     37  O1D       15.6650    9.5090   -0.3430 O.co2  72  HEM72       0.0000
     38  O2D       15.4050   10.5650    1.5880 O.co2  72  HEM72       0.0000
     39  NA        21.0340    5.7370    3.7730 N.ar   72  HEM72       0.0000
     40  NB        21.5290    3.0960    4.8000 N.2    72  HEM72       0.0000
     41  NC        18.7450    2.7540    5.2530 N.ar   72  HEM72       0.0000
     42  ND        18.2470    5.3710    4.2280 N.2    72  HEM72       0.0000
     43 FE         19.8700    4.2450    4.5440 Fe     72  HEM72       0.0000
@<TRIPOS>BOND
     1    37    36   ar
     2    36    38   ar
     3    36    35    1
     4    14    12   ar
     5    35    34    1
     6    10     6    1
     7    10    11    1
     8     9     7    1
     9    12    13   ar
    10    12    11    1
    11     6     7   ar
    12     6     5   ar
    13     7     8   ar
    14    34    31    1
    15     5     1    2
    16     5    39   ar
    17     1    32    1
    18     8     2    2
    19     8    39   ar
    20    31    32    1
    21    31    30    2
    22     2    15    1
    23    39    43    1
    24    32    42    2
    25    30    33    1
    26    30    29    1
    27    42    29    1
    28    42    43    1
    29    15    16    1
    30    15    40    2
    31    29     4    2
    32    19    16    1
    33    43    40    1
    34    43    41    1
    35    16    17    2
    36    40    18    1
    37     4    25    1
    38    41    25   ar
    39    41    22   ar
    40    25    24   ar
    41    17    18    1
    42    17    20    1
    43    18     3    2
    44    22     3    1
    45    22    23   ar
    46    24    27    1
    47    24    23   ar
    48    27    28    2
    49    20    21    1
    50    23    26    1
