@<TRIPOS>MOLECULE
3h4o_FMN_A_1.pdb
 31 33 0 0 0
SMALL
GASTEIGER

@<TRIPOS>ATOM
      1  N1         3.4570   69.5110  -15.0040 N.2   300  FMN300     -0.2887
      2  C2         2.8650   70.0760  -16.0780 C.1   300  FMN300      0.3669
      3  O2         3.0560   69.5840  -17.2120 O.2   300  FMN300     -0.1744
      4  N3         2.0590   71.1770  -15.9690 N.2   300  FMN300     -0.2300
      5  C4         1.8370   71.7800  -14.7540 C.1   300  FMN300      0.2513
      6  O4         1.1400   72.7820  -14.6710 O.2   300  FMN300     -0.2057
      7  C4A        2.4630   71.2140  -13.6430 C.2   300  FMN300      0.2706
      8  N5         2.2760   71.7880  -12.3890 N.2   300  FMN300     -0.3841
      9  C5A        2.7690   71.1060  -11.2700 C.2   300  FMN300      0.1452
     10  C6         2.4870   71.6110   -9.9690 C.2   300  FMN300      0.0252
     11  C7         2.8750   70.8970   -8.8470 C.2   300  FMN300     -0.0375
     12  C7M        2.5410   71.4610   -7.4670 C.3   300  FMN300      0.0268
     13  C8         3.5400   69.6810   -8.9870 C.3   300  FMN300      0.0417
     14  C8M        3.9480   68.8810   -7.7930 C.3   300  FMN300      0.0091
     15  C9         3.8350   69.1720  -10.2750 C.2   300  FMN300     -0.0049
     16  C9A        3.4460   69.9050  -11.4110 C.2   300  FMN300      0.0795
     17  N10        3.7550   69.4380  -12.6760 N.pl3 300  FMN300     -0.2545
     18  C10        3.2370   70.0780  -13.7800 C.2   300  FMN300      0.2449
     19  C1'        4.4930   68.1290  -12.8060 C.3   300  FMN300      0.1336
     20  C2'        5.9680   68.3490  -12.5120 C.3   300  FMN300      0.2048
     21  O2'        6.6270   69.0290  -13.6120 O.3   300  FMN300     -0.2185
     22  C3'        6.6480   67.0200  -12.1810 C.3   300  FMN300      0.2165
     23  O3'        5.9980   66.4710  -11.0200 O.3   300  FMN300     -0.2175
     24  C4'        8.1490   67.1040  -11.8820 C.3   300  FMN300      0.2147
     25  O4'        8.8420   67.5940  -13.0150 O.3   300  FMN300     -0.2176
     26  C5'        8.6970   65.7510  -11.4610 C.3   300  FMN300      0.1892
     27  O5'        8.4130   64.7500  -12.4420 O.3   300  FMN300     -0.2674
     28  P          7.6830   63.4030  -12.0300 P.3   300  FMN300      0.5327
     29  O1P        7.5430   62.6510  -13.3460 O.2   300  FMN300     -0.2224
     30  O2P        6.3210   63.8090  -11.4100 O.3   300  FMN300     -0.1145
     31  O3P        8.4950   62.6490  -11.0250 O.3   300  FMN300     -0.1145
@<TRIPOS>BOND
     1     3     2    2
     2     2     4    2
     3     2     1    2
     4     4     5    2
     5     1    18    2
     6     5     6    2
     7     5     7    1
     8    18     7    1
     9    18    17    1
    10     7     8    2
    11    21    20    1
    12    29    28    2
    13    25    24    1
    14    19    17    1
    15    19    20    1
    16    17    16    1
    17    20    22    1
    18    27    28    1
    19    27    26    1
    20     8     9    2
    21    22    24    1
    22    22    23    1
    23    28    30    1
    24    28    31    1
    25    24    26    1
    26    16     9    1
    27    16    15    2
    28     9    10    1
    29    15    13    1
    30    10    11    2
    31    13    11    1
    32    13    14    1
    33    11    12    1
