@<TRIPOS>MOLECULE
3h4t_UDP_A_1.pdb
 25 26 0 0 0
SMALL
GASTEIGER

@<TRIPOS>ATOM
      1  N1        21.3050   29.9130    9.5030 N.am  604  UDP604     -0.1766
      2  C2        21.1550   29.3030    8.2760 C.1   604  UDP604      0.2845
      3  N3        22.0260   28.2980    7.9350 N.2   604  UDP604     -0.2452
      4  C4        23.0310   27.8800    8.7780 C.1   604  UDP604      0.2182
      5  C5        23.1820   28.5000   10.0180 C.2   604  UDP604      0.1242
      6  C6        22.3400   29.5670   10.3410 C.2   604  UDP604      0.0929
      7  O2        20.2700   29.6340    7.4850 O.2   604  UDP604     -0.1918
      8  O4        23.7710   26.9660    8.3970 O.2   604  UDP604     -0.2085
      9  C1'       20.3470   30.9500    9.9050 C.3   604  UDP604      0.2401
     10  C2'       19.2930   30.3700   10.8460 C.3   604  UDP604      0.2319
     11  O2'       18.2520   29.6560   10.2070 O.3   604  UDP604     -0.2157
     12  C3'       18.8080   31.6180   11.5470 C.3   604  UDP604      0.2158
     13  C4'       20.1050   32.3990   11.7010 C.3   604  UDP604      0.1799
     14  O4'       20.9730   31.9440   10.6750 O.3   604  UDP604     -0.3320
     15  O3'       17.9180   32.3410   10.7170 O.3   604  UDP604     -0.2175
     16  C5'       20.7440   32.1720   13.0640 C.3   604  UDP604      0.1813
     17  O5'       19.9140   32.7900   14.0200 O.3   604  UDP604     -0.3111
     18  PA        20.2290   32.6840   15.5900 P.3   604  UDP604      0.2231
     19  O1A       20.0120   31.3050   16.0720 O.2   604  UDP604     -0.5169
     20  O2A       19.3910   33.7120   16.2520 O.3   604  UDP604     -0.4370
     21  O3A       21.7790   33.1470   15.6120 O.3   604  UDP604     -0.2261
     22  PB        23.0970   32.7420   16.4470 P.3   604  UDP604      0.5373
     23  O1B       24.0320   33.8320   16.0620 O.3   604  UDP604     -0.1143
     24  O2B       23.5460   31.4080   15.9650 O.2   604  UDP604     -0.2221
     25  O3B       22.7730   32.6550   17.8940 O.3   604  UDP604     -0.1143
@<TRIPOS>BOND
     1     7     2    2
     2     3     2    2
     3     3     4    2
     4     2     1   am
     5     8     4    2
     6     4     5    1
     7     1     9    1
     8     1     6    1
     9     9    14    1
    10     9    10    1
    11     5     6    2
    12    11    10    1
    13    14    13    1
    14    15    12    1
    15    10    12    1
    16    12    13    1
    17    13    16    1
    18    16    17    1
    19    17    18    1
    20    18    21    1
    21    18    19    2
    22    18    20    1
    23    21    22    1
    24    24    22    2
    25    23    22    1
    26    22    25    1
