@<TRIPOS>MOLECULE
3h4v_NAP_A_1.pdb
 48 52 0 0 0
SMALL
GASTEIGER

@<TRIPOS>ATOM
      1  PA        -3.8300  -17.3430   24.9500 P.3   300  NAP300      0.2189
      2  O1A       -3.9810  -17.5770   26.3940 O.3   300  NAP300     -0.4371
      3  O2A       -5.1080  -17.2270   24.2570 O.2   300  NAP300     -0.5170
      4  O5B       -3.0090  -18.6420   24.4820 O.3   300  NAP300     -0.3112
      5  C5B       -1.9520  -18.6130   23.5750 C.3   300  NAP300      0.1813
      6  C4B       -1.7490  -20.0220   23.0500 C.3   300  NAP300      0.1820
      7  O4B       -0.6740  -20.5530   23.7770 O.3   300  NAP300     -0.3136
      8  C3B       -2.8740  -21.0360   23.2930 C.3   300  NAP300      0.2157
      9  O3B       -3.8780  -21.0880   22.3030 O.3   300  NAP300     -0.2175
     10  C2B       -2.1090  -22.3600   23.3810 C.3   300  NAP300      0.2314
     11  O2B       -2.1570  -23.1270   22.2150 O.3   300  NAP300     -0.2630
     12  C1B       -0.6490  -21.9440   23.5660 C.3   300  NAP300      0.3158
     13  N9A       -0.0610  -22.6910   24.6770 N.pl3 300  NAP300     -0.1439
     14  C8A       -0.3980  -22.6220   26.0000 C.3   300  NAP300      0.3377
     15  N7A        0.3160  -23.5350   26.6870 N.2   300  NAP300     -0.2095
     16  C5A        1.1220  -24.1630   25.8030 C.2   300  NAP300      0.2526
     17  C6A        2.0640  -25.1510   25.9550 C.2   300  NAP300      0.4393
     18  N6A        2.2670  -25.7920   27.1490 N.pl3 300  NAP300      0.2180
     19  N1A        2.6650  -25.6320   24.7740 N.2   300  NAP300      0.0021
     20  C2A        2.3860  -25.1540   23.5270 C.3   300  NAP300      0.5254
     21  N3A        1.4860  -24.1560   23.4310 N.2   300  NAP300     -0.0055
     22  C4A        0.8670  -23.6760   24.5410 C.2   300  NAP300      0.3518
     23  O3        -2.8880  -16.1090   24.5970 O.3   300  NAP300     -0.2703
     24  PN        -3.4370  -14.6870   24.1580 P.3   300  NAP300      0.2189
     25  O1N       -4.4460  -14.2140   25.1190 O.3   300  NAP300     -0.4371
     26  O2N       -3.7420  -14.8860   22.7060 O.2   300  NAP300     -0.5170
     27  O5D       -2.1570  -13.7030   24.3040 O.3   300  NAP300     -0.3112
     28  C5D       -1.0310  -14.0220   23.5390 C.3   300  NAP300      0.1813
     29  C4D        0.2950  -13.6980   24.1700 C.3   300  NAP300      0.1799
     30  O4D        0.2920  -12.3780   24.6300 O.3   300  NAP300     -0.3327
     31  C3D        0.5730  -14.5990   25.3550 C.3   300  NAP300      0.2158
     32  O3D        1.9640  -14.7560   25.4360 O.3   300  NAP300     -0.2175
     33  C2D        0.2190  -13.7170   26.5440 C.3   300  NAP300      0.2309
     34  O2D        0.9920  -14.0020   27.6930 O.3   300  NAP300     -0.2158
     35  C1D        0.4760  -12.3250   26.0470 C.3   300  NAP300      0.2263
     36  N1N       -0.4640  -11.4800   26.7900 N.pl3 300  NAP300     -0.2787
     37  C2N       -1.8100  -11.5690   26.5780 C.3   300  NAP300      0.1244
     38  C3N       -2.7150  -10.7940   27.2860 C.2   300  NAP300      0.0544
     39  C7N       -4.2010  -10.7760   26.9800 C.2   300  NAP300      0.2818
     40  O7N       -4.9730   -9.8100   27.6610 O.2   300  NAP300     -0.2670
     41  N7N       -4.7730  -11.6350   26.1250 N.am  300  NAP300     -0.0839
     42  C4N       -2.2140   -9.9190   28.2460 C.2   300  NAP300      0.0033
     43  C5N       -0.8420   -9.8340   28.4930 C.2   300  NAP300      0.0157
     44  C6N        0.0360  -10.6300   27.7500 C.2   300  NAP300      0.0633
     45  P2B       -3.2780  -24.2530   21.9470 P.3   300  NAP300      0.5328
     46  O1X       -2.9400  -24.5870   20.5140 O.2   300  NAP300     -0.2224
     47  O2X       -3.0640  -25.4000   22.8830 O.3   300  NAP300     -0.1145
     48  O3X       -4.6450  -23.6550   22.0020 O.3   300  NAP300     -0.1145
@<TRIPOS>BOND
     1    46    45    2
     2    45    48    1
     3    45    11    1
     4    45    47    1
     5    11    10    1
     6     9     8    1
     7    26    24    2
     8     6     8    1
     9     6     5    1
    10     6     7    1
    11     8    10    1
    12    10    12    1
    13    21    20    1
    14    21    22    2
    15    20    19    1
    16    28    29    1
    17    28    27    1
    18    12     7    1
    19    12    13    1
    20     5     4    1
    21    24    27    1
    22    24    23    1
    23    24    25    1
    24    29    30    1
    25    29    31    1
    26     3     1    2
    27     4     1    1
    28    22    13    1
    29    22    16    1
    30    23     1    1
    31    30    35    1
    32    13    14    1
    33    19    17    2
    34     1     2    1
    35    31    32    1
    36    31    33    1
    37    16    17    1
    38    16    15    2
    39    17    18    1
    40    14    15    1
    41    35    33    1
    42    35    36    1
    43    41    39   am
    44    33    34    1
    45    37    36    1
    46    37    38    1
    47    36    44    1
    48    39    38    1
    49    39    40    2
    50    38    42    2
    51    44    43    2
    52    42    43    1
