@<TRIPOS>MOLECULE
3h4v_DVP_A_1.pdb
 32 35 0 0 0
SMALL
GASTEIGER

@<TRIPOS>ATOM
      1  CAY       -7.5820  -16.2420   41.6510 C.3   301  DVP301      0.2556
      2  OAX       -8.2940  -15.5190   40.6200 O.3   301  DVP301     -0.4444
      3  CAW       -8.2750  -14.1410   40.7720 C.2   301  DVP301      0.3167
      4  OBF       -7.8870  -13.6400   41.8310 O.2   301  DVP301     -0.2501
      5  CAV       -8.7160  -13.1930   39.6210 C.3   301  DVP301      0.1025
      6  CAU      -10.0790  -13.5830   38.9920 C.3   301  DVP301      0.0327
      7  CAT      -10.4580  -12.6640   37.7960 C.3   301  DVP301      0.0943
      8  CAI       -7.6360  -13.1710   38.5390 C.3   301  DVP301      0.0327
      9  CAH       -7.9310  -12.0560   37.5470 C.3   301  DVP301      0.0943
     10  NAG       -9.2730  -12.2640   36.9130 N.am  301  DVP301     -0.2761
     11  CAF       -9.4240  -12.0930   35.5710 C.2   301  DVP301      0.2490
     12  OAA      -10.5300  -12.2410   35.0530 O.2   301  DVP301     -0.2699
     13  CAE       -8.2350  -11.6720   34.6860 C.ar  301  DVP301      0.0537
     14  CAS       -7.4050  -10.6420   35.1310 C.ar  301  DVP301      0.0058
     15  CAR       -6.3240  -10.1980   34.3850 C.ar  301  DVP301      0.0162
     16  CAD       -7.9930  -12.2530   33.4530 C.ar  301  DVP301      0.0058
     17  CAC       -6.9170  -11.8050   32.6950 C.ar  301  DVP301      0.0162
     18  CAQ       -6.0790  -10.7800   33.1570 C.ar  301  DVP301      0.0658
     19  N10       -5.0210  -10.3250   32.4800 N.pl3 301  DVP301     -0.2303
     20  C9        -4.9200  -10.3450   31.0350 C.3   301  DVP301      0.1682
     21  C6        -4.0160  -11.4910   30.5390 C.2   301  DVP301      0.1348
     22  C7        -2.6370  -11.4740   30.8130 C.3   301  DVP301      0.1931
     23  N8        -1.8410  -12.4280   30.3500 N.2   301  DVP301     -0.1998
     24  C8A       -2.3590  -13.4420   29.6370 C.1   301  DVP301      0.1314
     25  N1        -1.5610  -14.4300   29.1600 N.2   301  DVP301     -0.2684
     26  C2        -2.0780  -15.4310   28.4410 C.1   301  DVP301      0.2519
     27  N2        -1.2990  -16.3930   27.9980 N.pl3 301  DVP301     -0.0226
     28  N3        -3.3960  -15.4740   28.1690 N.2   301  DVP301     -0.3033
     29  C4        -4.2520  -14.5250   28.5890 C.2   301  DVP301      0.2728
     30  N4        -5.5350  -14.6150   28.2760 N.pl3 301  DVP301     -0.0887
     31  C4A       -3.7470  -13.4580   29.3440 C.2   301  DVP301      0.2518
     32  N5        -4.5520  -12.4880   29.8040 N.2   301  DVP301     -0.3916
@<TRIPOS>BOND
     1    27    26    1
     2    28    26    2
     3    28    29    2
     4    30    29    1
     5    26    25    2
     6    29    31    1
     7    25    24    2
     8    31    24    1
     9    31    32    2
    10    24    23    2
    11    32    21    2
    12    23    22    1
    13    21    22    1
    14    21    20    1
    15    20    19    1
    16    19    18    1
    17    17    18   ar
    18    17    16   ar
    19    18    15   ar
    20    16    13   ar
    21    15    14   ar
    22    13    14   ar
    23    13    11    1
    24    12    11    2
    25    11    10   am
    26    10     9    1
    27    10     7    1
    28     9     8    1
    29     7     6    1
    30     8     5    1
    31     6     5    1
    32     5     3    1
    33     2     3    1
    34     2     1    1
    35     3     4    2
