@<TRIPOS>MOLECULE
3h4z_GLC_A_1.pdb
 11 11 0 0 0
SMALL
GASTEIGER

@<TRIPOS>ATOM
      1  C1        33.0220    3.8830   14.4960 C.3   671  GLC671      0.1777
      2  C2        34.3650    4.2760   15.0980 C.3   671  GLC671      0.2141
      3  C3        34.3970    5.7930   15.2770 C.3   671  GLC671      0.2173
      4  C4        34.1710    6.4830   13.9290 C.3   671  GLC671      0.2142
      5  C5        32.8730    5.9700   13.2840 C.3   671  GLC671      0.1810
      6  C6        32.7130    6.4580   11.8610 C.3   671  GLC671      0.2141
      7  O2        34.5280    3.6370   16.3530 O.3   671  GLC671     -0.2176
      8  O3        35.6440    6.1890   15.8190 O.3   671  GLC671     -0.2175
      9  O4        34.0880    7.8890   14.1240 O.3   671  GLC671     -0.2176
     10  O5        32.8670    4.5230   13.2340 O.3   671  GLC671     -0.3481
     11  O6        31.3790    6.2880   11.4100 O.3   671  GLC671     -0.2176
@<TRIPOS>BOND
     1    11     6    1
     2     6     5    1
     3    10     5    1
     4    10     1    1
     5     5     4    1
     6     4     9    1
     7     4     3    1
     8     1     2    1
     9     2     3    1
    10     2     7    1
    11     3     8    1
