@<TRIPOS>MOLECULE
3h52_486_A_1.pdb
 32 36 0 0 0
SMALL
GASTEIGER

@<TRIPOS>ATOM
      1  O30      -50.2650   15.0510  -37.7710 O.2     3  4863       -0.2913
      2  C2       -49.3730   14.8450  -38.5840 C.2     3  4863        0.1731
      3  C1       -49.3600   15.6690  -39.8470 C.3     3  4863        0.0738
      4  C3       -48.4030   13.8470  -38.3380 C.2     3  4863        0.0329
      5  C4       -47.4220   13.5820  -39.2290 C.2     3  4863       -0.0239
      6  C7       -46.3740   12.5250  -38.9910 C.3     3  4863        0.0264
      7  C5       -47.3230   14.3280  -40.4790 C.2     3  4863       -0.0332
      8  C6       -47.9990   15.6800  -40.5460 C.3     3  4863        0.0335
      9  C10      -46.6400   13.8450  -41.5240 C.2     3  4863       -0.0450
     10  C14      -46.5560   14.6920  -42.7820 C.3     3  4863        0.0403
     11  C18      -45.3810   15.6340  -42.6260 C.ar    3  4863       -0.0187
     12  C22      -44.7920   16.2210  -43.7360 C.ar    3  4863       -0.0027
     13  C23      -43.7130   17.0810  -43.6220 C.ar    3  4863        0.0142
     14  C24      -43.2190   17.3580  -42.3620 C.ar    3  4863        0.0479
     15  N27      -42.1420   18.2250  -42.2190 N.pl3   3  4863       -0.3041
     16  C29      -41.5600   18.8200  -43.4110 C.3     3  4863        0.1122
     17  C28      -41.6120   18.5230  -40.8850 C.3     3  4863        0.1122
     18  C25      -43.8060   16.7690  -41.2480 C.ar    3  4863        0.0142
     19  C26      -44.8820   15.9180  -41.3730 C.ar    3  4863       -0.0027
     20  C13      -46.4340   13.8860  -44.0980 C.3     3  4863        0.0117
     21  C12      -45.6570   12.5860  -43.9430 C.3     3  4863        0.0374
     22  C19      -44.1710   12.8510  -43.6990 C.3     3  4863        0.0035
     23  C17      -45.8410   11.5340  -45.0490 C.3     3  4863        0.1788
     24  C31      -47.2780   11.3250  -45.3220 C.1     3  4863       -0.0622
     25  C30      -48.4370   11.1690  -45.4860 C.1     3  4863       -0.0877
     26  C32      -49.8680   10.8670  -45.6950 C.3     3  4863        0.0900
     27  O3       -45.1630   11.8290  -46.2740 O.3     3  4863       -0.2125
     28  C16      -45.2220   10.2730  -44.4130 C.3     3  4863        0.0430
     29  C15      -45.4670   10.4500  -42.8890 C.3     3  4863        0.0040
     30  C11      -46.2360   11.7760  -42.7560 C.3     3  4863        0.0071
     31  C9       -45.9370   12.5220  -41.4670 C.3     3  4863        0.0187
     32  C8       -46.3400   11.6840  -40.2660 C.3     3  4863        0.0087
@<TRIPOS>BOND
     1    27    23    1
     2    26    25    1
     3    25    24    3
     4    24    23    1
     5    23    28    1
     6    23    21    1
     7    28    29    1
     8    20    21    1
     9    20    10    1
    10    21    22    1
    11    21    30    1
    12    12    13   ar
    13    12    11   ar
    14    13    14   ar
    15    16    15    1
    16    29    30    1
    17    10    11    1
    18    10     9    1
    19    30    31    1
    20    11    19   ar
    21    14    15    1
    22    14    18   ar
    23    15    17    1
    24     9    31    1
    25     9     7    2
    26    31    32    1
    27    19    18   ar
    28     8     7    1
    29     8     3    1
    30     7     5    1
    31    32     6    1
    32     3     2    1
    33     5     6    1
    34     5     4    2
    35     2     4    1
    36     2     1    2
