@<TRIPOS>MOLECULE
3h54_A2G_A_1.pdb
 15 15 0 0 0
SMALL
GASTEIGER

@<TRIPOS>ATOM
      1  O         60.0000   -6.3600   18.1810 O.3   1000  A2G1000    -0.3242
      2  C1        59.0430   -5.6390   18.9770 C.3   1000  A2G1000     0.2917
      3  O1        58.2930   -6.5270   19.8030 O.3   1000  A2G1000    -0.1879
      4  C2        58.1100   -4.8240   18.0820 C.3   1000  A2G1000     0.1871
      5  N2        57.1660   -4.0520   18.8660 N.am  1000  A2G1000    -0.1991
      6  C3        57.4330   -5.7250   17.0510 C.3   1000  A2G1000     0.2095
      7  O3        56.5920   -4.9280   16.2180 O.3   1000  A2G1000    -0.2183
      8  C4        58.5090   -6.3890   16.2030 C.3   1000  A2G1000     0.2136
      9  O4        59.1790   -5.3780   15.4300 O.3   1000  A2G1000    -0.2176
     10  C5        59.5090   -7.1520   17.0850 C.3   1000  A2G1000     0.1835
     11  C6        60.7100   -7.5930   16.2610 C.3   1000  A2G1000     0.2142
     12  O6        61.5900   -8.4120   17.0350 O.3   1000  A2G1000    -0.2176
     13  C7        57.2170   -2.7150   18.8630 C.2   1000  A2G1000     0.2421
     14  O7        57.8410   -2.0850   18.0180 O.2   1000  A2G1000    -0.2733
     15  C8        56.4570   -2.0250   19.9580 C.3   1000  A2G1000     0.0964
@<TRIPOS>BOND
     1     9     8    1
     2     8     6    1
     3     8    10    1
     4     7     6    1
     5    11    12    1
     6    11    10    1
     7     6     4    1
     8    10     1    1
     9    14    13    2
    10     4     5    1
    11     4     2    1
    12     1     2    1
    13    13     5   am
    14    13    15    1
    15     2     3    1
