@<TRIPOS>MOLECULE
3h55_GLA_A_1.pdb
 12 12 0 0 0
SMALL
GASTEIGER

@<TRIPOS>ATOM
      1  C1        58.9850   -5.7720   18.8750 C.3   1000  GLA1000     0.3024
      2  C2        58.0350   -5.0110   17.9480 C.3   1000  GLA1000     0.2434
      3  C3        57.4680   -5.9170   16.8600 C.3   1000  GLA1000     0.2199
      4  C4        58.6190   -6.4780   16.0380 C.3   1000  GLA1000     0.2144
      5  C5        59.6150   -7.1920   16.9680 C.3   1000  GLA1000     0.1836
      6  C6        60.8870   -7.5550   16.2260 C.3   1000  GLA1000     0.2142
      7  O1        58.2920   -6.7450   19.6640 O.3   1000  GLA1000    -0.1869
      8  O2        56.9760   -4.4290   18.6980 O.3   1000  GLA1000    -0.2148
      9  O3        56.6090   -5.1410   16.0210 O.3   1000  GLA1000    -0.2174
     10  O4        59.2400   -5.3980   15.3100 O.3   1000  GLA1000    -0.2176
     11  O5        60.0120   -6.4080   18.1030 O.3   1000  GLA1000    -0.3236
     12  O6        61.6370   -8.4850   17.0050 O.3   1000  GLA1000    -0.2176
@<TRIPOS>BOND
     1    10     4    1
     2     9     3    1
     3     4     3    1
     4     4     5    1
     5     6     5    1
     6     6    12    1
     7     3     2    1
     8     5    11    1
     9     2     8    1
    10     2     1    1
    11    11     1    1
    12     1     7    1
