@<TRIPOS>MOLECULE
3h55_NAG_A_1.pdb
 14 14 0 0 0
SMALL
GASTEIGER

@<TRIPOS>ATOM
      1  C1        64.0570   18.6770    8.1280 C.3   677  NAG677      0.1665
      2  C2        63.1490   18.2440    6.9730 C.3   677  NAG677      0.1576
      3  C3        62.4520   19.4540    6.3580 C.3   677  NAG677      0.2069
      4  C4        61.8280   20.3710    7.4160 C.3   677  NAG677      0.2134
      5  C5        62.8690   20.6950    8.4990 C.3   677  NAG677      0.1809
      6  C6        62.3510   21.5770    9.6370 C.3   677  NAG677      0.2141
      7  C7        63.9560   16.2520    5.7800 C.2   677  NAG677      0.2420
      8  C8        64.9370   15.7360    4.7690 C.3   677  NAG677      0.0964
      9  N2        63.9200   17.5770    5.9350 N.am  677  NAG677     -0.2019
     10  O3        61.4840   19.0060    5.4280 O.3   677  NAG677     -0.2184
     11  O4        61.4240   21.5610    6.7750 O.3   677  NAG677     -0.2176
     12  O5        63.3470   19.4840    9.0490 O.3   677  NAG677     -0.3489
     13  O6        61.3490   20.9030   10.3690 O.3   677  NAG677     -0.2176
     14  O7        63.2510   15.4610    6.4170 O.2   677  NAG677     -0.2733
@<TRIPOS>BOND
     1     8     7    1
     2    10     3    1
     3     7     9   am
     4     7    14    2
     5     9     2    1
     6     3     2    1
     7     3     4    1
     8    11     4    1
     9     2     1    1
    10     4     5    1
    11     1    12    1
    12     5    12    1
    13     5     6    1
    14     6    13    1
