@<TRIPOS>MOLECULE
3h57_HEM_A_1.pdb
 43 50 0 0 0
SMALL
GASTEIGER

@<TRIPOS>ATOM
      1  CHA       37.5060    2.5190   11.4610 C.2   154  HEM154      0.0000
      2  CHB       36.7640    5.4370    7.7010 C.2   154  HEM154      0.0000
      3  CHC       32.2820    6.2470    9.2430 C.2   154  HEM154      0.0000
      4  CHD       33.0230    3.3190   12.9730 C.2   154  HEM154      0.0000
      5  C1A       37.6770    3.2260   10.2880 C.ar  154  HEM154      0.0000
      6  C2A       38.9000    3.2260    9.5150 C.ar  154  HEM154      0.0000
      7  C3A       38.7010    4.0610    8.4750 C.ar  154  HEM154      0.0000
      8  C4A       37.3490    4.5600    8.5970 C.ar  154  HEM154      0.0000
      9  CMA       39.6940    4.3730    7.3640 C.3   154  HEM154      0.0000
     10  CAA       40.1280    2.3560    9.7540 C.3   154  HEM154      0.0000
     11  CBA       40.2240    1.1770    8.7780 C.3   154  HEM154      0.0000
     12  CGA       39.0050    0.2620    8.8290 C.2   154  HEM154      0.0000
     13  O1A       38.7550   -0.3560    9.8860 O.co2 154  HEM154      0.0000
     14  O2A       38.2960    0.1650    7.8080 O.co2 154  HEM154      0.0000
     15  C1B       35.4570    5.8820    7.7770 C.2   154  HEM154      0.0000
     16  C2B       34.8650    6.8340    6.8590 C.2   154  HEM154      0.0000
     17  C3B       33.5990    7.0550    7.2910 C.2   154  HEM154      0.0000
     18  C4B       33.4230    6.2390    8.4730 C.2   154  HEM154      0.0000
     19  CMB       35.5270    7.4420    5.6250 C.3   154  HEM154      0.0000
     20  CAB       32.6340    7.8680    6.6960 C.3   154  HEM154      0.0000
     21  CBB       32.8960    9.2480    6.3320 C.3   154  HEM154      0.0000
     22  C1C       32.1050    5.5200   10.3960 C.ar  154  HEM154      0.0000
     23  C2C       30.9260    5.6150   11.2310 C.ar  154  HEM154      0.0000
     24  C3C       31.1250    4.7780   12.2780 C.ar  154  HEM154      0.0000
     25  C4C       32.4380    4.1910   12.0860 C.ar  154  HEM154      0.0000
     26  CMC       29.7090    6.5040   10.9860 C.3   154  HEM154      0.0000
     27  CAC       30.2180    4.4520   13.2850 C.3   154  HEM154      0.0000
     28  CBC       29.3780    5.4340   13.9450 C.3   154  HEM154      0.0000
     29  C1D       34.2970    2.8200   12.8570 C.2   154  HEM154      0.0000
     30  C2D       34.9200    1.9840   13.8560 C.2   154  HEM154      0.0000
     31  C3D       36.1950    1.8020   13.4680 C.2   154  HEM154      0.0000
     32  C4D       36.3400    2.4860   12.1940 C.2   154  HEM154      0.0000
     33  CMD       34.2550    1.4100   15.1040 C.3   154  HEM154      0.0000
     34  CAD       37.3100    1.1920   14.3050 C.3   154  HEM154      0.0000
     35  CBD       37.9930    2.2320   15.1910 C.3   154  HEM154      0.0000
     36  CGD       39.1170    1.6550   16.0300 C.2   154  HEM154      0.0000
     37  O1D       38.8650    1.2690   17.1910 O.co2 154  HEM154      0.0000
     38  O2D       40.2550    1.5790   15.5260 O.co2 154  HEM154      0.0000
     39  NA        36.7080    4.0230    9.7040 N.ar  154  HEM154      0.0000
     40  NB        34.5600    5.5030    8.7620 N.2   154  HEM154      0.0000
     41  NC        33.0410    4.6490   10.9250 N.ar  154  HEM154      0.0000
     42  ND        35.1690    3.1220   11.8260 N.2   154  HEM154      0.0000
     43 FE         34.8040    4.1520   10.1770 Fe    154  HEM154      0.0000
@<TRIPOS>BOND
     1    19    16    1
     2    21    20    1
     3    20    17    1
     4    16    17    2
     5    16    15    1
     6    17    18    1
     7     9     7    1
     8     2    15    1
     9     2     8    2
    10    15    40    2
    11    14    12   ar
    12    18    40    1
    13    18     3    2
    14     7     8   ar
    15     7     6   ar
    16     8    39   ar
    17    40    43    1
    18    11    12    1
    19    11    10    1
    20    12    13   ar
    21     3    22    1
    22     6    10    1
    23     6     5   ar
    24    39    43    1
    25    39     5   ar
    26    43    41    1
    27    43    42    1
    28     5     1    2
    29    22    41   ar
    30    22    23   ar
    31    41    25   ar
    32    26    23    1
    33    23    24   ar
    34     1    32    1
    35    42    32    2
    36    42    29    1
    37    25    24   ar
    38    25     4    1
    39    32    31    1
    40    24    27    1
    41    29     4    2
    42    29    30    1
    43    27    28    1
    44    31    30    2
    45    31    34    1
    46    30    33    1
    47    34    35    1
    48    35    36    1
    49    38    36   ar
    50    36    37   ar
