@<TRIPOS>MOLECULE
3h58_HEM_A_1.pdb
 43 50 0 0 0
SMALL
GASTEIGER

@<TRIPOS>ATOM
      1  CHA       37.5790    2.4880   11.4680 C.2   154  HEM154      0.0000
      2  CHB       36.8290    5.3620    7.6760 C.2   154  HEM154      0.0000
      3  CHC       32.3270    6.1420    9.1610 C.2   154  HEM154      0.0000
      4  CHD       33.0690    3.2750   12.9500 C.2   154  HEM154      0.0000
      5  C1A       37.7630    3.2090   10.2960 C.ar  154  HEM154      0.0000
      6  C2A       38.9890    3.2160    9.5210 C.ar  154  HEM154      0.0000
      7  C3A       38.7800    4.0440    8.4750 C.ar  154  HEM154      0.0000
      8  C4A       37.4260    4.5300    8.5940 C.ar  154  HEM154      0.0000
      9  CMA       39.7730    4.3830    7.3770 C.3   154  HEM154      0.0000
     10  CAA       40.2260    2.3570    9.7590 C.3   154  HEM154      0.0000
     11  CBA       40.3260    1.1860    8.7850 C.3   154  HEM154      0.0000
     12  CGA       39.0660    0.3350    8.7620 C.2   154  HEM154      0.0000
     13  O1A       38.7500   -0.3060    9.7900 O.co2 154  HEM154      0.0000
     14  O2A       38.3830    0.3150    7.7160 O.co2 154  HEM154      0.0000
     15  C1B       35.5230    5.7860    7.7380 C.2   154  HEM154      0.0000
     16  C2B       34.9140    6.6690    6.7640 C.2   154  HEM154      0.0000
     17  C3B       33.6410    6.8830    7.1780 C.2   154  HEM154      0.0000
     18  C4B       33.4800    6.1320    8.4060 C.2   154  HEM154      0.0000
     19  CMB       35.5810    7.2290    5.5070 C.3   154  HEM154      0.0000
     20  CAB       32.6460    7.6140    6.5270 C.3   154  HEM154      0.0000
     21  CBB       32.8410    8.9810    6.0890 C.3   154  HEM154      0.0000
     22  C1C       32.1520    5.4480   10.3400 C.ar  154  HEM154      0.0000
     23  C2C       30.9630    5.5380   11.1620 C.ar  154  HEM154      0.0000
     24  C3C       31.1690    4.7210   12.2310 C.ar  154  HEM154      0.0000
     25  C4C       32.4850    4.1470   12.0540 C.ar  154  HEM154      0.0000
     26  CMC       29.7490    6.4210   10.8990 C.3   154  HEM154      0.0000
     27  CAC       30.2780    4.4210   13.2700 C.3   154  HEM154      0.0000
     28  CBC       29.3350    5.3730   13.8300 C.3   154  HEM154      0.0000
     29  C1D       34.3510    2.7810   12.8470 C.2   154  HEM154      0.0000
     30  C2D       34.9710    1.9570   13.8530 C.2   154  HEM154      0.0000
     31  C3D       36.2500    1.7760   13.4720 C.2   154  HEM154      0.0000
     32  C4D       36.4010    2.4460   12.1940 C.2   154  HEM154      0.0000
     33  CMD       34.3010    1.3830   15.0930 C.3   154  HEM154      0.0000
     34  CAD       37.3530    1.1710   14.3150 C.3   154  HEM154      0.0000
     35  CBD       38.1060    2.2320   15.1060 C.3   154  HEM154      0.0000
     36  CGD       39.1940    1.6520   15.9820 C.2   154  HEM154      0.0000
     37  O1D       38.8830    1.2100   17.1090 O.co2 154  HEM154      0.0000
     38  O2D       40.3590    1.6320   15.5390 O.co2 154  HEM154      0.0000
     39  NA        36.7930    4.0070    9.7130 N.ar  154  HEM154      0.0000
     40  NB        34.6310    5.4420    8.7410 N.2   154  HEM154      0.0000
     41  NC        33.0990    4.6080   10.9030 N.ar  154  HEM154      0.0000
     42  ND        35.2310    3.0800   11.8240 N.2   154  HEM154      0.0000
     43 FE         34.9280    4.2480   10.2810 Fe    154  HEM154      0.0000
@<TRIPOS>BOND
     1    19    16    1
     2    21    20    1
     3    20    17    1
     4    16    17    2
     5    16    15    1
     6    17    18    1
     7     9     7    1
     8     2    15    1
     9     2     8    2
    10    14    12   ar
    11    15    40    2
    12    18    40    1
    13    18     3    2
    14     7     8   ar
    15     7     6   ar
    16     8    39   ar
    17    40    43    1
    18    12    11    1
    19    12    13   ar
    20    11    10    1
    21     3    22    1
    22     6    10    1
    23     6     5   ar
    24    39    43    1
    25    39     5   ar
    26    43    41    1
    27    43    42    1
    28     5     1    2
    29    22    41   ar
    30    22    23   ar
    31    26    23    1
    32    41    25   ar
    33    23    24   ar
    34     1    32    1
    35    42    32    2
    36    42    29    1
    37    25    24   ar
    38    25     4    1
    39    32    31    1
    40    24    27    1
    41    29     4    2
    42    29    30    1
    43    27    28    1
    44    31    30    2
    45    31    34    1
    46    30    33    1
    47    34    35    1
    48    35    36    1
    49    38    36   ar
    50    36    37   ar
