@<TRIPOS>MOLECULE
3h59_H59_A_1.pdb
 38 41 0 0 0
SMALL
GASTEIGER

@<TRIPOS>ATOM
      1  C1        -8.3190   -9.8640    8.1780 C.ar  571  H59571     -0.0025
      2  C2        -7.9110   -9.9980    6.8590 C.ar  571  H59571     -0.0047
      3  C3        -6.6300   -9.6440    6.4340 C.ar  571  H59571      0.0053
      4  C4        -5.7360   -9.1010    7.3300 C.ar  571  H59571      0.1361
      5  C5        -6.1400   -8.9360    8.6540 C.ar  571  H59571      0.0290
      6  C6        -7.4160   -9.3230    9.0840 C.ar  571  H59571     -0.0003
      7  C7       -10.5380   -7.8900   11.3480 C.2   571  H59571      0.1169
      8  C8       -10.8720   -7.0490   10.3190 C.2   571  H59571      0.1975
      9  C9       -10.7330   -7.8270    9.0240 C.3   571  H59571      0.1377
     10  N10      -10.1930   -9.1550    9.4340 N.am  571  H59571     -0.2664
     11  C11      -10.1050   -9.1650   10.7940 C.2   571  H59571      0.2546
     12  C12      -10.6110   -7.6850   15.7480 C.2   571  H59571      0.1330
     13  C13       -9.8950   -8.6250   14.9920 C.2   571  H59571      0.1475
     14  C14       -9.3790   -9.7800   15.6230 C.2   571  H59571      0.0306
     15  C15       -9.5540   -9.9700   16.9880 C.2   571  H59571     -0.0001
     16  C16      -10.2570   -9.0280   17.7540 C.3   571  H59571      0.1426
     17  C17      -10.7870   -7.9050   17.1100 C.2   571  H59571      0.0181
     18  C18      -10.4970   -7.6040   12.8090 C.2   571  H59571      0.1404
     19  N19       -9.7170   -8.4400   13.6160 N.2   571  H59571     -0.4029
     20  S20      -11.2690   -6.1980   14.9840 S.O2  571  H59571      0.0177
     21  C21      -11.2260   -6.5720   13.2670 C.3   571  H59571      0.2146
     22  O22      -12.6420   -5.9880   15.3670 O.2   571  H59571     -0.1681
     23  O23      -10.3320   -5.1520   15.2840 O.2   571  H59571     -0.1681
     24  N24      -10.4570   -9.2430   19.1490 N.3   571  H59571     -0.0745
     25  S25      -10.7110   -8.0620   20.2800 S.O2  571  H59571      0.0597
     26  C26      -12.5170   -7.9930   20.4300 C.3   571  H59571      0.1975
     27  O27      -10.1940   -8.6460   21.4620 O.2   571  H59571     -0.1560
     28  O28      -10.2030   -6.8470   19.7540 O.2   571  H59571     -0.1560
     29  O29      -11.2860   -5.7760   10.4480 O.2   571  H59571     -0.2894
     30  O30       -9.6500  -10.0640   11.4870 O.2   571  H59571     -0.2697
     31  C31       -9.7270  -10.2570    8.5780 C.3   571  H59571      0.1208
     32  F32       -4.4800   -8.7350    6.9150 F     571  H59571     -0.2045
     33  C33       -6.2530   -9.8380    4.9800 C.3   571  H59571      0.0334
     34  C34      -12.1090   -7.8790    8.2820 C.3   571  H59571      0.0239
     35  C35      -12.4590   -6.4300    7.9340 C.3   571  H59571      0.0020
     36  C36      -13.2820   -6.3150    6.6710 C.3   571  H59571      0.0001
     37  C37      -12.0700   -8.7310    6.9920 C.3   571  H59571      0.0021
     38  C38      -13.2230   -8.4620    9.1690 C.3   571  H59571      0.0021
@<TRIPOS>BOND
     1    33     3    1
     2     3     2   ar
     3     3     4   ar
     4    36    35    1
     5     2     1   ar
     6    32     4    1
     7    37    34    1
     8     4     5   ar
     9    35    34    1
    10     1    31    1
    11     1     6   ar
    12    34     9    1
    13    34    38    1
    14    31    10    1
    15     5     6   ar
    16     9    10    1
    17     9     8    1
    18    10    11   am
    19     8    29    1
    20     8     7    2
    21    11     7    1
    22    11    30    2
    23     7    18    1
    24    18    21    1
    25    18    19    2
    26    21    20    1
    27    19    13    2
    28    20    23    2
    29    20    22    2
    30    20    12    1
    31    13    14    1
    32    13    12    1
    33    14    15    2
    34    12    17    2
    35    15    16    1
    36    17    16    1
    37    16    24    1
    38    24    25    1
    39    28    25    2
    40    25    26    1
    41    25    27    2
