@<TRIPOS>MOLECULE
3h5b_031_B_1.pdb
 43 47 0 0 0
SMALL
GASTEIGER

@<TRIPOS>ATOM
      1  O39       10.7870   17.3300   20.6370 O.3   404  031404     -0.4714
      2  O39       21.5470   28.9820   14.7080 O.3   404  031404     -0.1951
      3  C40       10.0330   16.7010   19.6060 C.3   404  031404      0.2525
      4  C2        11.7690   18.0790   20.0770 C.ar  404  031404      0.1388
      5  C3        12.2170   17.8560   18.7860 C.ar  404  031404      0.0383
      6  C4        13.3070   18.5590   18.2630 C.ar  404  031404      0.0230
      7  C5        13.9460   19.5160   19.0380 C.ar  404  031404      0.1224
      8  C6        13.4850   19.7030   20.3250 C.ar  404  031404      0.0230
      9  C7        12.4420   18.9930   20.8820 C.ar  404  031404      0.0383
     10  S8        15.2730   20.5030   18.4590 S.O2  404  031404      0.0634
     11  O9        16.1720   20.8560   19.6060 O.2   404  031404     -0.1528
     12  O10       16.0390   19.7150   17.4480 O.2   404  031404     -0.1528
     13  N11       14.7470   21.8880   17.8040 N.3   404  031404     -0.1509
     14  C12       13.7280   21.7280   16.7890 C.3   404  031404      0.1210
     15  C13       13.7910   22.8660   15.7780 C.3   404  031404      0.1333
     16  C14       15.2190   23.1470   15.2950 C.3   404  031404      0.0443
     17  N15       13.0600   22.5300   14.5520 N.2   404  031404     -0.2068
     18  C45       13.8880   22.0130   13.6720 C.1   404  031404      0.1260
     19  O46       13.5220   21.3760   12.7020 O.2   404  031404     -0.2270
     20  C47       15.3340   22.3110   14.0230 C.3   404  031404      0.1237
     21  C16       14.4740   22.9350   18.7850 C.3   404  031404      0.1304
     22  C17       15.2570   24.1770   18.4230 C.3   404  031404      0.1898
     23  O18       14.7880   25.4020   18.9350 O.3   404  031404     -0.2197
     24  C19       16.7620   24.0450   18.5520 C.3   404  031404      0.1347
     25  N20       17.3830   25.0910   17.7460 N.am  404  031404     -0.1675
     26  C21       18.2660   24.9670   16.7700 C.2   404  031404      0.4210
     27  O22       18.5260   23.8980   16.2130 O.2   404  031404     -0.2246
     28  O23       18.8980   26.1120   16.3990 O.3   404  031404     -0.4371
     29  C24       21.0740   25.2830   15.6730 C.3   404  031404      0.0489
     30  C25       19.7570   25.9410   15.2720 C.3   404  031404      0.1756
     31  C26       20.1740   27.3410   14.7960 C.3   404  031404      0.1027
     32  C27       21.3230   27.7160   15.7290 C.3   404  031404      0.2225
     33  O28       20.8430   28.1420   17.0020 O.3   404  031404     -0.3319
     34  C29       21.8780   27.8070   17.9310 C.3   404  031404      0.1449
     35  C30       22.4350   26.4630   17.4510 C.3   404  031404      0.0372
     36  C31       22.0600   26.4070   15.9710 C.3   404  031404      0.0606
     37  C32       17.1870   24.1910   20.0130 C.3   404  031404      0.0508
     38  C33       19.5360   24.9640   20.4930 C.ar  404  031404     -0.0042
     39  C34       20.9030   24.7520   20.5430 C.ar  404  031404     -0.0003
     40  C35       21.3820   23.4640   20.3940 C.ar  404  031404     -0.0000
     41  C36       20.5320   22.4220   20.0550 C.ar  404  031404     -0.0003
     42  C37       19.1650   22.6370   19.9300 C.ar  404  031404     -0.0042
     43  C38       18.6860   23.9250   20.1400 C.ar  404  031404     -0.0204
@<TRIPOS>BOND
     1    19    18    2
     2    18    20    1
     3    18    17    2
     4    20    16    1
     5    17    15    1
     6     2    32    1
     7    31    30    1
     8    31    32    1
     9    30    29    1
    10    30    28    1
    11    16    15    1
    12    29    36    1
    13    32    36    1
    14    32    33    1
    15    15    14    1
    16    36    35    1
    17    27    26    2
    18    28    26    1
    19    26    25   am
    20    14    13    1
    21    33    34    1
    22    12    10    2
    23    35    34    1
    24    25    24    1
    25    13    10    1
    26    13    21    1
    27     6     5   ar
    28     6     7   ar
    29    22    24    1
    30    22    21    1
    31    22    23    1
    32    10     7    1
    33    10    11    2
    34    24    37    1
    35     5     4   ar
    36     7     8   ar
    37     3     1    1
    38    42    41   ar
    39    42    43   ar
    40    37    43    1
    41    41    40   ar
    42     4     1    1
    43     4     9   ar
    44    43    38   ar
    45     8     9   ar
    46    40    39   ar
    47    38    39   ar
