@<TRIPOS>MOLECULE
3h5c_BGC_B_1.pdb
 11 11 0 0 0
SMALL
GASTEIGER

@<TRIPOS>ATOM
      1  C2       -88.8950   62.6450   19.6870 C.3   401  BGC401      0.2141
      2  C3       -89.8830   62.7610   18.5290 C.3   401  BGC401      0.2173
      3  C4       -90.4400   64.1760   18.4110 C.3   401  BGC401      0.2142
      4  C5       -89.3200   65.2070   18.4820 C.3   401  BGC401      0.1810
      5  C6       -89.8950   66.6160   18.4580 C.3   401  BGC401      0.2141
      6  C1       -87.8890   63.7920   19.7020 C.3   401  BGC401      0.1777
      7  O2       -88.1980   61.4240   19.5850 O.3   401  BGC401     -0.2176
      8  O3       -90.9510   61.8620   18.7290 O.3   401  BGC401     -0.2175
      9  O4       -91.1430   64.3210   17.1950 O.3   401  BGC401     -0.2176
     10  O5       -88.5680   65.0280   19.6650 O.3   401  BGC401     -0.3481
     11  O6       -90.6930   66.8050   19.6040 O.3   401  BGC401     -0.2176
@<TRIPOS>BOND
     1     9     3    1
     2     3     4    1
     3     3     2    1
     4     5     4    1
     5     5    11    1
     6     4    10    1
     7     2     8    1
     8     2     1    1
     9     7     1    1
    10    10     6    1
    11     1     6    1
