@<TRIPOS>MOLECULE
3h5n_ATP_A_1.pdb
 31 33 0 0 0
SMALL
GASTEIGER

@<TRIPOS>ATOM
      1  PG         3.9260  -16.5130    8.3130 P.3   502  ATP502      0.5373
      2  O1G        4.3280  -17.1840    9.6030 O.3   502  ATP502     -0.1143
      3  O2G        4.9390  -15.5220    7.7890 O.3   502  ATP502     -0.1143
      4  O3G        3.3850  -17.4230    7.2340 O.2   502  ATP502     -0.2221
      5  PB         1.2730  -16.1550    9.2420 P.3   502  ATP502      0.2277
      6  O1B        1.1060  -15.8770   10.7160 O.3   502  ATP502     -0.4368
      7  O2B        1.0300  -17.5580    8.7210 O.2   502  ATP502     -0.5168
      8  O3B        2.6910  -15.5690    8.7610 O.3   502  ATP502     -0.2258
      9  PA         0.1780  -14.8930    6.9380 P.3   502  ATP502      0.2189
     10  O1A        0.8430  -13.5390    6.7610 O.3   502  ATP502     -0.4371
     11  O2A        0.6120  -16.0820    6.1210 O.2   502  ATP502     -0.5170
     12  O3A        0.2220  -15.1900    8.5150 O.3   502  ATP502     -0.2700
     13  O5'       -1.4100  -14.7050    6.7140 O.3   502  ATP502     -0.3112
     14  C5'       -2.2790  -15.8130    6.4730 C.3   502  ATP502      0.1813
     15  C4'       -3.2690  -15.8810    7.6200 C.3   502  ATP502      0.1821
     16  O4'       -4.4490  -16.5340    7.1530 O.3   502  ATP502     -0.3135
     17  C3'       -2.7500  -16.6700    8.8220 C.3   502  ATP502      0.2184
     18  O3'       -3.1160  -15.9720   10.0320 O.3   502  ATP502     -0.2174
     19  C2'       -3.4670  -18.0110    8.7380 C.3   502  ATP502      0.2570
     20  O2'       -3.7660  -18.5690   10.0230 O.3   502  ATP502     -0.2130
     21  C1'       -4.7440  -17.6570    7.9930 C.3   502  ATP502      0.3186
     22  N9        -5.2070  -18.7750    7.1460 N.pl3 502  ATP502     -0.1439
     23  C8        -4.4970  -19.4020    6.1870 C.3   502  ATP502      0.3377
     24  N7        -5.2450  -20.3660    5.5990 N.2   502  ATP502     -0.2095
     25  C5        -6.4500  -20.3560    6.2010 C.2   502  ATP502      0.2526
     26  C6        -7.7100  -21.1180    6.0710 C.2   502  ATP502      0.4393
     27  N6        -7.7950  -22.1040    5.1590 N.pl3 502  ATP502      0.2180
     28  N1        -8.7430  -20.7980    6.8850 N.2   502  ATP502      0.0021
     29  C2        -8.6550  -19.8060    7.8050 C.3   502  ATP502      0.5254
     30  N3        -7.5370  -19.0710    7.9850 N.2   502  ATP502     -0.0055
     31  C4        -6.4260  -19.3010    7.2230 C.2   502  ATP502      0.3518
@<TRIPOS>BOND
     1    27    26    1
     2    24    23    1
     3    24    25    2
     4    26    25    1
     5    26    28    2
     6    11     9    2
     7    23    22    1
     8    25    31    1
     9    14    13    1
    10    14    15    1
    11    13     9    1
    12    10     9    1
    13    28    29    1
    14     9    12    1
    15    22    31    1
    16    22    21    1
    17    16    15    1
    18    16    21    1
    19    31    30    2
    20     4     1    2
    21    15    17    1
    22     3     1    1
    23    29    30    1
    24    21    19    1
    25     1     8    1
    26     1     2    1
    27    12     5    1
    28     7     5    2
    29    19    17    1
    30    19    20    1
    31     8     5    1
    32    17    18    1
    33     5     6    1
