@<TRIPOS>MOLECULE
3h5s_H5S_A_1.pdb
 39 43 0 0 0
SMALL
GASTEIGER

@<TRIPOS>ATOM
      1  C1       -10.0420    8.2950   12.9910 C.3   571  H5S571      0.1377
      2  C3        -9.7090    9.7350   11.1920 C.2   571  H5S571      0.2539
      3  C4       -10.0370    8.4080   10.6240 C.2   571  H5S571      0.1090
      4  C5       -10.1800    7.5360   11.6890 C.2   571  H5S571      0.1968
      5  C6        -9.2140   10.7180   13.4480 C.3   571  H5S571      0.1208
      6  C7        -7.7720   10.3400   13.7720 C.ar  571  H5S571     -0.0025
      7  C8        -7.2820   10.4850   15.0730 C.ar  571  H5S571     -0.0047
      8  C9        -5.9680   10.1750   15.3590 C.ar  571  H5S571      0.0053
      9  C10       -5.1160    9.6710   14.3680 C.ar  571  H5S571      0.1361
     10  O13      -10.4330    6.2400   11.6520 O.2   571  H5S571     -0.2894
     11  N2        -9.6480    9.6510   12.5470 N.am  571  H5S571     -0.2665
     12  C11       -5.5680    9.5000   13.0600 C.ar  571  H5S571      0.0290
     13  C12       -6.8960    9.8490   12.7930 C.ar  571  H5S571     -0.0003
     14  O14       -9.4010   10.7500   10.5740 O.2   571  H5S571     -0.2697
     15  C15      -10.1360    8.0150    9.1750 C.2   571  H5S571      0.1108
     16  S16      -10.8670    6.6880    7.2690 S.O2  571  H5S571      0.1002
     17  N17      -10.7070    6.8880    8.9170 N.2   571  H5S571     -0.1275
     18  C18      -10.2430    8.2810    6.8070 C.ar  571  H5S571      0.1277
     19  C19       -9.8120    8.8790    8.0120 C.ar  571  H5S571      0.0383
     20  C20       -9.2370   10.1720    7.9020 C.ar  571  H5S571      0.0026
     21  C21       -9.0890   10.8040    6.6710 C.ar  571  H5S571     -0.0044
     22  O22       -9.9480    5.7270    6.8140 O.2   571  H5S571     -0.1463
     23  O23      -12.2510    6.5600    7.0200 O.2   571  H5S571     -0.1463
     24  C24      -11.4500    8.2970   13.7060 C.3   571  H5S571      0.0239
     25  C25      -11.7900    6.9000   14.2460 C.3   571  H5S571      0.0021
     26  C26      -11.5180    9.2010   14.9610 C.3   571  H5S571      0.0021
     27  C27      -12.6160    8.6870   12.7450 C.3   571  H5S571      0.0021
     28  F28       -3.8480    9.3620   14.6900 F     571  H5S571     -0.2045
     29  C29       -5.4560   10.3540   16.7680 C.3   571  H5S571      0.0334
     30  C30      -10.0890    8.9040    5.6000 C.ar  571  H5S571      0.0108
     31  C31       -9.5230   10.1750    5.5060 C.ar  571  H5S571     -0.0220
     32  C32       -9.3680   10.8900    4.1930 C.3   571  H5S571      0.0452
     33  C33      -10.4240   10.3940    3.1860 C.3   571  H5S571      0.1005
     34  N34      -10.4360    8.9040    3.1670 N.3   571  H5S571     -0.1546
     35  C35      -10.5620    8.1370    4.4120 C.3   571  H5S571      0.1227
     36  S36      -10.4750    8.0300    1.7660 S.O2  571  H5S571      0.0460
     37  O37       -9.8360    8.8060    0.7490 O.2   571  H5S571     -0.1572
     38  O38      -10.0250    6.7130    2.0810 O.2   571  H5S571     -0.1572
     39  C39      -12.2670    7.9530    1.4220 C.3   571  H5S571      0.1960
@<TRIPOS>BOND
     1    37    36    2
     2    39    36    1
     3    36    38    2
     4    36    34    1
     5    34    33    1
     6    34    35    1
     7    33    32    1
     8    32    31    1
     9    35    30    1
    10    31    30   ar
    11    31    21   ar
    12    30    18   ar
    13    21    20   ar
    14    18    16    1
    15    18    19   ar
    16    22    16    2
    17    23    16    2
    18    16    17    1
    19    20    19   ar
    20    19    15    1
    21    17    15    2
    22    15     3    1
    23    14     2    2
    24     3     2    1
    25     3     4    2
    26     2    11   am
    27    10     4    1
    28     4     1    1
    29    11     1    1
    30    11     5    1
    31    27    24    1
    32    13    12   ar
    33    13     6   ar
    34     1    24    1
    35    12     9   ar
    36     5     6    1
    37    24    25    1
    38    24    26    1
    39     6     7   ar
    40     9    28    1
    41     9     8   ar
    42     7     8   ar
    43     8    29    1
