@<TRIPOS>MOLECULE
3h5u_H5U_A_1.pdb
 36 39 0 0 0
SMALL
GASTEIGER

@<TRIPOS>ATOM
      1  C1        76.0450   44.6650   12.9280 C.2   571  H5U571      0.1090
      2  C2        75.8690   45.5640   11.8970 C.2   571  H5U571      0.1968
      3  C3        76.0180   44.8160   10.5980 C.3   571  H5U571      0.1377
      4  N4        76.4230   43.4580   11.0020 N.am  571  H5U571     -0.2665
      5  C5        76.3880   43.3650   12.3500 C.2   571  H5U571      0.2539
      6  O6        76.7030   42.3510   12.9750 O.2   571  H5U571     -0.2697
      7  O7        75.5680   46.8820   12.0040 O.2   571  H5U571     -0.2894
      8  C8        76.8810   42.3880   10.1350 C.3   571  H5U571      0.1208
      9  C9        78.3160   42.8100    9.7800 C.ar  571  H5U571     -0.0022
     10  C10       74.5950   44.8110    9.8950 C.3   571  H5U571      0.0239
     11  C11       77.4150   43.1000   15.5790 C.ar  571  H5U571      0.0029
     12  C12       77.7970   42.5290   16.7760 C.ar  571  H5U571     -0.0001
     13  C13       77.3390   43.0400   17.9820 C.ar  571  H5U571     -0.0015
     14  C14       76.4830   44.1280   17.9380 C.ar  571  H5U571      0.0163
     15  C15       76.5390   44.2100   15.5110 C.ar  571  H5U571      0.0383
     16  C16       76.1090   44.6910   16.7560 C.ar  571  H5U571      0.1280
     17  S17       75.0760   46.0740   16.3770 S.O2  571  H5U571      0.1003
     18  N18       75.1410   45.9670   14.6960 N.2   571  H5U571     -0.1275
     19  C19       75.9420   44.9880   14.3840 C.2   571  H5U571      0.1108
     20  O20       73.7630   45.7570   16.8270 O.2   571  H5U571     -0.1463
     21  O21       75.6690   47.3240   16.7280 O.2   571  H5U571     -0.1463
     22  C22       74.2600   46.2120    9.3910 C.3   571  H5U571      0.0021
     23  C23       74.5000   43.8490    8.7030 C.3   571  H5U571      0.0021
     24  C24       73.4300   44.4170   10.8160 C.3   571  H5U571      0.0021
     25  C25       79.2400   43.1660   10.7770 C.ar  571  H5U571     -0.0003
     26  C26       80.5440   43.5490   10.4470 C.ar  571  H5U571      0.0294
     27  C27       80.9410   43.6010    9.1000 C.ar  571  H5U571      0.1401
     28  C28       80.0220   43.2660    8.1020 C.ar  571  H5U571      0.0294
     29  C29       78.7230   42.8800    8.4410 C.ar  571  H5U571     -0.0003
     30  F30       82.2000   43.9960    8.7640 F     571  H5U571     -0.2042
     31  C31       75.9120   44.7790   19.1590 C.3   571  H5U571      0.1427
     32  N32       76.0580   43.9600   20.3470 N.3   571  H5U571     -0.0771
     33  S33       75.8970   44.7650   21.7820 S.O2  571  H5U571      0.0595
     34  C34       74.1110   44.7660   22.1090 C.3   571  H5U571      0.1975
     35  O35       76.5000   43.8750   22.6820 O.2   571  H5U571     -0.1561
     36  O36       76.2920   46.0880   21.5730 O.2   571  H5U571     -0.1561
@<TRIPOS>BOND
     1    28    29   ar
     2    28    27   ar
     3    29     9   ar
     4    23    10    1
     5    30    27    1
     6    27    26   ar
     7    22    10    1
     8     9     8    1
     9     9    25   ar
    10    10     3    1
    11    10    24    1
    12     8     4    1
    13    26    25   ar
    14     3     4    1
    15     3     2    1
    16     4     5   am
    17     2     7    1
    18     2     1    2
    19     5     1    1
    20     5     6    2
    21     1    19    1
    22    19    18    2
    23    19    15    1
    24    18    17    1
    25    15    11   ar
    26    15    16   ar
    27    11    12   ar
    28    17    21    2
    29    17    16    1
    30    17    20    2
    31    16    14   ar
    32    12    13   ar
    33    14    13   ar
    34    14    31    1
    35    31    32    1
    36    32    33    1
    37    36    33    2
    38    33    34    1
    39    33    35    2
