@<TRIPOS>MOLECULE
3h61_ENL_A_1.pdb
 13 14 0 0 0
SMALL
GASTEIGER

@<TRIPOS>ATOM
      1  O2        27.3180   -1.9910   13.5910 O.co2   0  ENL0       -0.2456
      2  C8        28.2470   -2.3470   14.3650 C.2     0  ENL0        0.3673
      3  O5        28.6380   -3.5390   14.3620 O.co2   0  ENL0       -0.2456
      4  C4        28.9400   -1.3440   15.2760 C.3     0  ENL0        0.1434
      5  C6        28.6040    0.0950   14.8960 C.3     0  ENL0        0.1265
      6  C5        29.4940    1.0670   15.6760 C.3     0  ENL0        0.0326
      7  O1        27.3650    0.2590   15.5680 O.3     0  ENL0       -0.3576
      8  C3        28.4140   -1.4190   16.7110 C.3     0  ENL0        0.1434
      9  C7        27.3720   -2.4940   16.9150 C.2     0  ENL0        0.3673
     10  O4        26.3430   -2.4520   16.2100 O.co2   0  ENL0       -0.2456
     11  O3        27.5200   -3.3970   17.7950 O.co2   0  ENL0       -0.2456
     12  C2        27.8020   -0.0280   16.8910 C.3     0  ENL0        0.1265
     13  C1        28.9190    1.0080   17.0910 C.3     0  ENL0        0.0326
@<TRIPOS>BOND
     1     1     2   ar
     2     3     2   ar
     3     2     4    1
     4     5     4    1
     5     5     7    1
     6     5     6    1
     7     4     8    1
     8     7    12    1
     9     6    13    1
    10    10     9   ar
    11     8    12    1
    12     8     9    1
    13    12    13    1
    14     9    11   ar
