@<TRIPOS>MOLECULE
3h62_NHC_B_1.pdb
 15 16 0 0 0
SMALL
GASTEIGER

@<TRIPOS>ATOM
      1  O2       182.7420    0.0260   78.7160 O.co2   0  NHC0       -0.2456
      2  C8       181.7650   -0.0020   77.9510 C.2     0  NHC0        0.3667
      3  O4       181.6900   -0.8890   77.0610 O.co2   0  NHC0       -0.2456
      4  C3       180.6850    1.0520   78.1020 C.3     0  NHC0        0.1304
      5  C7       179.6310    0.8080   77.0050 C.3     0  NHC0        0.0144
      6  C4       180.1250    1.1250   79.5580 C.3     0  NHC0        0.1304
      7  C10      178.6100    0.8760   79.6800 C.3     0  NHC0        0.0144
      8  C9       180.8330    0.1610   80.5030 C.2     0  NHC0        0.3667
      9  O3       181.7020    0.5970   81.3280 O.co2   0  NHC0       -0.2456
     10  O5       180.5480   -1.0630   80.4220 O.co2   0  NHC0       -0.2456
     11  C2       181.3610    2.4330   77.9720 C.3     0  NHC0        0.1258
     12  C1       180.3330    3.5410   77.7610 C.3     0  NHC0        0.0326
     13  C5       179.6920    3.5830   79.1430 C.3     0  NHC0        0.0326
     14  C6       180.5200    2.5610   79.9210 C.3     0  NHC0        0.1258
     15  O1       181.8010    2.6860   79.3020 O.3     0  NHC0       -0.3576
@<TRIPOS>BOND
     1     5     4    1
     2     3     2   ar
     3    12    11    1
     4    12    13    1
     5     2     4    1
     6     2     1   ar
     7    11     4    1
     8    11    15    1
     9     4     6    1
    10    13    14    1
    11    15    14    1
    12     6     7    1
    13     6    14    1
    14     6     8    1
    15    10     8   ar
    16     8     9   ar
