@<TRIPOS>MOLECULE
3h63_NHC_A_1.pdb
 15 16 0 0 0
SMALL
GASTEIGER

@<TRIPOS>ATOM
      1  O2       -32.7030  -23.4710   36.5090 O.co2   1  NHC1       -0.2456
      2  C8       -33.6710  -23.4500   35.7150 C.2     1  NHC1        0.3667
      3  O4       -33.9390  -24.3800   34.9110 O.co2   1  NHC1       -0.2456
      4  C3       -34.6660  -22.3170   35.7620 C.3     1  NHC1        0.1304
      5  C7       -35.7770  -22.4600   34.7160 C.3     1  NHC1        0.0144
      6  C4       -35.1540  -22.3140   37.2060 C.3     1  NHC1        0.1304
      7  C10      -36.6520  -22.6270   37.3490 C.3     1  NHC1        0.0144
      8  C9       -34.2820  -23.1800   38.1180 C.2     1  NHC1        0.3667
      9  O3       -33.6690  -22.7100   39.1360 O.co2   1  NHC1       -0.2456
     10  O5       -34.1520  -24.3960   37.8070 O.co2   1  NHC1       -0.2456
     11  C2       -33.9890  -20.9620   35.6100 C.3     1  NHC1        0.1258
     12  C1       -35.0740  -19.9070   35.4710 C.3     1  NHC1        0.0326
     13  C5       -35.7130  -19.9010   36.8610 C.3     1  NHC1        0.0326
     14  C6       -34.8180  -20.8870   37.6010 C.3     1  NHC1        0.1258
     15  O1       -33.5760  -20.6790   36.9260 O.3     1  NHC1       -0.3576
@<TRIPOS>BOND
     1     5     4    1
     2     3     2   ar
     3    12    11    1
     4    12    13    1
     5    11     4    1
     6    11    15    1
     7     2     4    1
     8     2     1   ar
     9     4     6    1
    10    13    14    1
    11    15    14    1
    12     6     7    1
    13     6    14    1
    14     6     8    1
    15    10     8   ar
    16     8     9   ar
