@<TRIPOS>MOLECULE
3h64_ENL_A_1.pdb
 13 14 0 0 0
SMALL
GASTEIGER

@<TRIPOS>ATOM
      1  O2        33.0140  -22.7080  -33.9680 O.co2   0  ENL0       -0.2456
      2  C8        33.9470  -23.0550  -33.1880 C.2     0  ENL0        0.3673
      3  O5        34.2740  -24.2530  -33.0250 O.co2   0  ENL0       -0.2456
      4  C4        34.6300  -22.0190  -32.3340 C.3     0  ENL0        0.1434
      5  C6        34.2900  -20.6110  -32.7700 C.3     0  ENL0        0.1265
      6  C5        35.1270  -19.6060  -31.9590 C.3     0  ENL0        0.0326
      7  O1        32.9960  -20.4270  -32.2030 O.3     0  ENL0       -0.3576
      8  C3        33.9520  -22.0640  -30.9610 C.3     0  ENL0        0.1434
      9  C7        32.8860  -23.1260  -30.8570 C.2     0  ENL0        0.3673
     10  O4        31.8600  -23.0170  -31.5340 O.co2   0  ENL0       -0.2456
     11  O3        33.0130  -24.0730  -30.0420 O.co2   0  ENL0       -0.2456
     12  C2        33.3250  -20.6870  -30.8400 C.3     0  ENL0        0.1265
     13  C1        34.5130  -19.7600  -30.5590 C.3     0  ENL0        0.0326
@<TRIPOS>BOND
     1     1     2   ar
     2     2     3   ar
     3     2     4    1
     4     5     4    1
     5     5     7    1
     6     5     6    1
     7     4     8    1
     8     7    12    1
     9     6    13    1
    10    10     9   ar
    11     8     9    1
    12     8    12    1
    13     9    11   ar
    14    12    13    1
