@<TRIPOS>MOLECULE
3h67_NHC_A_1.pdb
 15 16 0 0 0
SMALL
GASTEIGER

@<TRIPOS>ATOM
      1  O2        33.9240  -23.3730  -36.0340 O.co2   1  NHC1       -0.2456
      2  C8        34.7300  -23.1310  -35.0900 C.2     1  NHC1        0.3667
      3  O4        34.8340  -23.9570  -34.1400 O.co2   1  NHC1       -0.2456
      4  C3        35.6210  -21.9010  -35.1920 C.3     1  NHC1        0.1304
      5  C7        36.6870  -21.9240  -34.0610 C.3     1  NHC1        0.0144
      6  C4        36.1690  -21.8990  -36.6340 C.3     1  NHC1        0.1304
      7  C10       37.6620  -22.1990  -36.7580 C.3     1  NHC1        0.0144
      8  C9        35.4550  -22.9770  -37.4140 C.2     1  NHC1        0.3667
      9  O3        34.6840  -22.7530  -38.4220 O.co2   1  NHC1       -0.2456
     10  O5        35.6920  -24.1320  -37.0010 O.co2   1  NHC1       -0.2456
     11  C2        34.9220  -20.5190  -35.2470 C.3     1  NHC1        0.1258
     12  C1        36.0330  -19.4720  -35.1500 C.3     1  NHC1        0.0326
     13  C5        36.6420  -19.4860  -36.5510 C.3     1  NHC1        0.0326
     14  C6        35.7930  -20.5500  -37.2110 C.3     1  NHC1        0.1258
     15  O1        34.5290  -20.3320  -36.6070 O.3     1  NHC1       -0.3576
@<TRIPOS>BOND
     1     9     8   ar
     2     8    10   ar
     3     8     6    1
     4    14     6    1
     5    14    15    1
     6    14    13    1
     7     7     6    1
     8     6     4    1
     9    15    11    1
    10    13    12    1
    11     1     2   ar
    12    11     4    1
    13    11    12    1
    14     4     2    1
    15     4     5    1
    16     2     3   ar
