@<TRIPOS>MOLECULE
3h68_NHC_A_1.pdb
 15 16 0 0 0
SMALL
GASTEIGER

@<TRIPOS>ATOM
      1  O2        32.9380  -23.5470  -36.2900 O.co2   1  NHC1       -0.2456
      2  C8        33.7750  -23.3440  -35.3950 C.2     1  NHC1        0.3667
      3  O4        33.8730  -24.1200  -34.4120 O.co2   1  NHC1       -0.2456
      4  C3        34.7490  -22.1730  -35.5320 C.3     1  NHC1        0.1304
      5  C7        35.8170  -22.3090  -34.4420 C.3     1  NHC1        0.0144
      6  C4        35.3090  -22.1230  -36.9730 C.3     1  NHC1        0.1304
      7  C10       36.8100  -22.4150  -37.1090 C.3     1  NHC1        0.0144
      8  C9        34.6240  -23.2380  -37.6960 C.2     1  NHC1        0.3667
      9  O3        33.4410  -23.1120  -38.1410 O.co2   1  NHC1       -0.2456
     10  O5        35.3340  -24.2580  -37.8990 O.co2   1  NHC1       -0.2456
     11  C2        34.0890  -20.7900  -35.4430 C.3     1  NHC1        0.1258
     12  C1        35.2360  -19.8070  -35.2700 C.3     1  NHC1        0.0326
     13  C5        35.8510  -19.7690  -36.6770 C.3     1  NHC1        0.0326
     14  C6        34.9440  -20.7190  -37.4440 C.3     1  NHC1        0.1258
     15  O1        33.7180  -20.4720  -36.7700 O.3     1  NHC1       -0.3576
@<TRIPOS>BOND
     1     9     8   ar
     2    10     8   ar
     3     8     6    1
     4    14     6    1
     5    14    15    1
     6    14    13    1
     7     7     6    1
     8     6     4    1
     9    15    11    1
    10    13    12    1
    11     1     2   ar
    12     4    11    1
    13     4     2    1
    14     4     5    1
    15    11    12    1
    16     2     3   ar
