@<TRIPOS>MOLECULE
3h69_ENL_A_1.pdb
 13 14 0 0 0
SMALL
GASTEIGER

@<TRIPOS>ATOM
      1  O2        33.5340  -20.7890  -37.1320 O.co2   0  ENL0       -0.2456
      2  C8        34.4390  -20.9080  -36.1630 C.2     0  ENL0        0.3673
      3  O5        34.7700  -19.9340  -35.5260 O.co2   0  ENL0       -0.2456
      4  C4        35.0610  -22.2240  -35.8120 C.3     0  ENL0        0.1434
      5  C6        33.9450  -22.8670  -34.9930 C.3     0  ENL0        0.1265
      6  C5        34.4240  -24.0410  -34.1430 C.3     0  ENL0        0.0326
      7  O1        33.3140  -23.5580  -36.0050 O.3     0  ENL0       -0.3576
      8  C3        35.4100  -23.2510  -36.8990 C.3     0  ENL0        0.1434
      9  C7        34.7030  -23.4580  -38.2090 C.2     0  ENL0        0.3673
     10  O4        33.9200  -22.8480  -38.8890 O.co2   0  ENL0       -0.2456
     11  O3        34.8790  -24.6490  -38.5950 O.co2   0  ENL0       -0.2456
     12  C2        34.4730  -24.3280  -36.4000 C.3     0  ENL0        0.1265
     13  C1        34.8720  -25.0870  -35.1490 C.3     0  ENL0        0.0326
@<TRIPOS>BOND
     1    10     9   ar
     2    11     9   ar
     3     9     8    1
     4     1     2   ar
     5     8    12    1
     6     8     4    1
     7    12     7    1
     8    12    13    1
     9     2     4    1
    10     2     3   ar
    11     7     5    1
    12     4     5    1
    13    13     6    1
    14     5     6    1
