@<TRIPOS>MOLECULE
3h6d_DUP_A_1.pdb
 28 29 0 0 0
SMALL
GASTEIGER

@<TRIPOS>ATOM
      1  O4        21.6000   -7.0500    0.0060 O.2   201  DUP201     -0.2085
      2  C4        20.4420   -6.6510   -0.5570 C.1   201  DUP201      0.2182
      3  C5        19.5240   -7.5480   -1.0820 C.2   201  DUP201      0.1242
      4  C6        18.3620   -7.0720   -1.6400 C.2   201  DUP201      0.0928
      5  N3        20.1790   -5.3430   -0.5720 N.2   201  DUP201     -0.2452
      6  C2        19.0310   -4.8960   -1.1270 C.1   201  DUP201      0.2844
      7  O2        18.9030   -3.5830   -1.0730 O.2   201  DUP201     -0.1918
      8  N1        18.1190   -5.7560   -1.6370 N.am  201  DUP201     -0.1790
      9  C1'       16.8620   -5.3620   -2.2870 C.3   201  DUP201      0.2090
     10  C2'       17.0530   -5.6510   -3.7870 C.3   201  DUP201      0.0874
     11  C3'       16.2370   -6.9120   -4.0440 C.3   201  DUP201      0.1857
     12  O3'       15.7050   -7.0500   -5.3820 O.3   201  DUP201     -0.2203
     13  O4'       15.7570   -6.1830   -1.8500 O.3   201  DUP201     -0.3339
     14  C4'       15.1260   -6.7680   -3.0020 C.3   201  DUP201      0.1774
     15  C5'       14.5280   -8.1030   -2.6000 C.3   201  DUP201      0.1848
     16  O5'       15.6340   -8.8610   -2.0660 O.3   201  DUP201     -0.2775
     17  PA        15.5400  -10.4260   -1.6230 P.3   201  DUP201      0.4623
     18  O1A       14.7540  -11.1650   -2.6800 O.2   201  DUP201     -0.2354
     19  O2A       16.9900  -10.8140   -1.4070 O.3   201  DUP201     -0.1255
     20  N3A       14.6920  -10.5140   -0.1380 N.3   201  DUP201     -0.0179
     21  PB        13.0820  -10.9500    0.1650 P.3   201  DUP201      0.4700
     22  O1B       12.7980  -12.2290   -0.6030 O.2   201  DUP201     -0.2350
     23  O2B       12.8550  -11.0080    1.6530 O.3   201  DUP201     -0.1252
     24  O3B       12.1400   -9.7180   -0.3620 O.3   201  DUP201     -0.1901
     25  PG        11.1950   -9.6450   -1.6960 P.3   201  DUP201      0.5397
     26  O2G       11.9210  -10.3860   -2.8040 O.2   201  DUP201     -0.2220
     27  O1G        9.8860  -10.2930   -1.2650 O.3   201  DUP201     -0.1143
     28  O3G       11.1250   -8.1440   -1.9860 O.3   201  DUP201     -0.1143
@<TRIPOS>BOND
     1    12    11    1
     2    11    10    1
     3    11    14    1
     4    10     9    1
     5    14    15    1
     6    14    13    1
     7    26    25    2
     8    18    17    2
     9    15    16    1
    10     9    13    1
    11     9     8    1
    12    16    17    1
    13    28    25    1
    14    25    27    1
    15    25    24    1
    16     4     8    1
    17     4     3    2
    18     8     6   am
    19    17    19    1
    20    17    20    1
    21     6     7    2
    22     6     5    2
    23     3     2    1
    24    22    21    2
    25     5     2    2
    26     2     1    2
    27    24    21    1
    28    20    21    1
    29    21    23    1
