@<TRIPOS>MOLECULE
3h6k_NAP_A_1.pdb
 48 52 0 0 0
SMALL
GASTEIGER

@<TRIPOS>ATOM
      1  PA        10.3600   -4.9300   22.7220 P.3     1  NAP1        0.2189
      2  O1A       11.4120   -4.3050   23.5580 O.3     1  NAP1       -0.4371
      3  O2A       10.9590   -5.6280   21.5620 O.2     1  NAP1       -0.5170
      4  O5B        9.4750   -6.0160   23.5420 O.3     1  NAP1       -0.3112
      5  C5B        8.2290   -5.7300   24.1510 C.3     1  NAP1        0.1813
      6  C4B        7.9420   -6.6820   25.3230 C.3     1  NAP1        0.1820
      7  O4B        6.8640   -7.5560   25.0440 O.3     1  NAP1       -0.3136
      8  C3B        9.1130   -7.5780   25.7140 C.3     1  NAP1        0.2157
      9  O3B        9.3290   -7.3820   27.0960 O.3     1  NAP1       -0.2175
     10  C2B        8.6800   -9.0180   25.4550 C.3     1  NAP1        0.2314
     11  O2B        9.1620   -9.8740   26.4720 O.3     1  NAP1       -0.2630
     12  C1B        7.1690   -8.8490   25.5450 C.3     1  NAP1        0.3158
     13  N9A        6.4000   -9.9300   24.8900 N.pl3   1  NAP1       -0.1439
     14  C8A        6.6260  -10.4920   23.6530 C.3     1  NAP1        0.3377
     15  N7A        5.6830  -11.4380   23.4400 N.2     1  NAP1       -0.2095
     16  C5A        4.8560  -11.4810   24.5130 C.2     1  NAP1        0.2526
     17  C6A        3.7470  -12.2560   24.8100 C.2     1  NAP1        0.4393
     18  N6A        3.3170  -13.1690   23.9470 N.pl3   1  NAP1        0.2180
     19  N1A        3.0950  -12.0820   26.0130 N.2     1  NAP1        0.0021
     20  C2A        3.5460  -11.1420   26.9090 C.3     1  NAP1        0.5254
     21  N3A        4.6460  -10.3730   26.6060 N.2     1  NAP1       -0.0055
     22  C4A        5.3010  -10.5500   25.4360 C.2     1  NAP1        0.3518
     23  O3         9.3350   -3.7700   22.2700 O.3     1  NAP1       -0.2703
     24  PN         9.5200   -2.1710   22.1410 P.3     1  NAP1        0.2189
     25  O1N       10.2510   -1.8910   20.8850 O.2     1  NAP1       -0.5170
     26  O2N       10.0420   -1.6410   23.4250 O.3     1  NAP1       -0.4371
     27  O5D        7.9860   -1.6950   21.9820 O.3     1  NAP1       -0.3112
     28  C5D        7.2030   -1.4890   23.1410 C.3     1  NAP1        0.1813
     29  C4D        5.9140   -0.7820   22.7610 C.3     1  NAP1        0.1799
     30  O4D        6.2370    0.3690   21.9980 O.3     1  NAP1       -0.3327
     31  C3D        5.0570   -1.6570   21.8670 C.3     1  NAP1        0.2158
     32  O3D        3.7010   -1.5310   22.2320 O.3     1  NAP1       -0.2175
     33  C2D        5.2200   -1.0480   20.4940 C.3     1  NAP1        0.2309
     34  O2D        4.0170   -1.2190   19.7980 O.3     1  NAP1       -0.2158
     35  C1D        5.4890    0.4220   20.7930 C.3     1  NAP1        0.2263
     36  N1N        6.2630    1.0240   19.6870 N.pl3   1  NAP1       -0.2787
     37  C2N        7.6130    0.8450   19.6230 C.3     1  NAP1        0.1244
     38  C3N        8.3530    1.4000   18.5870 C.2     1  NAP1        0.0544
     39  C7N        9.8360    1.1820   18.5220 C.2     1  NAP1        0.2818
     40  O7N       10.5270    1.5730   17.3610 O.2     1  NAP1       -0.2670
     41  N7N       10.4710    0.6120   19.5450 N.am    1  NAP1       -0.0839
     42  C4N        7.7270    2.1620   17.6110 C.2     1  NAP1        0.0033
     43  C5N        6.3540    2.3460   17.6850 C.2     1  NAP1        0.0157
     44  C6N        5.6320    1.7690   18.7280 C.2     1  NAP1        0.0633
     45  P2B        9.3240  -11.4710   26.2590 P.3     1  NAP1        0.5328
     46  O1X        9.9890  -11.7640   24.9330 O.2     1  NAP1       -0.2224
     47  O2X        7.9680  -12.1270   26.3030 O.3     1  NAP1       -0.1145
     48  O3X       10.1710  -12.0490   27.3710 O.3     1  NAP1       -0.1145
@<TRIPOS>BOND
     1    40    39    2
     2    42    43    1
     3    42    38    2
     4    43    44    2
     5    39    38    1
     6    39    41   am
     7    38    37    1
     8    44    36    1
     9    37    36    1
    10    36    35    1
    11    34    33    1
    12    33    35    1
    13    33    31    1
    14    35    30    1
    15    25    24    2
    16     3     1    2
    17    31    32    1
    18    31    29    1
    19    27    24    1
    20    27    28    1
    21    30    29    1
    22    24    23    1
    23    24    26    1
    24    23     1    1
    25     1     4    1
    26     1     2    1
    27    29    28    1
    28    15    14    1
    29    15    16    2
    30     4     5    1
    31    14    13    1
    32    18    17    1
    33     5     6    1
    34    16    17    1
    35    16    22    1
    36    17    19    2
    37    13    22    1
    38    13    12    1
    39    46    45    2
    40     7     6    1
    41     7    12    1
    42     6     8    1
    43    22    21    2
    44    10    12    1
    45    10     8    1
    46    10    11    1
    47     8     9    1
    48    19    20    1
    49    45    47    1
    50    45    11    1
    51    45    48    1
    52    21    20    1
