@<TRIPOS>MOLECULE
3h6k_33T_A_1.pdb
 31 33 0 0 0
SMALL
GASTEIGER

@<TRIPOS>ATOM
      1  C1         9.1490    0.5450   12.2230 C.3   293  33T293      0.0210
      2  C2         8.6040    1.1100   13.5330 C.3   293  33T293      0.0993
      3  C3         8.8990    0.2150   14.7490 C.3   293  33T293      0.1084
      4  N1         8.0140   -0.9550   14.7840 N.pl3 293  33T293     -0.3046
      5  C4         6.5820   -0.6400   14.7820 C.3   293  33T293      0.1099
      6  C5         6.2230    0.1840   13.5490 C.3   293  33T293      0.1172
      7  N2         7.1270    1.3730   13.4410 N.3   293  33T293     -0.1534
      8  S1         6.5010    2.9670   13.6470 S.O2  293  33T293      0.0642
      9  O1         5.0530    2.9170   13.5830 O.2   293  33T293     -0.1527
     10  O2         7.1820    3.5740   14.7720 O.2   293  33T293     -0.1527
     11  C6         6.9980    3.7720   12.1370 C.ar  293  33T293      0.1327
     12  C7         7.8490    4.8890   12.2210 C.ar  293  33T293      0.0209
     13  C8         8.2710    5.5570   11.0620 C.ar  293  33T293      0.0060
     14  C9         7.8360    5.1070    9.8070 C.ar  293  33T293      0.0576
     15  C10        6.9860    3.9900    9.7280 C.ar  293  33T293      0.0174
     16  C11        6.5660    3.3250   10.8870 C.ar  293  33T293      0.0764
     17 CL1         5.5120    1.9770   10.6620 Cl    293  33T293     -0.0808
     18  C12        8.2380    5.7580    8.5320 C.2   293  33T293      0.2842
     19  O3         7.9410    6.9320    8.3130 O.2   293  33T293     -0.2667
     20  N3         8.9340    4.9680    7.6410 N.am  293  33T293     -0.0837
     21  C13        8.3660   -2.0260   15.6360 C.ar  293  33T293      0.0519
     22  C14        8.4480   -1.8580   17.0360 C.ar  293  33T293      0.0168
     23  C15        8.7910   -2.9150   17.8840 C.ar  293  33T293      0.0309
     24  C16        9.0680   -4.1620   17.3450 C.ar  293  33T293      0.1402
     25  C17        8.9950   -4.3690   15.9720 C.ar  293  33T293      0.0347
     26  C18        8.6510   -3.3120   15.1100 C.ar  293  33T293      0.0869
     27  C19        8.5860   -3.5700   13.6280 C.3   293  33T293      0.4198
     28  F1         9.1850   -2.5870   12.8950 F     293  33T293     -0.1658
     29  F2         9.1860   -4.7330   13.2450 F     293  33T293     -0.1658
     30  F3         7.3030   -3.6620   13.1830 F     293  33T293     -0.1658
     31  F4         9.3970   -5.1790   18.1550 F     293  33T293     -0.2042
@<TRIPOS>BOND
     1    20    18   am
     2    19    18    2
     3    18    14    1
     4    15    14   ar
     5    15    16   ar
     6    14    13   ar
     7    17    16    1
     8    16    11   ar
     9    13    12   ar
    10    11    12   ar
    11    11     8    1
    12     1     2    1
    13    28    27    1
    14    30    27    1
    15    29    27    1
    16     7     2    1
    17     7     6    1
    18     7     8    1
    19     2     3    1
    20     6     5    1
    21     9     8    2
    22    27    26    1
    23     8    10    2
    24     3     4    1
    25     5     4    1
    26     4    21    1
    27    26    21   ar
    28    26    25   ar
    29    21    22   ar
    30    25    24   ar
    31    22    23   ar
    32    24    23   ar
    33    24    31    1
