@<TRIPOS>MOLECULE
3h6m_THP_A_1.pdb
 25 26 0 0 0
SMALL
GASTEIGER

@<TRIPOS>ATOM
      1  P2        17.7570   11.1160    4.8460 P.3   150  THP150      0.5327
      2  O4P       16.5270   11.7770    5.4090 O.3   150  THP150     -0.1145
      3  O5P       17.7150    9.6070    5.1560 O.2   150  THP150     -0.2224
      4  O6P       19.0480   11.8780    5.3800 O.3   150  THP150     -0.1145
      5  P1        21.0060   14.6220    1.0330 P.3   150  THP150      0.5326
      6  O1P       21.7130   13.5330    1.8000 O.3   150  THP150     -0.1145
      7  O2P       22.0470   15.2060    0.0020 O.2   150  THP150     -0.2224
      8  O3P       20.3250   15.6290    1.9830 O.3   150  THP150     -0.1145
      9  O5'       17.6970   11.1590    3.2520 O.3   150  THP150     -0.2675
     10  C5'       17.8250   12.4780    2.6970 C.3   150  THP150      0.1857
     11  C4'       18.7600   12.3910    1.4670 C.3   150  THP150      0.1748
     12  O4'       18.3510   11.2880    0.6350 O.3   150  THP150     -0.3340
     13  C3'       18.6630   13.6740    0.5890 C.3   150  THP150      0.1600
     14  O3'       19.9790   13.8520    0.0290 O.3   150  THP150     -0.2700
     15  C2'       17.7740   13.1790   -0.5940 C.3   150  THP150      0.0847
     16  C1'       18.0640   11.6600   -0.7040 C.3   150  THP150      0.2089
     17  N1        16.7650   11.0350   -1.0910 N.am  150  THP150     -0.1794
     18  C2        16.4990   10.8120   -2.4090 C.1   150  THP150      0.2844
     19  O2        17.3850   11.1440   -3.2720 O.2   150  THP150     -0.1918
     20  N3        15.3030   10.2890   -2.8350 N.2   150  THP150     -0.2455
     21  C4        14.3230    9.9950   -1.8940 C.1   150  THP150      0.2134
     22  O4        13.2550    9.5980   -2.3210 O.2   150  THP150     -0.2088
     23  C5        14.6100   10.2020   -0.5330 C.2   150  THP150      0.0891
     24  C5M       13.5590    9.8730    0.4910 C.3   150  THP150      0.0462
     25  C6        15.8260   10.7120   -0.1480 C.2   150  THP150      0.0877
@<TRIPOS>BOND
     1    19    18    2
     2    20    18    2
     3    20    21    2
     4    18    17   am
     5    22    21    2
     6    21    23    1
     7    17    16    1
     8    17    25    1
     9    16    15    1
    10    16    12    1
    11    15    13    1
    12    23    25    2
    13    23    24    1
    14     7     5    2
    15    14    13    1
    16    14     5    1
    17    13    11    1
    18    12    11    1
    19     5     6    1
    20     5     8    1
    21    11    10    1
    22    10     9    1
    23     9     1    1
    24     1     3    2
    25     1     4    1
    26     1     2    1
