@<TRIPOS>MOLECULE
3h6o_D8G_B_1.pdb
 24 27 0 0 0
SMALL
GASTEIGER

@<TRIPOS>ATOM
      1  OAC        6.8580    1.6090   12.6270 O.2   550  D8G550     -0.2639
      2  OAC       10.6410    5.1860   13.9320 O.2   550  D8G550     -0.2889
      3  CAQ        7.5690    1.2410   13.5550 C.ar  550  D8G550      0.2925
      4  CAU        8.6460    2.0360   13.9680 C.ar  550  D8G550      0.1204
      5  NAV        9.1950    3.2160   13.6020 N.ar  550  D8G550     -0.3187
      6  CAB        8.7030    4.0970   12.5070 C.3   550  D8G550      0.1307
      7  CAS       10.2650    3.5200   14.3610 C.ar  550  D8G550      0.1018
      8  CAJ       11.2240    4.4770   14.5320 C.2   550  D8G550      0.1990
      9  CAN       12.1050    4.2270   15.5130 C.3   550  D8G550      0.1151
     10  CAA       13.2820    5.1330   15.9200 C.3   550  D8G550      0.0203
     11  SAM       11.7280    2.7710   16.2310 S.3   550  D8G550     -0.1050
     12  CAT       10.4060    2.4550   15.2590 C.ar  550  D8G550      0.0473
     13  CAR        9.4000    1.5470   15.0130 C.ar  550  D8G550      0.0486
     14  CAI        9.0630    0.3350   15.6050 C.ar  550  D8G550      0.1223
     15  NAL        8.0270   -0.3750   15.1720 N.ar  550  D8G550     -0.1648
     16  NAW        7.3110   -0.0060   14.2320 N.ar  550  D8G550     -0.2108
     17  CAK        6.1570   -0.8770   13.8650 C.3   550  D8G550      0.1593
     18  CAP        4.9820   -0.2860   14.6600 C.ar  550  D8G550      0.0297
     19  CAH        5.0020   -0.4430   16.0530 C.ar  550  D8G550     -0.0001
     20  CAF        3.9910    0.0900   16.8340 C.ar  550  D8G550     -0.0001
     21  CAE        2.9450    0.7920   16.2410 C.ar  550  D8G550      0.0023
     22  CAG        2.9130    0.9730   14.8650 C.ar  550  D8G550      0.0294
     23  CAO        3.9270    0.4330   14.0790 C.ar  550  D8G550      0.1380
     24  FAD        3.8770    0.5900   12.7420 F     550  D8G550     -0.2044
@<TRIPOS>BOND
     1     6     5    1
     2     1     3    2
     3    24    23    1
     4     3     4   ar
     5     3    16   ar
     6     5     4   ar
     7     5     7   ar
     8    17    16    1
     9    17    18    1
    10     2     8    2
    11     4    13   ar
    12    23    18   ar
    13    23    22   ar
    14    16    15   ar
    15     7     8    1
    16     7    12   ar
    17     8     9    1
    18    18    19   ar
    19    22    21   ar
    20    13    12   ar
    21    13    14   ar
    22    15    14   ar
    23    12    11    1
    24     9    10    1
    25     9    11    1
    26    19    20   ar
    27    21    20   ar
