@<TRIPOS>MOLECULE
3h6o_FBP_A_1.pdb
 20 20 0 0 0
SMALL
GASTEIGER

@<TRIPOS>ATOM
      1  P1       -24.0650  -19.0220   12.9030 P.3   541  FBP541      0.5328
      2  O1P      -24.2350  -20.4030   12.3280 O.3   541  FBP541     -0.1145
      3  O2P      -23.9350  -17.9850   11.8190 O.2   541  FBP541     -0.2224
      4  O3P      -25.2510  -18.6480   13.7620 O.3   541  FBP541     -0.1145
      5  O1       -22.7520  -19.0160   13.8000 O.3   541  FBP541     -0.2648
      6  C1       -21.5380  -19.5470   13.3590 C.3   541  FBP541      0.2152
      7  C2       -20.4580  -18.8910   14.1970 C.3   541  FBP541      0.2780
      8  O2       -19.1650  -19.4230   13.8230 O.3   541  FBP541     -0.1897
      9  C3       -20.6950  -19.0990   15.7030 C.3   541  FBP541      0.2408
     10  O3       -20.1550  -20.2920   16.2190 O.3   541  FBP541     -0.2149
     11  C4       -20.0410  -17.8680   16.2810 C.3   541  FBP541      0.2167
     12  O4       -20.4310  -17.5720   17.6020 O.3   541  FBP541     -0.2175
     13  C5       -20.4710  -16.8100   15.2700 C.3   541  FBP541      0.1808
     14  O5       -20.4580  -17.4720   13.9940 O.3   541  FBP541     -0.3255
     15  C6       -19.5680  -15.5870   15.3300 C.3   541  FBP541      0.1859
     16  O6       -20.3360  -14.4190   15.2040 O.3   541  FBP541     -0.2675
     17  P2       -19.9430  -13.0380   15.9460 P.3   541  FBP541      0.5327
     18  O4P      -19.8060  -13.3220   17.4170 O.3   541  FBP541     -0.1145
     19  O5P      -21.0440  -12.0540   15.6810 O.3   541  FBP541     -0.1145
     20  O6P      -18.6570  -12.5240   15.3620 O.2   541  FBP541     -0.2224
@<TRIPOS>BOND
     1     3     1    2
     2     2     1    1
     3     1     4    1
     4     1     5    1
     5     6     5    1
     6     6     7    1
     7     8     7    1
     8    14     7    1
     9    14    13    1
    10     7     9    1
    11    16    15    1
    12    16    17    1
    13    13    15    1
    14    13    11    1
    15    20    17    2
    16    19    17    1
    17     9    10    1
    18     9    11    1
    19    17    18    1
    20    11    12    1
