@<TRIPOS>MOLECULE
3h6t_CYZ_A_1.pdb
 24 27 0 0 0
SMALL
GASTEIGER

@<TRIPOS>ATOM
      1  C1        59.0660   50.7090   25.6400 C.3   265  CYZ265      0.0409
      2  C2        59.0570   51.9890   24.8000 C.3   265  CYZ265      0.0033
      3  C3        58.2670   53.1020   25.4890 C.3   265  CYZ265      0.0001
      4  C4        56.8280   52.5790   25.4420 C.3   265  CYZ265      0.0000
      5  C5        56.9470   51.2640   24.6670 C.3   265  CYZ265      0.0001
      6  C6        57.6180   50.2140   25.5550 C.3   265  CYZ265      0.0034
      7  C7        58.0830   51.5830   23.6950 C.3   265  CYZ265      0.0001
      8  C8        59.5110   50.9920   27.0760 C.3   265  CYZ265      0.1988
      9  N1        60.7800   51.7310   27.0290 N.3   265  CYZ265     -0.0544
     10  S1        61.2850   52.0540   28.5420 S.O2  265  CYZ265      0.0797
     11  C9        61.2670   50.5310   29.3900 C.2   265  CYZ265      0.1384
     12  C10       60.4610   49.5070   28.9080 C.2   265  CYZ265      0.0792
     13  N2        59.6230   49.7140   27.8050 N.2   265  CYZ265     -0.2554
     14  C11       62.0810   50.3360   30.5020 C.2   265  CYZ265      0.0417
     15  C12       62.0910   49.1040   31.1360 C.2   265  CYZ265      0.1333
     16  C13       61.2810   48.0740   30.6680 C.2   265  CYZ265      0.0601
     17  C14       60.4720   48.2750   29.5540 C.3   265  CYZ265      0.0860
     18 CL         61.2380   46.7330   31.4010 Cl    265  CYZ265     -0.0851
     19  S2        63.1840   48.8640   32.4830 S.O2  265  CYZ265      0.0941
     20  O1        60.3630   53.0280   29.2130 O.2   265  CYZ265     -0.1515
     21  O2        62.6810   52.6000   28.5030 O.2   265  CYZ265     -0.1515
     22  O3        64.1810   49.9430   32.7810 O.2   265  CYZ265     -0.1503
     23  O4        63.6050   47.4320   32.6220 O.2   265  CYZ265     -0.1503
     24  N3        62.1730   49.0300   33.7500 N.3   265  CYZ265      0.0392
@<TRIPOS>BOND
     1     7     5    1
     2     7     2    1
     3     5     4    1
     4     5     6    1
     5     2     3    1
     6     2     1    1
     7     4     3    1
     8     6     1    1
     9     1     8    1
    10     9     8    1
    11     9    10    1
    12     8    13    1
    13    13    12    2
    14    21    10    2
    15    10    20    2
    16    10    11    1
    17    12    11    1
    18    12    17    1
    19    11    14    2
    20    17    16    1
    21    14    15    1
    22    16    15    2
    23    16    18    1
    24    15    19    1
    25    19    23    2
    26    19    22    2
    27    19    24    1
