@<TRIPOS>MOLECULE
3h6t_GLU_A_1.pdb
 10 9 0 0 0
SMALL
GASTEIGER

@<TRIPOS>ATOM
      1  N         75.5980   54.4920   27.7480 N.3   264  GLU264     -0.1208
      2  CA        76.5260   55.6200   27.4530 C.3   264  GLU264      0.1949
      3  C         76.5580   55.8990   25.9610 C.2   264  GLU264      0.3819
      4  O         77.3530   56.7670   25.5480 O.co2 264  GLU264     -0.2441
      5  CB        77.9420   55.3000   27.9560 C.3   264  GLU264      0.0424
      6  CG        78.1160   55.3960   29.4810 C.3   264  GLU264      0.1161
      7  CD        78.1520   56.8320   29.9900 C.2   264  GLU264      0.3649
      8  OE1       78.0780   57.0430   31.2190 O.co2 264  GLU264     -0.2457
      9  OE2       78.2640   57.7560   29.1660 O.co2 264  GLU264     -0.2457
     10  OXT       75.7830   55.2560   25.2240 O.co2 264  GLU264     -0.2441
@<TRIPOS>BOND
     1    10     3   ar
     2     4     3   ar
     3     3     2    1
     4     2     1    1
     5     2     5    1
     6     5     6    1
     7     9     7   ar
     8     6     7    1
     9     7     8   ar
