@<TRIPOS>MOLECULE
3h6u_FLC_A_1.pdb
 13 12 0 0 0
SMALL
GASTEIGER

@<TRIPOS>ATOM
      1  CAC       55.8610   25.4070   19.1840 C.2   274  FLC274      0.3680
      2  CA        56.7230   24.1700   19.4670 C.3   274  FLC274      0.1560
      3  CB        58.2060   24.3300   19.1260 C.3   274  FLC274      0.2402
      4  CBC       58.3320   24.8540   17.6990 C.2   274  FLC274      0.3927
      5  CG        58.8880   22.9610   19.1980 C.3   274  FLC274      0.1560
      6  CGC       59.0990   22.4560   20.6280 C.2   274  FLC274      0.3680
      7  OA1       54.6240   25.2360   19.1470 O.co2 274  FLC274     -0.2455
      8  OA2       56.4220   26.5130   19.0400 O.co2 274  FLC274     -0.2455
      9  OB1       59.0400   24.2000   16.9030 O.co2 274  FLC274     -0.2429
     10  OB2       57.7160   25.9100   17.4460 O.co2 274  FLC274     -0.2429
     11  OG1       58.1870   22.6300   21.4640 O.co2 274  FLC274     -0.2455
     12  OG2       60.2000   21.9160   20.8600 O.co2 274  FLC274     -0.2455
     13  OHB       58.8520   25.2570   20.0040 O.3   274  FLC274     -0.2129
@<TRIPOS>BOND
     1     9     4   ar
     2    10     4   ar
     3     4     3    1
     4     8     1   ar
     5     3     5    1
     6     3     2    1
     7     3    13    1
     8     7     1   ar
     9     1     2    1
    10     5     6    1
    11     6    12   ar
    12     6    11   ar
