@<TRIPOS>MOLECULE
3h6u_GLU_A_1.pdb
 10 9 0 0 0
SMALL
GASTEIGER

@<TRIPOS>ATOM
      1  N         41.8590   13.6390   16.6930 N.3   264  GLU264     -0.1208
      2  CA        42.8070   14.7760   16.9130 C.3   264  GLU264      0.1949
      3  C         43.0500   14.9780   18.4020 C.2   264  GLU264      0.3819
      4  O         43.7510   15.9440   18.7620 O.co2 264  GLU264     -0.2441
      5  CB        42.2430   16.0710   16.3070 C.3   264  GLU264      0.0424
      6  CG        42.3660   16.1600   14.7930 C.3   264  GLU264      0.1161
      7  CD        43.7860   16.4530   14.3310 C.2   264  GLU264      0.3649
      8  OE1       44.0610   16.3030   13.1200 O.co2 264  GLU264     -0.2457
      9  OE2       44.6230   16.8380   15.1770 O.co2 264  GLU264     -0.2457
     10  OXT       42.5320   14.1650   19.1880 O.co2 264  GLU264     -0.2441
@<TRIPOS>BOND
     1     8     7   ar
     2     7     6    1
     3     7     9   ar
     4     6     5    1
     5     5     2    1
     6     1     2    1
     7     2     3    1
     8     3     4   ar
     9     3    10   ar
