@<TRIPOS>MOLECULE
3h6u_NS3_A_1.pdb
 28 31 0 0 0
SMALL
GASTEIGER

@<TRIPOS>ATOM
      1  C2        39.5630   -4.3460   18.8660 C.3   265  NS3265      0.0034
      2  C3        40.8750   -4.8400   19.4840 C.3   265  NS3265      0.0001
      3  C4        41.7990   -3.6310   19.3400 C.3   265  NS3265      0.0001
      4  C5        40.8390   -2.5480   19.8300 C.3   265  NS3265      0.0034
      5  C1        39.6420   -2.8160   18.9160 C.3   265  NS3265      0.0409
      6  C6        39.9260   -2.2820   17.5100 C.3   265  NS3265      0.1988
      7  N2        38.7000   -2.3940   16.7030 N.2   265  NS3265     -0.2554
      8  N1        40.3710   -0.8850   17.6260 N.3   265  NS3265     -0.0544
      9  S1        40.7210   -0.3120   16.1430 S.O2  265  NS3265      0.0797
     10  O1        41.9040   -1.0310   15.5650 O.2   265  NS3265     -0.1515
     11  O2        40.9910    1.1610   16.2190 O.2   265  NS3265     -0.1515
     12  C7        39.3030   -0.6140   15.1730 C.2   265  NS3265      0.1383
     13  C9        39.0420    0.1570   14.0480 C.2   265  NS3265      0.0404
     14  C8        38.4040   -1.5850   15.5960 C.2   265  NS3265      0.0780
     15  C12       37.2230   -1.7700   14.8850 C.3   265  NS3265      0.0701
     16  C11       36.9510   -1.0000   13.7590 C.2   265  NS3265     -0.0193
     17  C13       35.6530   -1.2240   12.9800 C.3   265  NS3265      0.0281
     18  C10       37.8630   -0.0380   13.3400 C.2   265  NS3265      0.1161
     19  S2        37.5860    0.9320   11.9120 S.O2  265  NS3265      0.0628
     20  O3        38.5370    2.0910   11.9350 O.2   265  NS3265     -0.1528
     21  O4        36.1750    1.4390   11.9020 O.2   265  NS3265     -0.1528
     22  N3        37.8600    0.0380   10.5770 N.3   265  NS3265     -0.1527
     23  C14       39.2480    0.2360   10.1310 C.3   265  NS3265      0.1131
     24  C15       39.4960   -0.5680    8.8540 C.3   265  NS3265      0.0915
     25  N4        38.5700   -0.1150    7.8050 N.3   265  NS3265     -0.2690
     26  C18       38.8160   -0.8800    6.5740 C.3   265  NS3265      0.0897
     27  C16       37.1860   -0.3360    8.2470 C.3   265  NS3265      0.0915
     28  C17       36.9280    0.4660    9.5240 C.3   265  NS3265      0.1131
@<TRIPOS>BOND
     1    26    25    1
     2    25    27    1
     3    25    24    1
     4    27    28    1
     5    24    23    1
     6    28    22    1
     7    23    22    1
     8    22    19    1
     9    21    19    2
    10    19    20    2
    11    19    18    1
    12    17    16    1
    13    18    16    2
    14    18    13    1
    15    16    15    1
    16    13    12    2
    17    15    14    1
    18    12    14    1
    19    12     9    1
    20    10     9    2
    21    14     7    2
    22     9    11    2
    23     9     8    1
    24     7     6    1
    25     6     8    1
    26     6     5    1
    27     1     5    1
    28     1     2    1
    29     5     4    1
    30     3     2    1
    31     3     4    1
