@<TRIPOS>MOLECULE
3h6v_GLU_A_1.pdb
 10 9 0 0 0
SMALL
GASTEIGER

@<TRIPOS>ATOM
      1  N         79.9880    6.8430   43.1010 N.3   264  GLU264     -0.1208
      2  CA        81.4380    7.0390   42.8330 C.3   264  GLU264      0.1949
      3  C         81.6830    7.1830   41.3270 C.2   264  GLU264      0.3819
      4  O         82.8480    7.3610   40.9240 O.co2 264  GLU264     -0.2441
      5  CB        82.2290    5.8510   43.4020 C.3   264  GLU264      0.0424
      6  CG        82.3500    5.8560   44.9330 C.3   264  GLU264      0.1161
      7  CD        83.3360    6.9070   45.4410 C.2   264  GLU264      0.3649
      8  OE1       83.4090    7.1320   46.6670 O.co2 264  GLU264     -0.2457
      9  OE2       84.0500    7.5030   44.6070 O.co2 264  GLU264     -0.2457
     10  OXT       80.6960    7.1280   40.5640 O.co2 264  GLU264     -0.2441
@<TRIPOS>BOND
     1    10     3   ar
     2     4     3   ar
     3     3     2    1
     4     2     1    1
     5     2     5    1
     6     5     6    1
     7     9     7   ar
     8     6     7    1
     9     7     8   ar
