@<TRIPOS>MOLECULE
3h6v_NS6_A_1.pdb
 27 30 0 0 0
SMALL
GASTEIGER

@<TRIPOS>ATOM
      1  C2        63.3000   14.7900   41.3310 C.3   265  NS6265      0.0015
      2  C3        63.2340   16.1610   40.6500 C.3   265  NS6265      0.0000
      3  C4        64.5770   16.2580   39.9230 C.3   265  NS6265      0.0000
      4  C5        65.4980   15.7760   41.0430 C.3   265  NS6265      0.0015
      5  C1        64.7950   14.4610   41.3820 C.3   265  NS6265      0.0183
      6  C6        65.2560   13.8480   42.7060 C.3   265  NS6265      0.1020
      7  C9        64.5870   12.4910   42.9430 C.3   265  NS6265      0.0470
      8  N1        66.7180   13.6940   42.6570 N.3   265  NS6265     -0.0789
      9  S1        67.2770   13.3750   44.1530 S.O2  265  NS6265      0.0765
     10  O2        68.6960   12.8960   44.0760 O.2   265  NS6265     -0.1516
     11  O1        67.2050   14.6100   45.0020 O.2   265  NS6265     -0.1516
     12  C7        66.2730   12.1250   44.8520 C.ar  265  NS6265      0.1209
     13  C10       66.6860   11.4520   45.9920 C.ar  265  NS6265      0.0395
     14  C8        65.0600   11.8210   44.2360 C.ar  265  NS6265     -0.0020
     15  C13       64.2630   10.8300   44.7910 C.ar  265  NS6265     -0.0015
     16  C12       64.6710   10.1480   45.9370 C.ar  265  NS6265      0.0197
     17  C11       65.8830   10.4530   46.5370 C.ar  265  NS6265      0.1235
     18  S2        66.4230    9.5820   47.9520 S.O2  265  NS6265      0.0634
     19  O3        67.9140    9.4420   47.9140 O.2   265  NS6265     -0.1528
     20  O4        65.7920    8.2220   47.9840 O.2   265  NS6265     -0.1528
     21  N2        65.9770   10.4170   49.2740 N.3   265  NS6265     -0.1527
     22  C14       67.0560   11.3140   49.7140 C.3   265  NS6265      0.1131
     23  C15       66.5820   12.1050   50.9340 C.3   265  NS6265      0.0915
     24  N3        66.2120   11.1750   52.0130 N.3   265  NS6265     -0.2690
     25  C18       65.7570   11.9350   53.1850 C.3   265  NS6265      0.0897
     26  C16       65.1310   10.2880   51.5600 C.3   265  NS6265      0.0915
     27  C17       65.6140    9.4860   50.3510 C.3   265  NS6265      0.1131
@<TRIPOS>BOND
     1     3     2    1
     2     3     4    1
     3     2     1    1
     4     4     5    1
     5     1     5    1
     6     5     6    1
     7     8     6    1
     8     8     9    1
     9     6     7    1
    10     7    14    1
    11    10     9    2
    12     9    12    1
    13     9    11    2
    14    14    15   ar
    15    14    12   ar
    16    15    16   ar
    17    12    13   ar
    18    16    17   ar
    19    13    17   ar
    20    17    18    1
    21    19    18    2
    22    18    20    2
    23    18    21    1
    24    21    22    1
    25    21    27    1
    26    22    23    1
    27    27    26    1
    28    23    24    1
    29    26    24    1
    30    24    25    1
