@<TRIPOS>MOLECULE
3h6w_GLU_A_1.pdb
 10 9 0 0 0
SMALL
GASTEIGER

@<TRIPOS>ATOM
      1  N         28.2350   29.2430   13.4800 N.3   264  GLU264     -0.1208
      2  CA        29.5400   28.9620   14.1080 C.3   264  GLU264      0.1949
      3  C         29.7790   27.4670   14.1300 C.2   264  GLU264      0.3819
      4  O         30.8290   27.1020   14.6080 O.co2 264  GLU264     -0.2441
      5  CB        29.5690   29.5300   15.5240 C.3   264  GLU264      0.0424
      6  CG        29.7540   31.0350   15.5790 C.3   264  GLU264      0.1161
      7  CD        31.1650   31.5110   15.1860 C.2   264  GLU264      0.3649
      8  OE1       31.2970   32.7260   14.9250 O.co2 264  GLU264     -0.2457
      9  OE2       32.1180   30.6960   15.1530 O.co2 264  GLU264     -0.2457
     10  OXT       28.9990   26.6280   13.6420 O.co2 264  GLU264     -0.2441
@<TRIPOS>BOND
     1     1     2    1
     2    10     3   ar
     3     2     3    1
     4     2     5    1
     5     3     4   ar
     6     8     7   ar
     7     9     7   ar
     8     7     6    1
     9     5     6    1
