@<TRIPOS>MOLECULE
3h6w_NS7_A_1.pdb
 28 31 0 0 0
SMALL
GASTEIGER

@<TRIPOS>ATOM
      1  C2        18.0430   26.2150   -0.1090 C.3   265  NS7265      0.0015
      2  C3        18.5650   25.0630   -0.9450 C.3   265  NS7265      0.0000
      3  C4        19.9760   25.5620   -1.2700 C.3   265  NS7265      0.0000
      4  C5        19.7360   27.0240   -1.6800 C.3   265  NS7265      0.0015
      5  C1        18.4630   27.4550   -0.9410 C.3   265  NS7265      0.0183
      6  C6        18.7870   28.6840   -0.0360 C.3   265  NS7265      0.1020
      7  C9        17.6180   29.1010    0.8500 C.3   265  NS7265      0.0470
      8  N1        19.9730   28.4330    0.8400 N.3   265  NS7265     -0.0789
      9  S1        20.5900   29.8110    1.4060 S.O2  265  NS7265      0.0765
     10  O1        21.2550   30.5350    0.3170 O.2   265  NS7265     -0.1516
     11  O2        21.4650   29.4340    2.5160 O.2   265  NS7265     -0.1516
     12  C7        19.2260   30.7590    1.9770 C.ar  265  NS7265      0.1209
     13  C10       19.4620   31.8990    2.7380 C.ar  265  NS7265      0.0392
     14  C8        17.9340   30.3550    1.6920 C.ar  265  NS7265     -0.0023
     15  C13       16.8750   31.1400    2.1230 C.ar  265  NS7265     -0.0058
     16  C12       17.0820   32.2840    2.8770 C.ar  265  NS7265     -0.0035
     17  C14       15.8310   33.0890    3.3100 C.3   265  NS7265      0.0324
     18  C11       18.3870   32.6720    3.1730 C.ar  265  NS7265      0.1195
     19  S2        18.7440   34.0920    4.1170 S.O2  265  NS7265      0.0631
     20  O3        20.1870   34.0260    4.3780 O.2   265  NS7265     -0.1528
     21  O4        17.9390   34.0390    5.3880 O.2   265  NS7265     -0.1528
     22  N2        18.3220   35.3110    3.1890 N.3   265  NS7265     -0.1527
     23  C15       17.7700   36.4980    3.8550 C.3   265  NS7265      0.1131
     24  C16       17.2900   37.4900    2.7810 C.3   265  NS7265      0.0915
     25  N3        18.3730   37.8030    1.8250 N.3   265  NS7265     -0.2690
     26  C19       19.4330   38.5520    2.5360 C.3   265  NS7265      0.0897
     27  C17       18.8860   36.5800    1.1770 C.3   265  NS7265      0.0915
     28  C18       19.4230   35.6420    2.2600 C.3   265  NS7265      0.1131
@<TRIPOS>BOND
     1     4     3    1
     2     4     5    1
     3     3     2    1
     4     2     1    1
     5     5     1    1
     6     5     6    1
     7     6     8    1
     8     6     7    1
     9    10     9    2
    10     8     9    1
    11     7    14    1
    12    27    25    1
    13    27    28    1
    14     9    12    1
    15     9    11    2
    16    14    12   ar
    17    14    15   ar
    18    25    26    1
    19    25    24    1
    20    12    13   ar
    21    15    16   ar
    22    28    22    1
    23    13    18   ar
    24    24    23    1
    25    16    18   ar
    26    16    17    1
    27    18    19    1
    28    22    23    1
    29    22    19    1
    30    19    20    2
    31    19    21    2
