@<TRIPOS>MOLECULE
3h72_SIA_A_1.pdb
 21 21 0 0 0
SMALL
GASTEIGER

@<TRIPOS>ATOM
      1  C1       107.0300   10.1470   36.0390 C.2   900  SIA900      0.4179
      2  C2       106.2860    8.9350   35.4710 C.3   900  SIA900      0.3155
      3  C3       106.9150    7.6590   36.0430 C.3   900  SIA900      0.1056
      4  C4       105.9320    6.4880   35.9660 C.3   900  SIA900      0.1798
      5  C5       104.8490    6.7770   34.9260 C.3   900  SIA900      0.1554
      6  C6       104.0590    8.0020   35.3920 C.3   900  SIA900      0.1734
      7  C7       103.0540    8.4570   34.3330 C.3   900  SIA900      0.2135
      8  C8       102.4140    9.7870   34.7370 C.3   900  SIA900      0.2173
      9  C9       101.3320   10.2020   33.7360 C.3   900  SIA900      0.2175
     10  C10      103.4020    5.2290   33.6750 C.2   900  SIA900      0.2420
     11  C11      102.5650    4.1210   33.6500 C.3   900  SIA900      0.0964
     12  N5       103.9400    5.6250   34.8250 N.am  900  SIA900     -0.2020
     13  O1A      108.2290    9.9810   36.3550 O.co2 900  SIA900     -0.2401
     14  O1B      106.3820   11.2100   36.1460 O.co2 900  SIA900     -0.2401
     15  O2       106.4080    8.9370   34.0460 O.3   900  SIA900     -0.1830
     16  O4       106.6280    5.2840   35.6310 O.3   900  SIA900     -0.2210
     17  O6       104.9080    9.0730   35.8370 O.3   900  SIA900     -0.3220
     18  O7       103.7140    8.6030   33.0720 O.3   900  SIA900     -0.2176
     19  O8       101.8400    9.6640   36.0410 O.3   900  SIA900     -0.2175
     20  O9       100.8330   11.4950   34.0850 O.3   900  SIA900     -0.2175
     21  O10      103.6770    5.9010   32.5240 O.2   900  SIA900     -0.2733
@<TRIPOS>BOND
     1    21    10    2
     2    18     7    1
     3    11    10    1
     4    10    12   am
     5     9    20    1
     6     9     8    1
     7    15     2    1
     8     7     8    1
     9     7     6    1
    10     8    19    1
    11    12     5    1
    12     5     6    1
    13     5     4    1
    14     6    17    1
    15     2    17    1
    16     2     1    1
    17     2     3    1
    18    16     4    1
    19     4     3    1
    20     1    14   ar
    21     1    13   ar
