@<TRIPOS>MOLECULE
3h73_DAN_A_1.pdb
 20 20 0 0 0
SMALL
GASTEIGER

@<TRIPOS>ATOM
      1  C1       106.8990    9.7880   36.3280 C.2   900  DAN900      0.3914
      2  C2       106.1450    8.5900   35.7770 C.3   900  DAN900      0.2203
      3  C3       106.8000    7.2130   35.7970 C.3   900  DAN900      0.0760
      4  C4       105.7400    6.1150   35.9340 C.3   900  DAN900      0.1773
      5  C5       104.6080    6.4270   34.9700 C.3   900  DAN900      0.1552
      6  C6       103.9460    7.7360   35.4100 C.3   900  DAN900      0.1710
      7  C7       102.7840    8.0930   34.4820 C.3   900  DAN900      0.2134
      8  C8       102.1650    9.4230   34.8870 C.3   900  DAN900      0.2173
      9  C9       101.0850    9.8280   33.8760 C.3   900  DAN900      0.2175
     10  C10      103.0990    4.9210   33.7740 C.2   900  DAN900      0.2420
     11  C11      102.1470    3.7240   33.8520 C.3   900  DAN900      0.0964
     12  N5       103.6310    5.3190   34.9200 N.am  900  DAN900     -0.2020
     13  O1A      108.1050    9.6450   36.6250 O.co2 900  DAN900     -0.2430
     14  O1B      106.2800   10.8570   36.4650 O.co2 900  DAN900     -0.2430
     15  O4       106.3150    4.8440   35.6140 O.3   900  DAN900     -0.2211
     16  O6       104.8960    8.7960   35.2800 O.3   900  DAN900     -0.3429
     17  O7       103.2920    8.2270   33.1510 O.3   900  DAN900     -0.2176
     18  O8       101.5590    9.2880   36.1780 O.3   900  DAN900     -0.2175
     19  O9       100.6000   11.1420   34.1500 O.3   900  DAN900     -0.2175
     20  O10      103.4280    5.5270   32.6000 O.2   900  DAN900     -0.2733
@<TRIPOS>BOND
     1    20    10    2
     2    17     7    1
     3    10    11    1
     4    10    12   am
     5     9    19    1
     6     9     8    1
     7     7     8    1
     8     7     6    1
     9     8    18    1
    10    12     5    1
    11     5     6    1
    12     5     4    1
    13    16     6    1
    14    16     2    1
    15    15     4    1
    16     2     3    1
    17     2     1    1
    18     3     4    1
    19     1    14   ar
    20     1    13   ar
