@<TRIPOS>MOLECULE
3h7c_211_X_1.pdb
 10 9 0 0 0
SMALL
GASTEIGER

@<TRIPOS>ATOM
      1  O1        44.9030   31.9840    8.9840 O.3   390  211390     -0.2189
      2  O2        42.4020   32.8180    6.6090 O.3   390  211390     -0.2189
      3  C1        44.4950   34.3500    9.6070 C.3   390  211390      0.1082
      4  C2        44.6150   32.8890   10.0600 C.3   390  211390      0.1993
      5  O3        42.2520   37.2890    8.8040 O.3   390  211390     -0.2189
      6  C3        42.3590   34.2350    8.6060 C.3   390  211390      0.1082
      7  C4        41.7080   33.9190    7.2400 C.3   390  211390      0.1993
      8  C5        43.9360   35.8790    7.7730 C.3   390  211390      0.1082
      9  C6        43.6620   37.0120    8.7750 C.3   390  211390      0.1993
     10  N1        43.7970   34.4860    8.3250 N.3   390  211390     -0.2660
@<TRIPOS>BOND
     1     2     7    1
     2     7     6    1
     3     8    10    1
     4     8     9    1
     5    10     6    1
     6    10     3    1
     7     9     5    1
     8     1     4    1
     9     3     4    1
