@<TRIPOS>MOLECULE
3h7d_ASG_A_1.pdb
 18 18 0 0 0
SMALL
GASTEIGER

@<TRIPOS>ATOM
      1  C1        27.5350  -18.3440   92.0100 C.3   219  ASG219      0.2892
      2  C2        28.4370  -17.8740   90.8100 C.3   219  ASG219      0.1569
      3  C3        28.2520  -18.7930   89.6130 C.3   219  ASG219      0.0616
      4  C4        28.5180  -20.2360   90.0150 C.3   219  ASG219      0.1748
      5  C5        27.4400  -20.6440   91.0560 C.3   219  ASG219      0.1801
      6  C6        27.4100  -22.1810   91.3580 C.3   219  ASG219      0.2141
      7  C7        29.3060  -15.4810   91.0630 C.2   219  ASG219      0.2420
      8  C8        29.1130  -13.9640   90.8620 C.3   219  ASG219      0.0964
      9  O1        27.6750  -17.5580   93.1860 O.3   219  ASG219     -0.1880
     10  N         28.3510  -16.4340   90.5030 N.am  219  ASG219     -0.2018
     11  O4        29.8200  -20.4870   90.5170 O.3   219  ASG219     -0.2411
     12  O5        27.6940  -19.8160   92.2540 O.3   219  ASG219     -0.3244
     13  O6        26.5990  -22.6520   92.4250 O.3   219  ASG219     -0.2176
     14  O7        30.2200  -15.8790   91.6940 O.2   219  ASG219     -0.2733
     15  OSA       31.0970  -21.3590   88.5500 O.2   219  ASG219     -0.3452
     16  OSB       29.9590  -22.9950   89.9230 O.2   219  ASG219     -0.3452
     17  OSC       31.8880  -21.9550   90.7570 O.3   219  ASG219     -0.2682
     18  S         30.7150  -21.7440   89.9110 S.3   219  ASG219     -0.0001
@<TRIPOS>BOND
     1    15    18    2
     2     3     4    1
     3     3     2    1
     4    18    16    2
     5    18    11    1
     6    18    17    1
     7     4    11    1
     8     4     5    1
     9    10     2    1
    10    10     7   am
    11     2     1    1
    12     8     7    1
    13     5     6    1
    14     5    12    1
    15     7    14    2
    16     6    13    1
    17     1    12    1
    18     1     9    1
