@<TRIPOS>MOLECULE
3h7d_E64_A_1.pdb
 25 24 0 0 0
SMALL
GASTEIGER

@<TRIPOS>ATOM
      1  C1        53.9520  -17.1440   79.7240 C.2   222  E64222      0.3680
      2  O1        53.2250  -18.0640   79.9100 O.co2 222  E64222     -0.2455
      3  O2        54.1110  -16.5890   78.4490 O.co2 222  E64222     -0.2455
      4  C2        54.7630  -16.5350   80.8640 C.3   222  E64222      0.1564
      5  C3        56.2160  -16.2610   80.4510 C.3   222  E64222      0.2403
      6  O3        56.8630  -17.4260   80.0140 O.3   222  E64222     -0.2126
      7  C4        57.0480  -15.5260   81.4910 C.2   222  E64222      0.2728
      8  O4        57.5680  -14.5010   81.2480 O.2   222  E64222     -0.2706
      9  N1        57.3030  -16.1340   82.7750 N.am  222  E64222     -0.1956
     10  C6        58.0790  -15.3750   83.7350 C.3   222  E64222      0.1731
     11  C7        57.7780  -15.9040   85.1320 C.3   222  E64222      0.0311
     12  C8        56.5920  -15.2850   85.8380 C.3   222  E64222      0.0022
     13  C9        56.6620  -15.6630   87.3190 C.3   222  E64222      0.0001
     14  C10       56.5080  -13.7810   85.5760 C.3   222  E64222      0.0001
     15  C11       59.5780  -15.5740   83.4950 C.2   222  E64222      0.2654
     16  O5        59.9610  -16.6890   83.4220 O.2   222  E64222     -0.2711
     17  N2        60.5050  -14.5410   83.9440 N.am  222  E64222     -0.1768
     18  C12       61.9440  -14.8300   83.8840 C.2   222  E64222      0.0842
     19  C13       62.6210  -14.6010   82.5170 C.2   222  E64222     -0.0045
     20  C14       64.1690  -14.5870   82.4370 C.3   222  E64222      0.0743
     21  C15       64.8210  -13.2010   82.3730 C.3   222  E64222      0.2251
     22  N3        65.8290  -12.9310   81.3470 N.pl3 222  E64222     -0.0862
     23  C16       66.0890  -11.5330   81.0360 C.cat 222  E64222      0.5346
     24  N4        67.1010  -11.1910   80.2720 N.pl3 222  E64222      0.1354
     25  N5        65.5600  -10.6210   81.8360 N.pl3 222  E64222      0.1354
@<TRIPOS>BOND
     1     3     1   ar
     2     1     2   ar
     3     1     4    1
     4     6     5    1
     5    24    23    1
     6     5     4    1
     7     5     7    1
     8    23    22    2
     9    23    25    1
    10     8     7    2
    11    22    21    1
    12     7     9   am
    13    21    20    1
    14    20    19    1
    15    19    18    2
    16     9    10    1
    17    16    15    2
    18    15    10    1
    19    15    17   am
    20    10    11    1
    21    18    17    1
    22    11    12    1
    23    14    12    1
    24    12    13    1
