@<TRIPOS>MOLECULE
3h7d_BDP_A_1.pdb
 12 12 0 0 0
SMALL
GASTEIGER

@<TRIPOS>ATOM
      1  C1        25.7420  -16.2500   96.4130 C.3   218  BDP218      0.3026
      2  C2        26.1930  -17.7030   96.5330 C.3   218  BDP218      0.2409
      3  C3        27.2200  -18.0200   95.4610 C.3   218  BDP218      0.1903
      4  C4        26.6340  -17.7080   94.0880 C.3   218  BDP218      0.0771
      5  C5        26.1320  -16.2670   94.0900 C.3   218  BDP218      0.2228
      6  C6        25.5390  -15.9140   92.7270 C.2   218  BDP218      0.3915
      7  O2        26.7530  -17.9540   97.8030 O.3   218  BDP218     -0.2149
      8  O3        27.5650  -19.3800   95.5570 O.3   218  BDP218     -0.2201
      9  O5        25.1810  -16.0790   95.1260 O.3   218  BDP218     -0.3173
     10  O6A       26.0500  -14.9670   92.0880 O.co2 218  BDP218     -0.2430
     11  O1        24.7930  -15.9580   97.4210 O.3   218  BDP218     -0.1869
     12  O6B       24.5830  -16.6000   92.3020 O.co2 218  BDP218     -0.2430
@<TRIPOS>BOND
     1    10     6   ar
     2    12     6   ar
     3     6     5    1
     4     4     5    1
     5     4     3    1
     6     5     9    1
     7     9     1    1
     8     3     8    1
     9     3     2    1
    10     1     2    1
    11     1    11    1
    12     2     7    1
