@<TRIPOS>MOLECULE
3h7j_PPY_A_1.pdb
 12 12 0 0 0
SMALL
GASTEIGER

@<TRIPOS>ATOM
      1  C1        15.1440   -7.6530  -11.7590 C.2   246  PPY246      0.4222
      2  O1        14.9030   -6.4000  -11.7420 O.co2 246  PPY246     -0.2373
      3  O2        16.0210   -8.2880  -12.3910 O.co2 246  PPY246     -0.2373
      4  C2        14.3820   -8.5520  -10.9200 C.2   246  PPY246      0.2564
      5  O3        14.5060   -9.7570  -10.9360 O.2   246  PPY246     -0.2839
      6  C3        13.5110   -7.9230   -9.8730 C.3   246  PPY246      0.1025
      7  C1'       12.6890   -8.7260   -8.9210 C.ar  246  PPY246     -0.0142
      8  C2'       12.5270  -10.1050   -8.9320 C.ar  246  PPY246     -0.0038
      9  C3'       11.6660  -10.7080   -8.0290 C.ar  246  PPY246     -0.0003
     10  C4'       10.9660   -9.9750   -7.0800 C.ar  246  PPY246     -0.0000
     11  C5'       11.1260   -8.6100   -7.0610 C.ar  246  PPY246     -0.0003
     12  C6'       11.9760   -7.9740   -7.9660 C.ar  246  PPY246     -0.0038
@<TRIPOS>BOND
     1     3     1   ar
     2     1     2   ar
     3     1     4    1
     4     5     4    2
     5     4     6    1
     6     6     7    1
     7     8     7   ar
     8     8     9   ar
     9     7    12   ar
    10     9    10   ar
    11    12    11   ar
    12    10    11   ar
