@<TRIPOS>MOLECULE
3h7r_NAP_A_1.pdb
 48 52 0 0 0
SMALL
GASTEIGER

@<TRIPOS>ATOM
      1  PA        63.0530    3.4500   27.2720 P.3   401  NAP401      0.2189
      2  O1A       62.1250    2.3720   27.6810 O.3   401  NAP401     -0.4371
      3  O2A       64.2270    3.0120   26.4400 O.2   401  NAP401     -0.5170
      4  O5B       63.4510    4.1790   28.6220 O.3   401  NAP401     -0.3112
      5  C5B       63.9750    5.4740   28.5870 C.3   401  NAP401      0.1813
      6  C4B       63.8640    6.0360   29.9860 C.3   401  NAP401      0.1820
      7  O4B       64.6670    5.3390   30.9400 O.3   401  NAP401     -0.3136
      8  C3B       64.3390    7.4630   29.8920 C.3   401  NAP401      0.2157
      9  O3B       63.5710    8.2560   30.7690 O.3   401  NAP401     -0.2175
     10  C2B       65.7680    7.3160   30.3620 C.3   401  NAP401      0.2314
     11  O2B       66.0840    8.5190   30.9760 O.3   401  NAP401     -0.2630
     12  C1B       65.7530    6.1570   31.3570 C.3   401  NAP401      0.3158
     13  N9A       66.9540    5.3090   31.4110 N.pl3 401  NAP401     -0.1439
     14  C8A       67.7330    4.8730   30.3430 C.3   401  NAP401      0.3377
     15  N7A       68.7050    4.0790   30.8030 N.2   401  NAP401     -0.2095
     16  C5A       68.5850    3.9780   32.1410 C.2   401  NAP401      0.2526
     17  C6A       69.3540    3.3020   33.0710 C.2   401  NAP401      0.4393
     18  N6A       70.4150    2.5380   32.7410 N.pl3 401  NAP401      0.2180
     19  N1A       68.9820    3.3920   34.3940 N.2   401  NAP401      0.0021
     20  C2A       67.8820    4.1620   34.7470 C.3   401  NAP401      0.5254
     21  N3A       67.1290    4.8460   33.8300 N.2   401  NAP401     -0.0055
     22  C4A       67.4920    4.7520   32.5260 C.2   401  NAP401      0.3518
     23  O3        62.2280    4.6280   26.5250 O.3   401  NAP401     -0.2703
     24  PN        61.5620    4.8920   25.1340 P.3   401  NAP401      0.2189
     25  O1N       62.2030    6.1030   24.5660 O.2   401  NAP401     -0.5170
     26  O2N       60.0740    4.9310   25.3780 O.3   401  NAP401     -0.4371
     27  O5D       61.8040    3.5940   24.2220 O.3   401  NAP401     -0.3112
     28  C5D       63.0590    3.3920   23.5780 C.3   401  NAP401      0.1813
     29  C4D       62.9720    3.6780   22.0970 C.3   401  NAP401      0.1799
     30  O4D       62.0220    2.8610   21.4470 O.3   401  NAP401     -0.3327
     31  C3D       62.4940    5.0730   21.7120 C.3   401  NAP401      0.2158
     32  O3D       63.4330    6.0980   21.9650 O.3   401  NAP401     -0.2175
     33  C2D       62.1770    4.8920   20.2630 C.3   401  NAP401      0.2309
     34  O2D       63.3810    4.8440   19.5120 O.3   401  NAP401     -0.2158
     35  C1D       61.5210    3.5100   20.3120 C.3   401  NAP401      0.2263
     36  N1N       60.0340    3.5630   20.4270 N.pl3 401  NAP401     -0.2787
     37  C2N       59.2980    3.2540   19.3450 C.3   401  NAP401      0.1244
     38  C3N       57.9060    3.3000   19.4390 C.2   401  NAP401      0.0544
     39  C7N       57.1030    2.9140   18.2780 C.2   401  NAP401      0.2818
     40  O7N       55.8150    3.3290   18.2240 O.2   401  NAP401     -0.2670
     41  N7N       57.6160    2.1980   17.2940 N.am  401  NAP401     -0.0839
     42  C4N       57.2710    3.6750   20.6330 C.2   401  NAP401      0.0033
     43  C5N       58.0550    3.9680   21.7270 C.2   401  NAP401      0.0157
     44  C6N       59.4390    3.9080   21.6180 C.2   401  NAP401      0.0633
     45  P2B       67.3370    9.4120   30.5810 P.3   401  NAP401      0.5328
     46  O1X       67.2990    9.6930   29.1100 O.2   401  NAP401     -0.2224
     47  O2X       67.0490   10.7010   31.3670 O.3   401  NAP401     -0.1145
     48  O3X       68.5140    8.6510   31.0530 O.3   401  NAP401     -0.1145
@<TRIPOS>BOND
     1    41    39   am
     2    40    39    2
     3    39    38    1
     4    37    38    1
     5    37    36    1
     6    38    42    2
     7    34    33    1
     8    33    35    1
     9    33    31    1
    10    35    36    1
    11    35    30    1
    12    36    44    1
    13    42    43    1
    14    30    29    1
    15    44    43    2
    16    31    32    1
    17    31    29    1
    18    29    28    1
    19    28    27    1
    20    27    24    1
    21    25    24    2
    22    24    26    1
    23    24    23    1
    24     3     1    2
    25    23     1    1
    26     1     2    1
    27     1     4    1
    28     5     4    1
    29     5     6    1
    30    46    45    2
    31     8     6    1
    32     8    10    1
    33     8     9    1
    34     6     7    1
    35    14    15    1
    36    14    13    1
    37    10    11    1
    38    10    12    1
    39    45    11    1
    40    45    48    1
    41    45    47    1
    42    15    16    2
    43     7    12    1
    44    12    13    1
    45    13    22    1
    46    16    22    1
    47    16    17    1
    48    22    21    2
    49    18    17    1
    50    17    19    2
    51    21    20    1
    52    19    20    1
