@<TRIPOS>MOLECULE
3h7u_NAP_A_1.pdb
 48 52 0 0 0
SMALL
GASTEIGER

@<TRIPOS>ATOM
      1  PA         1.5050    5.9170   22.6220 P.3   401  NAP401      0.2189
      2  O1A        1.1430    6.3360   21.2510 O.2   401  NAP401     -0.5170
      3  O2A        1.5890    4.4930   22.9850 O.3   401  NAP401     -0.4371
      4  O5B        0.5980    6.7430   23.6240 O.3   401  NAP401     -0.3112
      5  C5B        0.7610    6.6370   25.0290 C.3   401  NAP401      0.1813
      6  C4B       -0.1220    7.6810   25.6780 C.3   401  NAP401      0.1820
      7  O4B       -1.4990    7.3680   25.4480 O.3   401  NAP401     -0.3136
      8  C3B        0.0510    7.8090   27.1870 C.3   401  NAP401      0.2157
      9  O3B       -0.0760    9.1660   27.5410 O.3   401  NAP401     -0.2175
     10  C2B       -1.1080    6.9950   27.7350 C.3   401  NAP401      0.2314
     11  O2B       -1.5030    7.4490   29.0250 O.3   401  NAP401     -0.2630
     12  C1B       -2.1870    7.2260   26.6880 C.3   401  NAP401      0.3158
     13  N9A       -3.1290    6.1180   26.5170 N.pl3 401  NAP401     -0.1439
     14  C8A       -2.8210    4.7940   26.4550 C.3   401  NAP401      0.3377
     15  N7A       -3.9250    4.0720   26.2000 N.2   401  NAP401     -0.2095
     16  C5A       -4.9400    4.9570   26.0440 C.2   401  NAP401      0.2526
     17  C6A       -6.2920    4.7950   25.7660 C.2   401  NAP401      0.4393
     18  N6A       -6.8380    3.6050   25.6060 N.pl3 401  NAP401      0.2180
     19  N1A       -7.0540    5.9250   25.7000 N.2   401  NAP401      0.0021
     20  C2A       -6.5360    7.1690   25.8740 C.3   401  NAP401      0.5254
     21  N3A       -5.2110    7.3580   26.1390 N.2   401  NAP401     -0.0055
     22  C4A       -4.4500    6.2360   26.2240 C.2   401  NAP401      0.3518
     23  O3         2.9190    6.6240   22.9530 O.3   401  NAP401     -0.2703
     24  PN         4.4770    6.2730   23.1370 P.3   401  NAP401      0.2189
     25  O1N        4.7040    5.8220   24.5500 O.3   401  NAP401     -0.4371
     26  O2N        5.2110    7.4310   22.5640 O.2   401  NAP401     -0.5170
     27  O5D        4.7680    5.0560   22.1380 O.3   401  NAP401     -0.3112
     28  C5D        4.5580    3.7140   22.5310 C.3   401  NAP401      0.1813
     29  C4D        5.8720    3.0210   22.8760 C.3   401  NAP401      0.1799
     30  O4D        6.6880    2.9320   21.7100 O.3   401  NAP401     -0.3327
     31  C3D        6.7550    3.7070   23.9020 C.3   401  NAP401      0.2158
     32  O3D        6.2550    3.6030   25.2280 O.3   401  NAP401     -0.2175
     33  C2D        8.0500    2.9610   23.6360 C.3   401  NAP401      0.2309
     34  O2D        7.9600    1.6500   24.2110 O.3   401  NAP401     -0.2158
     35  C1D        8.0560    2.9180   22.1010 C.3   401  NAP401      0.2263
     36  N1N        8.7530    4.0920   21.5220 N.pl3 401  NAP401     -0.2787
     37  C2N        9.9480    3.8800   20.9040 C.3   401  NAP401      0.1244
     38  C3N       10.6500    4.9250   20.3510 C.2   401  NAP401      0.0544
     39  C7N       11.8970    4.6330   19.6050 C.2   401  NAP401      0.2818
     40  O7N       12.6920    5.6790   19.3150 O.2   401  NAP401     -0.2670
     41  N7N       12.2030    3.4140   19.2160 N.am  401  NAP401     -0.0839
     42  C4N       10.1460    6.2240   20.4270 C.2   401  NAP401      0.0033
     43  C5N        8.9030    6.4250   21.0250 C.2   401  NAP401      0.0157
     44  C6N        8.2040    5.3500   21.5600 C.2   401  NAP401      0.0633
     45  P2B       -1.5120    6.4370   30.2730 P.3   401  NAP401      0.5328
     46  O1X       -0.1320    5.8780   30.4240 O.3   401  NAP401     -0.1145
     47  O2X       -1.8700    7.3280   31.4050 O.3   401  NAP401     -0.1145
     48  O3X       -2.5660    5.3650   29.9700 O.2   401  NAP401     -0.2224
@<TRIPOS>BOND
     1    41    39   am
     2    40    39    2
     3    39    38    1
     4    38    42    2
     5    38    37    1
     6    42    43    1
     7    37    36    1
     8    43    44    2
     9     2     1    2
    10    36    44    1
    11    36    35    1
    12    30    35    1
    13    30    29    1
    14    35    33    1
    15    27    28    1
    16    27    24    1
    17    28    29    1
    18    26    24    2
    19     1    23    1
    20     1     3    1
    21     1     4    1
    22    29    31    1
    23    23    24    1
    24    24    25    1
    25     4     5    1
    26    33    31    1
    27    33    34    1
    28    31    32    1
    29     5     6    1
    30     7     6    1
    31     7    12    1
    32    18    17    1
    33     6     8    1
    34    19    17    2
    35    19    20    1
    36    17    16    1
    37    20    21    1
    38    16    15    2
    39    16    22    1
    40    21    22    2
    41    15    14    1
    42    22    13    1
    43    14    13    1
    44    13    12    1
    45    12    10    1
    46     8     9    1
    47     8    10    1
    48    10    11    1
    49    11    45    1
    50    48    45    2
    51    45    46    1
    52    45    47    1
