@<TRIPOS>MOLECULE
3h7w_018_A_1.pdb
 20 21 0 0 0
SMALL
GASTEIGER

@<TRIPOS>ATOM
      1  OAR        9.9760  -40.1910   13.2370 O.2     1  0181       -0.1261
      2  NAQ       10.9180  -40.7820   12.7090 N.pl3   1  0181        0.0589
      3  OAP       11.9010  -41.1090   13.5970 O.2     1  0181       -0.1261
      4  CAI       11.0630  -41.0930   11.3590 C.ar    1  0181        0.1575
      5  CAH       10.0740  -40.7470   10.4230 C.ar    1  0181        0.0293
      6  CAD       10.2050  -41.0320    9.0600 C.ar    1  0181        0.0732
      7  CAC        9.1230  -40.6320    8.0840 C.3     1  0181        0.4186
      8  FAA        8.0470  -40.2970    8.7520 F       1  0181       -0.1659
      9  FAG        9.4890  -39.6000    7.3430 F       1  0181       -0.1659
     10  FAB        8.8280  -41.6380    7.2850 F       1  0181       -0.1659
     11  CAJ       12.2160  -41.7600   10.8810 C.ar    1  0181        0.0881
     12  CAF       12.3400  -42.0440    9.5140 C.ar    1  0181        0.0177
     13  CAE       11.3370  -41.6920    8.6080 C.ar    1  0181        0.0053
     14  NAK       13.2270  -42.1390   11.7340 N.pl3   1  0181       -0.2311
     15  CAL       14.4190  -42.8900   11.3040 C.3     1  0181        0.1391
     16  CAM       15.5430  -42.0120   10.8580 C.ar    1  0181        0.0063
     17  CAN       16.7720  -42.4790   10.3920 C.ar    1  0181        0.0329
     18  SAO       17.6320  -41.0150   10.0420 S.2     1  0181       -0.0862
     19  CAT       16.4750  -39.8550   10.5050 C.ar    1  0181        0.0352
     20  CAS       15.4050  -40.6200   10.9100 C.ar    1  0181        0.0049
@<TRIPOS>BOND
     1    10     7    1
     2     9     7    1
     3     7     8    1
     4     7     6    1
     5    13     6   ar
     6    13    12   ar
     7     6     5   ar
     8    12    11   ar
     9    18    17   ar
    10    18    19   ar
    11    17    16   ar
    12     5     4   ar
    13    19    20   ar
    14    16    20   ar
    15    16    15    1
    16    11     4   ar
    17    11    14    1
    18    15    14    1
    19     4     2    1
    20     2     1    2
    21     2     3    2
