@<TRIPOS>MOLECULE
3h7y_PPY_A_1.pdb
 12 12 0 0 0
SMALL
GASTEIGER

@<TRIPOS>ATOM
      1  C1         6.0100    9.0080   88.7370 C.2   246  PPY246      0.4222
      2  O1         5.0170    8.9640   87.9790 O.co2 246  PPY246     -0.2373
      3  O2         5.9520    8.6810   89.9470 O.co2 246  PPY246     -0.2373
      4  C2         7.2930    9.4610   88.2140 C.2   246  PPY246      0.2564
      5  O3         7.4390    9.6780   87.0190 O.2   246  PPY246     -0.2839
      6  C3         8.3900    9.6350   89.2330 C.3   246  PPY246      0.1025
      7  C1'        9.6410   10.3500   88.7740 C.ar  246  PPY246     -0.0142
      8  C2'       10.5120   10.8420   89.7500 C.ar  246  PPY246     -0.0038
      9  C3'       11.6820   11.5010   89.3810 C.ar  246  PPY246     -0.0003
     10  C4'       11.9820   11.6610   88.0310 C.ar  246  PPY246     -0.0000
     11  C5'       11.1170   11.1620   87.0630 C.ar  246  PPY246     -0.0003
     12  C6'        9.9440   10.5100   87.4280 C.ar  246  PPY246     -0.0038
@<TRIPOS>BOND
     1     5     4    2
     2    11    12   ar
     3    11    10   ar
     4    12     7   ar
     5     2     1   ar
     6    10     9   ar
     7     4     1    1
     8     4     6    1
     9     1     3   ar
    10     7     6    1
    11     7     8   ar
    12     9     8   ar
