@<TRIPOS>MOLECULE
3h80_ANP_A_1.pdb
 31 33 0 0 0
SMALL
GASTEIGER

@<TRIPOS>ATOM
      1  PG        27.9610   10.9350   18.6970 P.3   223  ANP223      0.4884
      2  O1G       28.3250   12.2700   18.0870 O.3   223  ANP223     -0.1240
      3  O2G       26.9080   10.2860   17.8340 O.2   223  ANP223     -0.2331
      4  O3G       29.1860   10.0810   18.9560 O.3   223  ANP223     -0.1240
      5  PB        25.6110   10.9910   20.5400 P.3   223  ANP223      0.4669
      6  O1B       25.4130   11.3580   21.9870 O.3   223  ANP223     -0.1253
      7  O2B       25.1990    9.5870   20.0620 O.2   223  ANP223     -0.2351
      8  N3B       27.3210   11.1850   20.2770 N.3   223  ANP223     -0.0163
      9  PA        23.7910   11.9670   18.5030 P.3   223  ANP223      0.2220
     10  O1A       23.9270   10.7290   17.6700 O.2   223  ANP223     -0.5170
     11  O2A       23.7000   13.2790   17.8100 O.3   223  ANP223     -0.4370
     12  O3A       24.8640   12.1140   19.6830 O.3   223  ANP223     -0.2360
     13  O5'       22.4910   11.7510   19.4240 O.3   223  ANP223     -0.3111
     14  C5'       21.9610   12.8570   20.1700 C.3   223  ANP223      0.1813
     15  C4'       21.3430   12.3310   21.4750 C.3   223  ANP223      0.1821
     16  O4'       20.0530   11.8590   21.1030 O.3   223  ANP223     -0.3135
     17  C3'       22.0160   11.0890   22.0800 C.3   223  ANP223      0.2184
     18  O3'       22.9960   11.3730   23.0800 O.3   223  ANP223     -0.2174
     19  C2'       20.8790   10.3300   22.7040 C.3   223  ANP223      0.2570
     20  O2'       20.6070   10.8780   24.0050 O.3   223  ANP223     -0.2130
     21  C1'       19.6930   10.7010   21.8410 C.3   223  ANP223      0.3186
     22  N9        19.3680    9.5980   20.8980 N.pl3 223  ANP223     -0.1439
     23  C8        19.6210    9.5500   19.5760 C.3   223  ANP223      0.3377
     24  N7        19.1350    8.3910   19.0350 N.2   223  ANP223     -0.2095
     25  C5        18.5610    7.6780   20.0300 C.2   223  ANP223      0.2526
     26  C6        17.8650    6.3610   20.1650 C.2   223  ANP223      0.4393
     27  N6        17.7130    5.5680   19.0870 N.pl3 223  ANP223      0.2180
     28  N1        17.3950    6.0140   21.3980 N.2   223  ANP223      0.0021
     29  C2        17.5540    6.8120   22.4750 C.3   223  ANP223      0.5254
     30  N3        18.1860    8.0050   22.4210 N.2   223  ANP223     -0.0055
     31  C4        18.7000    8.4790   21.2570 C.2   223  ANP223      0.3518
@<TRIPOS>BOND
     1    10     9    2
     2    11     9    1
     3     3     1    2
     4     2     1    1
     5     9    13    1
     6     9    12    1
     7     1     4    1
     8     1     8    1
     9    24    23    1
    10    24    25    2
    11    27    26    1
    12    13    14    1
    13    23    22    1
    14    12     5    1
    15    25    26    1
    16    25    31    1
    17     7     5    2
    18    26    28    2
    19    14    15    1
    20     8     5    1
    21     5     6    1
    22    22    31    1
    23    22    21    1
    24    16    15    1
    25    16    21    1
    26    31    30    2
    27    28    29    1
    28    15    17    1
    29    21    19    1
    30    17    19    1
    31    17    18    1
    32    30    29    1
    33    19    20    1
