@<TRIPOS>MOLECULE
3h82_020_A_1.pdb
 20 21 0 0 0
SMALL
GASTEIGER

@<TRIPOS>ATOM
      1  FAB       11.6970  -11.7950    8.9460 F     351  020351     -0.1659
      2  CAC       10.5650  -11.2180    9.2030 C.3   351  020351      0.4186
      3  FAG        9.6580  -12.0340    9.7660 F     351  020351     -0.1659
      4  FAA       10.9280  -10.3000   10.0900 F     351  020351     -0.1659
      5  CAD        9.8960  -10.5320    8.0310 C.ar  351  020351      0.0732
      6  CAE       10.6690   -9.7430    7.2090 C.ar  351  020351      0.0053
      7  CAF       10.1010   -9.0730    6.1170 C.ar  351  020351      0.0177
      8  CAH        8.5260  -10.6760    7.7560 C.ar  351  020351      0.0293
      9  CAI        7.9170   -9.9990    6.6830 C.ar  351  020351      0.1575
     10  NAQ        6.5630  -10.2120    6.4780 N.pl3 351  020351      0.0589
     11  OAR        5.7850  -10.9880    7.2980 O.2   351  020351     -0.1261
     12  OAP        5.8990   -9.6510    5.4470 O.2   351  020351     -0.1261
     13  CAJ        8.7110   -9.1570    5.8880 C.ar  351  020351      0.0882
     14  NAK        8.1390   -8.5120    4.8470 N.pl3 351  020351     -0.2278
     15  CAL        8.8580   -7.5310    4.0320 C.3   351  020351      0.1762
     16  CAM        9.5980   -8.0670    2.8770 C.ar  351  020351      0.1448
     17  CAS        9.0110   -8.9580    2.0010 C.ar  351  020351      0.0380
     18  OAN       10.8940   -7.7330    2.4940 O.2   351  020351     -0.4529
     19  CAO       11.0990   -8.5920    1.2980 C.ar  351  020351      0.1792
     20  CAT        9.9280   -9.2550    1.0250 C.ar  351  020351      0.0435
@<TRIPOS>BOND
     1    20    19   ar
     2    20    17   ar
     3    19    18   ar
     4    17    16   ar
     5    18    16   ar
     6    16    15    1
     7    15    14    1
     8    14    13    1
     9    12    10    2
    10    13     7   ar
    11    13     9   ar
    12     7     6   ar
    13    10     9    1
    14    10    11    2
    15     9     8   ar
    16     6     5   ar
    17     8     5   ar
    18     5     2    1
    19     1     2    1
    20     2     3    1
    21     2     4    1
