@<TRIPOS>MOLECULE
3h8g_BES_A_1.pdb
 22 22 0 0 0
SMALL
GASTEIGER

@<TRIPOS>ATOM
      1  N2       -28.8900  -19.8600   27.7870 N.3   505  BES505     -0.1293
      2  C1       -28.6980  -21.0790   26.9710 C.3   505  BES505      0.1355
      3  C6       -30.0000  -21.5340   26.3290 C.3   505  BES505      0.0485
      4  C7       -30.4460  -20.7560   25.0990 C.ar  505  BES505     -0.0206
      5  C8       -29.7530  -20.8070   23.8920 C.ar  505  BES505     -0.0042
      6  C12      -31.6170  -20.0070   25.2520 C.ar  505  BES505     -0.0042
      7  C9       -30.2740  -20.0690   22.8080 C.ar  505  BES505     -0.0003
      8  C11      -32.1340  -19.2930   24.1830 C.ar  505  BES505     -0.0003
      9  C10      -31.4610  -19.3620   22.9810 C.ar  505  BES505     -0.0000
     10  C2       -28.1570  -22.2240   27.8420 C.3   505  BES505      0.2467
     11  O2       -27.1730  -21.7370   28.7890 O.3   505  BES505     -0.2116
     12  C3       -27.4500  -23.1780   26.9410 C.2   505  BES505      0.2738
     13  O3       -26.3980  -22.8140   26.3810 O.2   505  BES505     -0.2705
     14  N1       -28.0120  -24.3900   26.8560 N.am  505  BES505     -0.1934
     15  C4       -27.3970  -25.3880   26.0050 C.3   505  BES505      0.1978
     16  C13      -27.4100  -26.6620   26.8620 C.3   505  BES505      0.0333
     17  C14      -26.5080  -27.7650   26.3270 C.3   505  BES505      0.0023
     18  C15      -25.0360  -27.3480   26.2560 C.3   505  BES505      0.0001
     19  C16      -26.6970  -29.0280   27.1530 C.3   505  BES505      0.0001
     20  C5       -28.2640  -25.5090   24.7900 C.2   505  BES505      0.3842
     21  O1       -29.4940  -25.5980   24.9640 O.co2 505  BES505     -0.2437
     22  O4       -27.7480  -25.5020   23.6410 O.co2 505  BES505     -0.2437
@<TRIPOS>BOND
     1     7     9   ar
     2     7     5   ar
     3     9     8   ar
     4    22    20   ar
     5     5     4   ar
     6     8     6   ar
     7    20    21   ar
     8    20    15    1
     9     4     6   ar
    10     4     3    1
    11    15    14    1
    12    15    16    1
    13    18    17    1
    14    17    16    1
    15    17    19    1
    16     3     2    1
    17    13    12    2
    18    14    12   am
    19    12    10    1
    20     2     1    1
    21     2    10    1
    22    10    11    1
