@<TRIPOS>MOLECULE
3h8t_HEM_A_1.pdb
 43 50 0 0 0
SMALL
GASTEIGER

@<TRIPOS>ATOM
      1  CHA       -1.1950   39.2030   17.9420 C.2   301  HEM301      0.0000
      2  CHB       -1.7520   43.5110   15.8200 C.2   301  HEM301      0.0000
      3  CHC       -0.3110   41.6810   11.5760 C.2   301  HEM301      0.0000
      4  CHD       -0.4610   37.2490   13.5230 C.2   301  HEM301      0.0000
      5  C1A       -1.4690   40.5320   17.7410 C.2   301  HEM301      0.0000
      6  C2A       -1.8530   41.4830   18.7660 C.2   301  HEM301      0.0000
      7  C3A       -2.0150   42.6790   18.1650 C.2   301  HEM301      0.0000
      8  C4A       -1.7210   42.5110   16.7570 C.2   301  HEM301      0.0000
      9  CMA       -2.4430   44.0260   18.8110 C.3   301  HEM301      0.0000
     10  CAA       -2.0910   41.1120   20.2580 C.3   301  HEM301      0.0000
     11  CBA       -3.5010   40.4750   20.3190 C.3   301  HEM301      0.0000
     12  CGA       -3.7890   39.8230   21.6750 C.2   301  HEM301      0.0000
     13  O1A       -2.9280   39.0360   22.1350 O.co2 301  HEM301      0.0000
     14  O2A       -4.8580   40.0660   22.3090 O.co2 301  HEM301      0.0000
     15  C1B       -1.3920   43.3770   14.5060 C.ar  301  HEM301      0.0000
     16  C2B       -1.3240   44.4700   13.5750 C.ar  301  HEM301      0.0000
     17  C3B       -0.9230   43.9730   12.3900 C.ar  301  HEM301      0.0000
     18  C4B       -0.7350   42.5550   12.5580 C.ar  301  HEM301      0.0000
     19  CMB       -1.6690   45.9220   13.9450 C.3   301  HEM301      0.0000
     20  CAB       -0.6950   44.7120   11.0510 C.2   301  HEM301      0.0000
     21  CBB       -1.4090   45.7810   10.6810 C.2   301  HEM301      0.0000
     22  C1C       -0.2710   40.3150   11.7020 C.2   301  HEM301      0.0000
     23  C2C       -0.0840   39.3450   10.6320 C.2   301  HEM301      0.0000
     24  C3C       -0.1300   38.1200   11.1880 C.2   301  HEM301      0.0000
     25  C4C       -0.3520   38.2780   12.6070 C.2   301  HEM301      0.0000
     26  CMC        0.1640   39.7120    9.1540 C.3   301  HEM301      0.0000
     27  CAC        0.0350   36.7460   10.5030 C.2   301  HEM301      0.0000
     28  CBC        1.1640   36.4330    9.8690 C.2   301  HEM301      0.0000
     29  C1D       -0.6370   37.3600   14.8880 C.ar  301  HEM301      0.0000
     30  C2D       -0.6710   36.2440   15.7980 C.ar  301  HEM301      0.0000
     31  C3D       -0.9140   36.8440   17.1620 C.ar  301  HEM301      0.0000
     32  C4D       -0.9820   38.2740   16.9530 C.ar  301  HEM301      0.0000
     33  CMD       -0.5110   34.7500   15.4660 C.3   301  HEM301      0.0000
     34  CAD       -1.0120   36.1020   18.4970 C.3   301  HEM301      0.0000
     35  CBD        0.4250   36.0180   18.9930 C.3   301  HEM301      0.0000
     36  CGD        0.4570   35.1860   20.2430 C.2   301  HEM301      0.0000
     37  O1D        0.7800   33.9780   20.1590 O.co2 301  HEM301      0.0000
     38  O2D        0.1320   35.7220   21.3240 O.co2 301  HEM301      0.0000
     39  NA        -1.3860   41.1930   16.5320 N.2   301  HEM301      0.0000
     40  NB        -1.0230   42.2230   13.8650 N.ar  301  HEM301      0.0000
     41  NC        -0.4480   39.6270   12.8890 N.2   301  HEM301      0.0000
     42  ND        -0.8250   38.5320   15.6080 N.ar  301  HEM301      0.0000
     43 FE         -0.9230   40.3870   14.7240 Fe    301  HEM301      0.0000
@<TRIPOS>BOND
     1    26    23    1
     2    28    27    2
     3    27    24    1
     4    23    24    2
     5    23    22    1
     6    21    20    2
     7    20    17    1
     8    24    25    1
     9     3    22    2
    10     3    18    1
    11    22    41    1
    12    17    18   ar
    13    17    16   ar
    14    18    40   ar
    15    25    41    2
    16    25     4    1
    17    41    43    1
    18     4    29    2
    19    16    19    1
    20    16    15   ar
    21    40    15   ar
    22    40    43    1
    23    15     2    1
    24    43    42    1
    25    43    39    1
    26    29    42   ar
    27    29    30   ar
    28    33    30    1
    29    42    32   ar
    30    30    31   ar
    31     2     8    2
    32    39     8    1
    33    39     5    2
    34     8     7    1
    35    32    31   ar
    36    32     1    2
    37    31    34    1
    38     5     1    1
    39     5     6    1
    40     7     6    2
    41     7     9    1
    42    34    35    1
    43     6    10    1
    44    35    36    1
    45    37    36   ar
    46    36    38   ar
    47    10    11    1
    48    11    12    1
    49    12    13   ar
    50    12    14   ar
