@<TRIPOS>MOLECULE
3h8v_ATP_A_1.pdb
 31 33 0 0 0
SMALL
GASTEIGER

@<TRIPOS>ATOM
      1  PG        47.5040  -25.8320   21.2130 P.3   402  ATP402      0.5373
      2  O1G       47.6970  -26.4070   19.8300 O.2   402  ATP402     -0.2221
      3  O2G       48.4440  -26.4040   22.2490 O.3   402  ATP402     -0.1143
      4  O3G       46.0700  -25.7380   21.6780 O.3   402  ATP402     -0.1143
      5  PB        47.1920  -23.2030   20.1810 P.3   402  ATP402      0.2277
      6  O1B       48.0740  -21.9800   20.1460 O.3   402  ATP402     -0.4368
      7  O2B       46.7780  -23.8320   18.8740 O.2   402  ATP402     -0.5168
      8  O3B       47.9710  -24.2950   21.0780 O.3   402  ATP402     -0.2258
      9  PA        44.7730  -21.7890   20.5070 P.3   402  ATP402      0.2189
     10  O1A       45.4620  -20.8990   19.4980 O.2   402  ATP402     -0.5170
     11  O2A       44.0770  -21.1650   21.6980 O.3   402  ATP402     -0.4371
     12  O3A       45.8600  -22.8630   21.0310 O.3   402  ATP402     -0.2700
     13  O5'       43.6830  -22.6950   19.7450 O.3   402  ATP402     -0.3112
     14  C5'       42.9030  -22.1820   18.6660 C.3   402  ATP402      0.1813
     15  C4'       42.4170  -23.3350   17.7940 C.3   402  ATP402      0.1821
     16  O4'       41.7490  -22.8620   16.6160 O.3   402  ATP402     -0.3135
     17  C3'       43.5550  -24.2240   17.3080 C.3   402  ATP402      0.2184
     18  O3'       43.2760  -25.5590   17.7480 O.3   402  ATP402     -0.2174
     19  C2'       43.5130  -24.1080   15.7930 C.3   402  ATP402      0.2570
     20  O2'       43.9050  -25.3060   15.1130 O.3   402  ATP402     -0.2130
     21  C1'       42.0500  -23.7690   15.5550 C.3   402  ATP402      0.3186
     22  N9        41.7900  -23.2080   14.2050 N.pl3 402  ATP402     -0.1439
     23  C8        42.4210  -22.1480   13.6710 C.3   402  ATP402      0.3377
     24  N7        41.9580  -21.8810   12.4300 N.2   402  ATP402     -0.2095
     25  C5        41.0070  -22.7870   12.1460 C.2   402  ATP402      0.2526
     26  C6        40.1220  -23.0690   10.9920 C.2   402  ATP402      0.4393
     27  N6        40.1990  -22.2840    9.8910 N.pl3 402  ATP402      0.2180
     28  N1        39.2530  -24.1120   11.0810 N.2   402  ATP402      0.0021
     29  C2        39.1920  -24.8830   12.1860 C.3   402  ATP402      0.5254
     30  N3        39.9740  -24.6780   13.2710 N.2   402  ATP402     -0.0055
     31  C4        40.8900  -23.6650   13.3180 C.2   402  ATP402      0.3518
@<TRIPOS>BOND
     1    27    26    1
     2    26    28    2
     3    26    25    1
     4    28    29    1
     5    25    24    2
     6    25    31    1
     7    29    30    1
     8    24    23    1
     9    30    31    2
    10    31    22    1
    11    23    22    1
    12    22    21    1
    13    20    19    1
    14    21    19    1
    15    21    16    1
    16    19    17    1
    17    16    15    1
    18    17    18    1
    19    17    15    1
    20    15    14    1
    21    14    13    1
    22     7     5    2
    23    10     9    2
    24    13     9    1
    25     2     1    2
    26     6     5    1
    27     5    12    1
    28     5     8    1
    29     9    12    1
    30     9    11    1
    31     8     1    1
    32     1     4    1
    33     1     3    1
