@<TRIPOS>MOLECULE
3h98_B5P_A_1.pdb
 33 36 0 0 0
SMALL
GASTEIGER

@<TRIPOS>ATOM
      1  C1         4.9820   -8.8960   -9.6940 C.3   571  B5P571      0.0001
      2  C2         6.4900   -9.1390   -9.6140 C.3   571  B5P571      0.0017
      3  C3         6.7380   -9.4220   -8.1300 C.3   571  B5P571      0.0001
      4  C4         6.9480  -10.2690  -10.5070 C.3   571  B5P571      0.0220
      5  C5         8.4510  -10.4250  -10.5270 C.3   571  B5P571      0.1011
      6  C6         8.9780   -8.9450  -12.4630 C.2   571  B5P571      0.2554
      7  C7         9.5850   -7.6880  -12.9660 C.3   571  B5P571      0.2536
      8  N1         9.1090   -9.2310  -11.0890 N.am  571  B5P571     -0.2283
      9  N2        10.5130   -7.3420  -10.7180 N.ar  571  B5P571     -0.2462
     10  O1         8.3030   -9.6340  -13.2290 O.2   571  B5P571     -0.2728
     11  C8        10.4530   -6.9730  -12.0070 C.2   571  B5P571      0.2671
     12  O2        11.0670   -5.8580  -12.3880 O.2   571  B5P571     -0.2698
     13  N3        10.1030   -8.6130   -9.0250 N.ar  571  B5P571     -0.2113
     14  C9        11.1530   -6.8040   -9.6720 C.ar  571  B5P571      0.1060
     15  C10       10.8990   -7.6130   -8.6050 C.ar  571  B5P571      0.1209
     16  C11        9.8800   -8.4320  -10.3230 C.ar  571  B5P571      0.2132
     17  C12        9.6620   -7.4930  -14.3900 C.1   571  B5P571      0.0997
     18  C13       10.1940   -7.6570  -17.2470 C.2   571  B5P571      0.1576
     19  C14        9.4050   -8.6440  -16.5240 C.2   571  B5P571      0.1434
     20  C15        8.7950   -9.6570  -17.2480 C.3   571  B5P571      0.0887
     21  O6         9.8280   -8.7350  -23.0420 O.2   571  B5P571     -0.1528
     22  S2        10.2940   -8.1480  -21.8190 S.O2  571  B5P571      0.0750
     23  O5         9.7500   -6.9130  -21.4460 O.2   571  B5P571     -0.1528
     24  C18       11.9790   -8.0910  -21.9570 C.3   571  B5P571      0.2016
     25  N6         9.8640   -9.1420  -20.6380 N.pl3 571  B5P571     -0.1009
     26  C17        9.7430   -8.8850  -19.3090 C.2   571  B5P571      0.0882
     27  C19       10.3610   -7.8050  -18.6370 C.2   571  B5P571      0.0405
     28  S1        10.7800   -6.3990  -16.3890 S.O2  571  B5P571      0.1109
     29  O4         9.9780   -5.2130  -16.7360 O.2   571  B5P571     -0.1456
     30  O3        12.1460   -6.2550  -16.7680 O.2   571  B5P571     -0.1456
     31  N4        10.5410   -6.5750  -14.8100 N.2   571  B5P571     -0.0651
     32  C16        8.9440   -9.7880  -18.6050 C.2   571  B5P571     -0.0005
     33  N5         9.1870   -8.4840  -15.1920 N.2   571  B5P571     -0.3551
@<TRIPOS>BOND
     1    21    22    2
     2    24    22    1
     3    22    23    2
     4    22    25    1
     5    25    26    1
     6    26    27    1
     7    26    32    2
     8    27    18    2
     9    32    20    1
    10    20    19    1
    11    18    19    1
    12    18    28    1
    13    30    28    2
    14    29    28    2
    15    19    33    2
    16    28    31    1
    17    33    17    2
    18    31    17    2
    19    17     7    1
    20    10     6    2
    21     7     6    1
    22     7    11    1
    23     6     8   am
    24    12    11    2
    25    11     9   am
    26     8     5    1
    27     8    16    1
    28     9    16   ar
    29     9    14   ar
    30     5     4    1
    31     4     2    1
    32    16    13   ar
    33     1     2    1
    34    14    15   ar
    35     2     3    1
    36    13    15   ar
