@<TRIPOS>MOLECULE
3h9a_PPY_A_1.pdb
 12 12 0 0 0
SMALL
GASTEIGER

@<TRIPOS>ATOM
      1  C1       -14.8810  -12.2140   -7.8550 C.2   246  PPY246      0.4222
      2  O1       -14.6000  -12.1770   -6.6300 O.co2 246  PPY246     -0.2373
      3  O2       -15.8030  -12.9330   -8.3300 O.co2 246  PPY246     -0.2373
      4  C2       -14.0880  -11.3750   -8.7510 C.2   246  PPY246      0.2564
      5  O3       -14.2840  -11.4010   -9.9580 O.2   246  PPY246     -0.2839
      6  C3       -13.0370  -10.4870   -8.1280 C.3   246  PPY246      0.1025
      7  C1'      -12.3510   -9.5480   -9.0950 C.ar  246  PPY246     -0.0142
      8  C2'      -12.4300   -9.7330  -10.4670 C.ar  246  PPY246     -0.0038
      9  C3'      -11.7920   -8.8530  -11.3340 C.ar  246  PPY246     -0.0003
     10  C4'      -11.0580   -7.7850  -10.8290 C.ar  246  PPY246     -0.0000
     11  C5'      -10.9720   -7.5970   -9.4530 C.ar  246  PPY246     -0.0003
     12  C6'      -11.6170   -8.4780   -8.5870 C.ar  246  PPY246     -0.0038
@<TRIPOS>BOND
     1     9    10   ar
     2     9     8   ar
     3    10    11   ar
     4     8     7   ar
     5     5     4    2
     6    11    12   ar
     7     7    12   ar
     8     7     6    1
     9     4     6    1
    10     4     1    1
    11     3     1   ar
    12     1     2   ar
