@<TRIPOS>MOLECULE
3h9b_NOT_A_1.pdb
 12 11 0 0 0
SMALL
GASTEIGER

@<TRIPOS>ATOM
      1  N         14.6370    0.1310   19.2460 N.3   602  NOT602     -0.1208
      2  CA        14.2640    1.5350   19.5170 C.3   602  NOT602      0.1943
      3  C         15.1990    2.2100   20.5300 C.2   602  NOT602      0.3819
      4  O         15.8510    1.5000   21.3000 O.co2 602  NOT602     -0.2441
      5  CB        12.7980    1.5690   19.9880 C.3   602  NOT602      0.0307
      6  CG        11.7720    1.2030   18.9060 C.3   602  NOT602      0.0042
      7  C1        10.3630    1.6550   19.2820 C.3   602  NOT602      0.0295
      8  C2         9.2560    1.0980   18.3740 C.3   602  NOT602      0.1644
      9  OXT       15.2820    3.4390   20.5550 O.co2 602  NOT602     -0.2441
     10  N1         7.9550    1.6630   18.7540 N.2   602  NOT602     -0.0975
     11  N2         7.6080    1.9070   19.9020 N.2   602  NOT602     -0.1664
     12  N3         7.2870    2.1380   20.9710 N.2   602  NOT602      0.0678
@<TRIPOS>BOND
     1     8    10    1
     2     8     7    1
     3    10    11    2
     4     6     7    1
     5     6     5    1
     6     1     2    1
     7     2     5    1
     8     2     3    1
     9    11    12    2
    10     3     9   ar
    11     3     4   ar
