@<TRIPOS>MOLECULE
3h9e_NAD_O_1.pdb
 44 48 0 0 0
SMALL
GASTEIGER

@<TRIPOS>ATOM
      1  PA       -30.6310   50.9190   39.1000 P.3     2  NAD2        0.2189
      2  O1A      -29.3120   51.3980   38.5810 O.3     2  NAD2       -0.4371
      3  O2A      -31.2990   49.7110   38.4720 O.2     2  NAD2       -0.5170
      4  O5B      -31.8080   51.9600   39.0450 O.3     2  NAD2       -0.3112
      5  C5B      -31.5130   53.3710   39.2640 C.3     2  NAD2        0.1813
      6  C4B      -32.3910   54.1350   38.2470 C.3     2  NAD2        0.1821
      7  O4B      -32.2950   55.5790   38.6290 O.3     2  NAD2       -0.3135
      8  C3B      -31.9930   54.0300   36.7470 C.3     2  NAD2        0.2184
      9  O3B      -33.1830   53.6780   35.9810 O.3     2  NAD2       -0.2174
     10  C2B      -31.4430   55.4450   36.4500 C.3     2  NAD2        0.2570
     11  O2B      -31.6670   55.8830   35.1130 O.3     2  NAD2       -0.2130
     12  C1B      -32.2310   56.3160   37.3970 C.3     2  NAD2        0.3186
     13  N9A      -31.4660   57.5810   37.7710 N.pl3   2  NAD2       -0.1439
     14  C8A      -30.1370   57.7830   37.9020 C.3     2  NAD2        0.3377
     15  N7A      -29.8970   59.0720   38.2840 N.2     2  NAD2       -0.2095
     16  C5A      -31.0910   59.6430   38.3910 C.2     2  NAD2        0.2526
     17  C6A      -31.4710   60.9320   38.7410 C.2     2  NAD2        0.4393
     18  N6A      -30.5320   61.8290   39.0510 N.pl3   2  NAD2        0.2180
     19  N1A      -32.7750   61.2000   38.7820 N.2     2  NAD2        0.0021
     20  C2A      -33.7010   60.3190   38.4660 C.3     2  NAD2        0.5254
     21  N3A      -33.3830   59.0610   38.1140 N.2     2  NAD2       -0.0055
     22  C4A      -32.0790   58.7280   38.0750 C.2     2  NAD2        0.3518
     23  O3       -30.4110   50.6300   40.6220 O.3     2  NAD2       -0.2703
     24  PN       -31.3770   49.7480   41.6320 P.3     2  NAD2        0.2189
     25  O1N      -30.7210   48.4040   41.8630 O.3     2  NAD2       -0.4371
     26  O2N      -32.8130   49.8590   41.2100 O.2     2  NAD2       -0.5170
     27  O5D      -31.1250   50.4840   43.0020 O.3     2  NAD2       -0.3112
     28  C5D      -31.8320   51.6790   43.2880 C.3     2  NAD2        0.1813
     29  C4D      -31.7080   51.9420   44.8070 C.3     2  NAD2        0.1799
     30  O4D      -32.3200   50.8290   45.5020 O.3     2  NAD2       -0.3327
     31  C3D      -30.2830   52.0500   45.3510 C.3     2  NAD2        0.2158
     32  O3D      -30.2860   52.9500   46.4760 O.3     2  NAD2       -0.2175
     33  C2D      -30.0260   50.6290   45.8170 C.3     2  NAD2        0.2309
     34  O2D      -29.0550   50.5710   46.8920 O.3     2  NAD2       -0.2158
     35  C1D      -31.3710   50.3040   46.4110 C.3     2  NAD2        0.2263
     36  N1N      -31.6960   48.8510   46.4650 N.pl3   2  NAD2       -0.2787
     37  C2N      -31.3160   47.9360   45.4740 C.3     2  NAD2        0.1244
     38  C3N      -31.6980   46.5990   45.6180 C.2     2  NAD2        0.0544
     39  C7N      -31.3070   45.5320   44.5900 C.2     2  NAD2        0.2818
     40  O7N      -31.1680   44.3810   44.9820 O.2     2  NAD2       -0.2670
     41  N7N      -31.1280   45.9080   43.3290 N.am    2  NAD2       -0.0839
     42  C4N      -32.4110   46.1550   46.7350 C.2     2  NAD2        0.0033
     43  C5N      -32.7850   47.0640   47.7380 C.2     2  NAD2        0.0157
     44  C6N      -32.4560   48.3960   47.5730 C.2     2  NAD2        0.0633
@<TRIPOS>BOND
     1    11    10    1
     2     9     8    1
     3    10     8    1
     4    10    12    1
     5     8     6    1
     6    12    13    1
     7    12     7    1
     8    13    14    1
     9    13    22    1
    10    14    15    1
    11    22    21    2
    12    22    16    1
    13    21    20    1
    14     6     7    1
    15     6     5    1
    16    15    16    2
    17    16    17    1
    18    20    19    1
    19     3     1    2
    20     2     1    1
    21    17    19    2
    22    17    18    1
    23     4     1    1
    24     4     5    1
    25     1    23    1
    26    23    24    1
    27    26    24    2
    28    24    25    1
    29    24    27    1
    30    27    28    1
    31    28    29    1
    32    41    39   am
    33    39    40    2
    34    39    38    1
    35    29    31    1
    36    29    30    1
    37    31    33    1
    38    31    32    1
    39    37    38    1
    40    37    36    1
    41    30    35    1
    42    38    42    2
    43    33    35    1
    44    33    34    1
    45    35    36    1
    46    36    44    1
    47    42    43    1
    48    44    43    2
