@<TRIPOS>MOLECULE
3h9f_92M_A_1.pdb
 34 38 0 0 0
SMALL
GASTEIGER

@<TRIPOS>ATOM
      1  C4         1.6090   20.6110   45.9040 C.2   809  92M809      0.2114
      2  C5         1.8790   21.9360   45.6240 C.2   809  92M809      0.1193
      3  C6         1.2690   22.9260   46.3810 C.2   809  92M809      0.1306
      4  N1         0.4480   22.5690   47.3450 N.2   809  92M809     -0.1669
      5  N3         0.7640   20.3120   46.8930 N.2   809  92M809     -0.3194
      6  CAT       -1.4920   15.7290   52.2680 C.3   809  92M809      0.0934
      7  CAU       -0.9510   14.3240   52.5500 C.3   809  92M809      0.0543
      8  CAV       -1.9180   13.2920   51.9240 C.3   809  92M809      0.1554
      9  OAW       -1.4230   11.9460   52.0620 O.3   809  92M809     -0.2230
     10  CAX       -2.1450   13.6240   50.4300 C.3   809  92M809      0.0543
     11  CAY       -1.2330   14.7570   49.9320 C.3   809  92M809      0.0934
     12  NAS       -1.2910   15.9400   50.8220 N.pl3 809  92M809     -0.3072
     13  CAR       -1.1280   17.2140   50.2810 C.ar  809  92M809      0.0510
     14  CAZ       -0.9550   18.3300   51.1020 C.ar  809  92M809      0.0528
     15  CBA       -0.7650   19.5860   50.5150 C.ar  809  92M809      0.1559
     16  OBB       -0.5740   20.6930   51.2570 O.3   809  92M809     -0.4700
     17  CBC       -0.6490   20.4830   52.6490 C.3   809  92M809      0.2525
     18  CAQ       -1.1220   17.3800   48.8970 C.ar  809  92M809      0.0161
     19  CAP       -0.9540   18.6400   48.3170 C.ar  809  92M809      0.0217
     20  CAO       -0.7570   19.7480   49.1280 C.ar  809  92M809      0.1165
     21  NAN       -0.6220   20.9750   48.6210 N.pl3 809  92M809     -0.1326
     22  C2         0.1970   21.2740   47.6160 C.1   809  92M809      0.1710
     23  NBG        2.6780   22.4160   44.6830 N.am  809  92M809     -0.2523
     24  CBH        3.4690   23.6240   44.9780 C.3   809  92M809      0.1202
     25  CAB        2.8320   21.8590   43.4870 C.2   809  92M809      0.2312
     26  OAA        3.6150   22.3740   42.6770 O.2   809  92M809     -0.2745
     27  CAC        2.0740   20.6290   43.1080 C.3   809  92M809      0.1070
     28  CAD        2.6030   19.4570   43.9370 C.3   809  92M809      0.1027
     29  NAE        2.0550   19.5140   45.2920 N.pl3 809  92M809     -0.2829
     30  CAF        1.8300   18.1950   45.9350 C.3   809  92M809      0.0751
     31  CAG        3.0620   17.2880   45.8280 C.3   809  92M809      0.0198
     32  CAH        2.5320   15.8760   45.7360 C.3   809  92M809      0.0018
     33  CAI        1.1410   15.9930   45.1520 C.3   809  92M809      0.0018
     34  CAJ        0.7850   17.4870   45.1300 C.3   809  92M809      0.0198
@<TRIPOS>BOND
     1    26    25    2
     2    27    25    1
     3    27    28    1
     4    25    23   am
     5    28    29    1
     6    23    24    1
     7    23     2    1
     8    34    33    1
     9    34    30    1
    10    33    32    1
    11    29     1    1
    12    29    30    1
    13     2     1    1
    14     2     3    2
    15    32    31    1
    16    31    30    1
    17     1     5    2
    18     3     4    1
    19     5    22    2
    20     4    22    2
    21    22    21    1
    22    19    18   ar
    23    19    20   ar
    24    21    20    1
    25    18    13   ar
    26    20    15   ar
    27    11    10    1
    28    11    12    1
    29    13    12    1
    30    13    14   ar
    31    10     8    1
    32    15    14   ar
    33    15    16    1
    34    12     6    1
    35    16    17    1
    36     8     9    1
    37     8     7    1
    38     6     7    1
