@<TRIPOS>MOLECULE
3h9g_III_G_1.pdb
 19 18 0 0 0
SMALL
GASTEIGER

@<TRIPOS>ATOM
      1  N         16.8800   20.6510   31.3290 N.3     1  MET1       -0.1230
      2  CA        18.2130   20.5700   30.6600 C.3     1  MET1        0.1702
      3  C         18.5340   21.7860   29.7950 C.2     1  MET1        0.2592
      4  O         19.6100   21.8580   29.2050 O.2     1  MET1       -0.2718
      5  CB        18.2750   19.3400   29.7690 C.3     1  MET1        0.0401
      6  CG        18.5230   18.0460   30.4750 C.3     1  MET1        0.0596
      7  SD        18.8600   16.7920   29.2220 S.3     1  MET1       -0.1393
      8  CE        20.6090   17.0760   28.9460 C.3     1  MET1        0.0692
      9  N         17.5980   22.7250   29.6920 N.am    2  ARG2       -0.1980
     10  CA        17.8030   23.9040   28.8600 C.3     2  ARG2        0.1597
     11  C         18.1770   25.1180   29.6980 C.2     2  ARG2        0.2287
     12  O         19.2030   25.7500   29.4510 O.2     2  ARG2       -0.2864
     13  CB        16.5640   24.1930   28.0130 C.3     2  ARG2        0.0334
     14  CG        16.3910   23.2650   26.8100 C.3     2  ARG2        0.0492
     15  CD        15.1330   23.6080   26.0120 C.3     2  ARG2        0.2205
     16  NE        13.9200   23.4310   26.8100 N.pl3   2  ARG2       -0.0865
     17  CZ        12.6790   23.4650   26.3300 C.cat   2  ARG2        0.5346
     18  NH1       12.4570   23.6660   25.0370 N.pl3   2  ARG2        0.1354
     19  NH2       11.6560   23.2880   27.1560 N.pl3   2  ARG2        0.1354
@<TRIPOS>BOND
     1    18    17    1
     2    15    16    1
     3    15    14    1
     4    17    16    2
     5    17    19    1
     6    14    13    1
     7    13    10    1
     8    10     9    1
     9    10    11    1
    10     8     7    1
    11     4     3    2
    12     7     6    1
    13    12    11    2
    14     9     3   am
    15     5     6    1
    16     5     2    1
    17     3     2    1
    18     2     1    1
