@<TRIPOS>MOLECULE
3h9j_APC_A_1.pdb
 31 33 0 0 0
SMALL
GASTEIGER

@<TRIPOS>ATOM
      1  PG         0.8340  -14.2100    7.4840 P.3   359  APC359      0.5389
      2  O1G       -0.2120  -13.2400    7.0140 O.2   359  APC359     -0.2220
      3  O2G        0.6930  -14.6700    8.9240 O.3   359  APC359     -0.1143
      4  O3G        2.2350  -13.8330    7.0510 O.3   359  APC359     -0.1143
      5  PB         1.4020  -16.8820    6.7450 P.3   359  APC359      0.3895
      6  O1B        1.4000  -17.3620    8.1820 O.3   359  APC359     -0.1388
      7  O2B        2.7320  -16.5230    6.1120 O.2   359  APC359     -0.2544
      8  O3B        0.5050  -15.5460    6.6510 O.3   359  APC359     -0.2026
      9  PA        -0.9380  -17.5310    4.9630 P.3   359  APC359      0.3820
     10  O1A       -1.5880  -18.6860    4.2440 O.3   359  APC359     -0.1392
     11  O2A       -0.6130  -16.3190    4.1160 O.2   359  APC359     -0.2548
     12  C3A        0.5980  -18.1520    5.7190 C.3   359  APC359      0.2357
     13  O5'       -1.9440  -17.0880    6.1520 O.3   359  APC359     -0.2896
     14  C5'       -2.2520  -15.7220    6.4780 C.3   359  APC359      0.1836
     15  C4'       -3.1510  -15.6380    7.7080 C.3   359  APC359      0.1822
     16  O4'       -4.3790  -16.2990    7.4000 O.3   359  APC359     -0.3135
     17  C3'       -2.5800  -16.3160    8.9510 C.3   359  APC359      0.2184
     18  O3'       -2.8610  -15.5420   10.1280 O.3   359  APC359     -0.2174
     19  C2'       -3.2940  -17.6560    9.0370 C.3   359  APC359      0.2570
     20  O2'       -3.5930  -18.0520   10.3780 O.3   359  APC359     -0.2130
     21  C1'       -4.5840  -17.4130    8.2740 C.3   359  APC359      0.3186
     22  N9        -4.9870  -18.5970    7.4830 N.pl3 359  APC359     -0.1439
     23  C8        -4.2860  -19.2380    6.5320 C.3   359  APC359      0.3377
     24  N7        -5.0420  -20.2520    6.0590 N.2   359  APC359     -0.2095
     25  C5        -6.2210  -20.2360    6.7290 C.2   359  APC359      0.2526
     26  C6        -7.3830  -21.0050    6.6970 C.2   359  APC359      0.4393
     27  N6        -7.4990  -22.0500    5.8470 N.pl3 359  APC359      0.2180
     28  N1        -8.4140  -20.6970    7.5240 N.2   359  APC359      0.0021
     29  C2        -8.3420  -19.6650    8.3790 C.3   359  APC359      0.5254
     30  N3        -7.2370  -18.9100    8.4350 N.2   359  APC359     -0.0055
     31  C4        -6.1740  -19.1810    7.6250 C.2   359  APC359      0.3518
@<TRIPOS>BOND
     1    11     9    2
     2    10     9    1
     3     9    12    1
     4     9    13    1
     5    12     5    1
     6    27    26    1
     7    24    23    1
     8    24    25    2
     9     7     5    2
    10    13    14    1
    11    14    15    1
    12    23    22    1
    13     8     5    1
    14     8     1    1
    15    26    25    1
    16    26    28    2
    17    25    31    1
    18     5     6    1
    19     2     1    2
    20     4     1    1
    21    16    15    1
    22    16    21    1
    23    22    31    1
    24    22    21    1
    25     1     3    1
    26    28    29    1
    27    31    30    2
    28    15    17    1
    29    21    19    1
    30    29    30    1
    31    17    19    1
    32    17    18    1
    33    19    20    1
