@<TRIPOS>MOLECULE
3h9k_UFP_A_1.pdb
 21 22 0 0 0
SMALL
GASTEIGER

@<TRIPOS>ATOM
      1  N1        25.5530  -11.0030  100.8590 N.am  400  UFP400     -0.1768
      2  C2        25.8870  -10.2550   99.7360 C.1   400  UFP400      0.2846
      3  N3        26.0310  -10.8670   98.5310 N.2   400  UFP400     -0.2430
      4  C4        25.8710  -12.2220   98.3970 C.1   400  UFP400      0.2454
      5  C5        25.5320  -13.0150   99.5520 C.2   400  UFP400      0.2499
      6  C6        25.3870  -12.3820  100.7530 C.2   400  UFP400      0.1221
      7  O2        26.0350   -9.0490   99.8090 O.2   400  UFP400     -0.1918
      8  O4        26.0020  -12.7640   97.3140 O.2   400  UFP400     -0.2062
      9  F5        25.3640  -14.3600   99.4490 F     400  UFP400     -0.1891
     10  C1'       25.3700  -10.4020  102.2150 C.3   400  UFP400      0.2091
     11  C2'       26.5210   -9.4900  102.7100 C.3   400  UFP400      0.0874
     12  C3'       25.7860   -8.5990  103.7660 C.3   400  UFP400      0.1857
     13  C4'       24.3480   -9.1630  103.7160 C.3   400  UFP400      0.1774
     14  O3'       26.3540   -8.7920  105.0690 O.3   400  UFP400     -0.2203
     15  O4'       24.2170   -9.5530  102.3280 O.3   400  UFP400     -0.3339
     16  C5'       23.2980   -8.1250  104.1540 C.3   400  UFP400      0.1858
     17  O5'       21.9730   -8.6850  104.1030 O.3   400  UFP400     -0.2675
     18  P         20.8820   -7.6280  104.6130 P.3   400  UFP400      0.5327
     19  O1P       20.9090   -6.3140  103.7180 O.2   400  UFP400     -0.2224
     20  O2P       19.4260   -8.2660  104.5270 O.3   400  UFP400     -0.1145
     21  O3P       21.1950   -7.2340  106.1180 O.3   400  UFP400     -0.1145
@<TRIPOS>BOND
     1     8     4    2
     2     4     3    2
     3     4     5    1
     4     3     2    2
     5     9     5    1
     6     5     6    2
     7     2     7    2
     8     2     1   am
     9     6     1    1
    10     1    10    1
    11    10    15    1
    12    10    11    1
    13    15    13    1
    14    11    12    1
    15    13    12    1
    16    13    16    1
    17    19    18    2
    18    12    14    1
    19    17    16    1
    20    17    18    1
    21    20    18    1
    22    18    21    1
