@<TRIPOS>MOLECULE
3h9o_9BD_A_1.pdb
 27 30 0 0 0
SMALL
GASTEIGER

@<TRIPOS>ATOM
      1  C1        31.6330  -15.9740   14.0900 C.3     1  9BD1        0.1743
      2  C2        33.5210  -15.2110   15.2980 C.3     1  9BD1        0.1894
      3  C6        38.6680  -14.3400   12.8970 C.2     1  9BD1        0.0700
      4  C9        37.6550  -16.8490   13.6830 C.2     1  9BD1        0.1689
      5  C12       41.7150  -16.3660   12.0150 C.2     1  9BD1        0.0475
      6  C15       41.2050  -14.0150   11.8510 C.2     1  9BD1        0.0630
      7  C18       45.0600  -19.0150   11.0650 C.ar    1  9BD1        0.1197
      8  O1        32.3800  -14.8360   14.5230 O.3     1  9BD1       -0.3471
      9  C3        34.7700  -14.7500   14.5570 C.3     1  9BD1        0.2374
     10  O2        35.6130  -15.8720   14.3260 O.2     1  9BD1       -0.4697
     11  C4        36.8660  -15.6930   13.8100 C.2     1  9BD1        0.1732
     12  C5        37.3930  -14.4630   13.4170 C.2     1  9BD1        0.0554
     13  C7        39.4790  -15.4800   12.7610 C.3     1  9BD1        0.0879
     14  C8        38.9400  -16.7260   13.1580 C.2     1  9BD1        0.0239
     15  O3        37.1060  -18.0420   14.0760 O.2     1  9BD1       -0.4687
     16  C10       37.3970  -19.2030   13.3050 C.3     1  9BD1        0.2526
     17  C11       40.7950  -15.3120   12.2150 C.2     1  9BD1       -0.0033
     18  C13       42.9720  -16.0900   11.4790 C.2     1  9BD1        0.2017
     19  N1        43.3520  -14.8350   11.1330 N.2     1  9BD1       -0.3659
     20  C14       42.4880  -13.8210   11.3210 C.2     1  9BD1        0.2222
     21  C16       40.3030  -12.9720   12.0490 C.2     1  9BD1        0.1021
     22  N2        39.0640  -13.1110   12.5520 N.2     1  9BD1       -0.2473
     23  N3        42.9460  -12.5770   10.9330 N.pl3   1  9BD1       -0.0931
     24  N4        43.9350  -17.1260   11.2890 N.ar    1  9BD1       -0.2614
     25  C17       43.7950  -18.5030   11.2970 C.ar    1  9BD1        0.1045
     26  N5        45.9840  -18.0150   10.9160 N.ar    1  9BD1       -0.2220
     27  C19       45.2850  -16.9030   11.0560 C.ar    1  9BD1        0.1848
@<TRIPOS>BOND
     1    26    27   ar
     2    26     7   ar
     3    23    20    1
     4    27    24   ar
     5     7    25   ar
     6    19    20    2
     7    19    18    2
     8    24    25   ar
     9    24    18    1
    10    20     6    1
    11    18     5    1
    12     6    21    2
    13     6    17    1
    14     5    17    2
    15    21    22    1
    16    17    13    1
    17    22     3    2
    18    13     3    1
    19    13    14    1
    20     3    12    1
    21    14     4    2
    22    16    15    1
    23    12    11    2
    24     4    11    1
    25     4    15    1
    26    11    10    1
    27     1     8    1
    28    10     9    1
    29     8     2    1
    30     9     2    1
