@<TRIPOS>MOLECULE
3h9q_III_E_1.pdb
 36 35 0 0 0
SMALL
GASTEIGER

@<TRIPOS>ATOM
      1  N          4.4380  -13.0940   -9.8190 N.3     1  MET1        0.0000
      2  CA         3.1290  -12.5590  -10.2690 C.3     1  MET1        0.0000
      3  C          2.2650  -13.5890  -10.9870 C.2     1  MET1        0.0000
      4  O          1.2130  -13.2610  -11.5470 O.2     1  MET1        0.0000
      5  CB         3.3680  -11.3800  -11.1800 C.3     1  MET1        0.0000
      6  CG         2.9720  -10.0830  -10.5620 C.3     1  MET1        0.0000
      7 SE          1.5850   -9.3960  -11.7760 Se      1  MET1        0.0000
      8  CE        -0.1890   -9.6720  -10.8340 C.3     1  MET1        0.0000
      9  N          2.7200  -14.8350  -10.9780 N.am    2  ARG2        0.0000
     10  CA         1.9820  -15.9200  -11.6140 C.3     2  ARG2        0.0000
     11  C          1.6700  -17.0320  -10.6140 C.2     2  ARG2        0.0000
     12  O          1.7020  -18.2140  -10.9620 O.2     2  ARG2        0.0000
     13  CB         2.7760  -16.4960  -12.7920 C.3     2  ARG2        0.0000
     14  CG         2.5180  -15.8100  -14.1300 C.3     2  ARG2        0.0000
     15  CD         3.7860  -15.1970  -14.6810 C.3     2  ARG2        0.0000
     16  NE         4.0040  -15.5500  -16.0790 N.pl3   2  ARG2        0.3300
     17  CZ         5.0830  -15.2010  -16.7700 C.cat   2  ARG2        0.0000
     18  NH1        6.0360  -14.4860  -16.1890 N.pl3   2  ARG2        0.3300
     19  NH2        5.2110  -15.5700  -18.0390 N.pl3   2  ARG2        0.3300
     20  N          1.3580  -16.6480   -9.3770 N.am    3  THR3        0.0000
     21  CA         1.0500  -17.6140   -8.3270 C.3     3  THR3        0.0000
     22  C          0.2320  -16.9810   -7.2020 C.2     3  THR3        0.0000
     23  O         -0.3210  -15.8960   -7.3640 O.2     3  THR3        0.0000
     24  CB         2.3420  -18.1970   -7.7720 C.3     3  THR3        0.0000
     25  N          0.1630  -17.6670   -6.0630 N.am    4  GLY4        0.0000
     26  CA        -0.5940  -17.1700   -4.9240 C.3     4  GLY4        0.0000
     27  C         -0.2400  -15.7710   -4.4510 C.2     4  GLY4        0.0000
     28  O          0.8420  -15.2520   -4.7350 O.2     4  GLY4        0.0000
     29  N         -1.1690  -15.1580   -3.7250 N.am    5  ASN5        0.0000
     30  CA        -0.9900  -13.8120   -3.1960 C.3     5  ASN5        0.0000
     31  C         -0.5910  -13.9330   -1.7220 C.2     5  ASN5        0.0000
     32  O         -1.4730  -14.2430   -0.8910 O.2     5  ASN5        0.0000
     33  CB        -2.2990  -13.0180   -3.3240 C.3     5  ASN5        0.0000
     34  CG        -2.8260  -12.9690   -4.7600 C.2     5  ASN5        0.0000
     35  OD1       -2.5680  -13.8660   -5.5620 O.2     5  ASN5        0.0000
     36  ND2       -3.5860  -11.9250   -5.0770 N.am    5  ASN5        0.0000
@<TRIPOS>BOND
     1    19    17    1
     2    17    18    1
     3    17    16    2
     4    16    15    1
     5    15    14    1
     6    14    13    1
     7    13    10    1
     8     7     8    1
     9     7     6    1
    10    10     9    1
    11    10    11    1
    12     4     3    2
    13     5     6    1
    14     5     2    1
    15     3     9   am
    16     3     2    1
    17    12    11    2
    18    11    20   am
    19     2     1    1
    20    20    21    1
    21    21    24    1
    22    21    22    1
    23    23    22    2
    24    22    25   am
    25    25    26    1
    26    35    34    2
    27    36    34   am
    28    26    27    1
    29    34    33    1
    30    28    27    2
    31    27    29   am
    32    29    30    1
    33    33    30    1
    34    30    31    1
    35    31    32    2
