@<TRIPOS>MOLECULE
3h9r_TAK_A_1.pdb
 30 34 0 0 0
SMALL
GASTEIGER

@<TRIPOS>ATOM
      1  C1        17.8080   24.0770  156.4050 C.3     1  TAK1        0.0722
      2  C2        16.3310   23.6900  156.1620 C.3     1  TAK1        0.0174
      3  C3        15.8530   22.5780  157.1260 C.3     1  TAK1        0.0029
      4  C4        16.8400   22.2760  158.2810 C.3     1  TAK1        0.0174
      5  C5        18.3000   22.0940  157.7970 C.3     1  TAK1        0.0722
      6  N1        18.5840   22.8400  156.5550 N.3     1  TAK1       -0.2696
      7  C6        20.0060   23.2840  156.7100 C.3     1  TAK1        0.1200
      8  C7        20.9680   22.0780  156.8930 C.3     1  TAK1        0.2226
      9  O1        20.8200   21.1540  155.7680 O.3     1  TAK1       -0.4740
     10  C8        21.2710   19.8840  156.0620 C.ar    1  TAK1        0.1386
     11  C9        22.1510   19.6210  157.1370 C.ar    1  TAK1        0.0369
     12  C10       22.5660   18.3150  157.4000 C.ar    1  TAK1        0.0030
     13  C11       20.8310   18.8430  155.2540 C.ar    1  TAK1        0.0369
     14  C12       21.2410   17.5430  155.5090 C.ar    1  TAK1        0.0030
     15  C13       22.1390   17.2830  156.5530 C.ar    1  TAK1        0.0039
     16  C14       22.5100   15.9670  156.8000 C.2     1  TAK1        0.0734
     17  C15       23.5600   15.6660  157.6480 C.3     1  TAK1        0.2621
     18  C16       21.7560   14.9550  156.2350 C.2     1  TAK1        0.2351
     19  N2        22.0140   13.6680  156.4660 N.2     1  TAK1       -0.0380
     20  C17       23.0450   13.3280  157.2760 C.2     1  TAK1        0.3334
     21  N3        23.8430   14.3300  157.8750 N.pl3   1  TAK1       -0.0747
     22  N4        24.7000   13.8000  158.5760 N.2     1  TAK1       -0.0898
     23  C18       24.5740   12.4740  158.5160 C.2     1  TAK1        0.1324
     24  C19       23.5580   12.1460  157.7150 C.3     1  TAK1        0.1750
     25  C20       23.0970   10.8460  157.4070 C.ar    1  TAK1       -0.0021
     26  C21       22.9450    9.8980  158.4310 C.ar    1  TAK1        0.0174
     27  C22       22.5070    8.6320  158.1220 C.ar    1  TAK1        0.0986
     28  N5        22.2490    8.2930  156.8530 N.ar    1  TAK1       -0.2423
     29  C23       22.3890    9.1450  155.8540 C.ar    1  TAK1        0.0986
     30  C24       22.8080   10.4290  156.1110 C.ar    1  TAK1        0.0174
@<TRIPOS>BOND
     1    13    14   ar
     2    13    10   ar
     3    14    15   ar
     4     9    10    1
     5     9     8    1
     6    29    30   ar
     7    29    28   ar
     8    10    11   ar
     9    30    25   ar
    10     2     1    1
    11     2     3    1
    12    18    19    1
    13    18    16    2
    14     1     6    1
    15    19    20    2
    16    15    16    1
    17    15    12   ar
    18     6     7    1
    19     6     5    1
    20     7     8    1
    21    16    17    1
    22    28    27   ar
    23     3     4    1
    24    11    12   ar
    25    20    24    1
    26    20    21    1
    27    25    24    1
    28    25    26   ar
    29    17    21    1
    30    24    23    1
    31     5     4    1
    32    21    22    1
    33    27    26   ar
    34    23    22    2
