@<TRIPOS>MOLECULE
3h9u_ADN_A_1.pdb
 10 11 0 0 0
SMALL
GASTEIGER

@<TRIPOS>ATOM
      1  N9       -30.4820   19.7600  173.5250 N.2   439  ADN439     -0.1914
      2  C8       -30.4720   19.2890  174.7770 C.3   439  ADN439      0.2618
      3  N7       -29.5800   19.9470  175.5300 N.2   439  ADN439     -0.2267
      4  C5       -29.0070   20.8500  174.7520 C.2   439  ADN439      0.2303
      5  C6       -28.0160   21.8020  174.9640 C.2   439  ADN439      0.4393
      6  N6       -27.4400   21.9380  176.1690 N.pl3 439  ADN439      0.2185
      7  N1       -27.6430   22.5820  173.9260 N.2   439  ADN439     -0.0265
      8  C2       -28.2070   22.4540  172.7390 C.3   439  ADN439      0.4008
      9  N3       -29.1480   21.5440  172.5040 N.2   439  ADN439     -0.1640
     10  C4       -29.5730   20.7320  173.4860 C.1   439  ADN439      0.0579
@<TRIPOS>BOND
     1     9     8    1
     2     9    10    2
     3     8     7    1
     4    10     1    2
     5    10     4    1
     6     1     2    1
     7     7     5    2
     8     4     5    1
     9     4     3    2
    10     2     3    1
    11     5     6    1
