@<TRIPOS>MOLECULE
3h9u_NAD_A_1.pdb
 44 48 0 0 0
SMALL
GASTEIGER

@<TRIPOS>ATOM
      1  PA       -38.9050    8.4540  169.1000 P.3   438  NAD438      0.2189
      2  O1A      -39.6560    8.3100  167.8250 O.2   438  NAD438     -0.5170
      3  O2A      -37.8670    7.4120  169.2820 O.3   438  NAD438     -0.4371
      4  O5B      -39.9700    8.2320  170.3260 O.3   438  NAD438     -0.3112
      5  C5B      -41.2810    8.7640  170.3860 C.3   438  NAD438      0.1813
      6  C4B      -42.2050    7.6480  170.8480 C.3   438  NAD438      0.1821
      7  O4B      -43.4960    8.1570  171.1050 O.3   438  NAD438     -0.3135
      8  C3B      -42.3390    6.5260  169.8290 C.3   438  NAD438      0.2184
      9  O3B      -41.8380    5.2970  170.2960 O.3   438  NAD438     -0.2174
     10  C2B      -43.8260    6.4360  169.5330 C.3   438  NAD438      0.2570
     11  O2B      -44.2640    5.1040  169.2990 O.3   438  NAD438     -0.2130
     12  C1B      -44.4210    7.1510  170.7280 C.3   438  NAD438      0.3186
     13  N9A      -45.7210    7.7730  170.4790 N.pl3 438  NAD438     -0.1439
     14  C8A      -46.1360    8.4770  169.3630 C.3   438  NAD438      0.3377
     15  N7A      -47.4000    8.8920  169.5790 N.2   438  NAD438     -0.2095
     16  C5A      -47.7940    8.4660  170.8150 C.2   438  NAD438      0.2526
     17  C6A      -48.9900    8.6150  171.5290 C.2   438  NAD438      0.4393
     18  N6A      -49.9510    9.4280  171.0620 N.pl3 438  NAD438      0.2180
     19  N1A      -49.0750    8.0650  172.8180 N.2   438  NAD438      0.0021
     20  C2A      -47.9980    7.3620  173.3490 C.3   438  NAD438      0.5254
     21  N3A      -46.8190    7.2280  172.6470 N.2   438  NAD438     -0.0055
     22  C4A      -46.7330    7.7700  171.3950 C.2   438  NAD438      0.3518
     23  O3       -38.4460    9.9610  169.3150 O.3   438  NAD438     -0.2703
     24  PN       -37.3240   10.4050  170.3840 P.3   438  NAD438      0.2189
     25  O1N      -35.9550   10.3150  169.7960 O.2   438  NAD438     -0.5170
     26  O2N      -37.7040    9.6720  171.6320 O.3   438  NAD438     -0.4371
     27  O5D      -37.6750   11.9400  170.4760 O.3   438  NAD438     -0.3112
     28  C5D      -38.8920   12.3110  171.0750 C.3   438  NAD438      0.1813
     29  C4D      -39.0360   13.8130  170.9890 C.3   438  NAD438      0.1799
     30  O4D      -38.0410   14.4710  171.7420 O.3   438  NAD438     -0.3327
     31  C3D      -38.8780   14.3230  169.5610 C.3   438  NAD438      0.2158
     32  O3D      -39.8030   15.3870  169.3810 O.3   438  NAD438     -0.2175
     33  C2D      -37.4420   14.8260  169.4890 C.3   438  NAD438      0.2309
     34  O2D      -37.2670   15.8090  168.4860 O.3   438  NAD438     -0.2158
     35  C1D      -37.2890   15.3580  170.9180 C.3   438  NAD438      0.2263
     36  N1N      -35.9440   15.4280  171.5300 N.pl3 438  NAD438     -0.2787
     37  C2N      -35.8010   16.3300  172.5490 C.3   438  NAD438      0.1244
     38  C3N      -34.5850   16.4570  173.2180 C.2   438  NAD438      0.0544
     39  C7N      -34.4490   17.5060  174.2720 C.2   438  NAD438      0.2818
     40  O7N      -33.1940   17.9990  174.6320 O.2   438  NAD438     -0.2670
     41  N7N      -35.5220   18.0010  174.8630 N.am  438  NAD438     -0.0839
     42  C4N      -33.5210   15.6460  172.8640 C.2   438  NAD438      0.0033
     43  C5N      -33.6720   14.7300  171.8290 C.2   438  NAD438      0.0157
     44  C6N      -34.9000   14.6080  171.1730 C.2   438  NAD438      0.0633
@<TRIPOS>BOND
     1     2     1    2
     2    34    33    1
     3     1     3    1
     4     1    23    1
     5     1     4    1
     6    11    10    1
     7    23    24    1
     8    14    15    1
     9    14    13    1
    10    32    31    1
    11    33    31    1
    12    33    35    1
    13    10     8    1
    14    10    12    1
    15    31    29    1
    16    15    16    2
    17    25    24    2
    18     8     9    1
    19     8     6    1
    20     4     5    1
    21    24    27    1
    22    24    26    1
    23     5     6    1
    24    27    28    1
    25    13    12    1
    26    13    22    1
    27    12     7    1
    28    16    22    1
    29    16    17    1
    30     6     7    1
    31    35    36    1
    32    35    30    1
    33    29    28    1
    34    29    30    1
    35    18    17    1
    36    44    36    1
    37    44    43    2
    38    22    21    2
    39    17    19    2
    40    36    37    1
    41    43    42    1
    42    37    38    1
    43    21    20    1
    44    19    20    1
    45    42    38    2
    46    38    39    1
    47    39    40    2
    48    39    41   am
