@<TRIPOS>MOLECULE
3h9y_BMA_A_1.pdb
 11 11 0 0 0
SMALL
GASTEIGER

@<TRIPOS>ATOM
      1  C1         8.8340   41.8550   68.6090 C.3     3  BMA3        0.1777
      2  C2         9.6590   41.8530   69.8910 C.3     3  BMA3        0.2141
      3  C3        10.7110   42.9530   69.8790 C.3     3  BMA3        0.2173
      4  C4        11.5640   42.8160   68.6240 C.3     3  BMA3        0.2142
      5  C5        10.6740   42.7720   67.3860 C.3     3  BMA3        0.1810
      6  C6        11.5030   42.5590   66.1190 C.3     3  BMA3        0.2141
      7  O2        10.2960   40.6010   70.0260 O.3     3  BMA3       -0.2176
      8  O3        11.5440   42.7990   71.0070 O.3     3  BMA3       -0.2175
      9  O4        12.4880   43.8820   68.5440 O.3     3  BMA3       -0.2176
     10  O5         9.6950   41.7550   67.4970 O.3     3  BMA3       -0.3481
     11  O6        12.6590   41.7810   66.3690 O.3     3  BMA3       -0.2176
@<TRIPOS>BOND
     1     6    11    1
     2     6     5    1
     3     5    10    1
     4     5     4    1
     5    10     1    1
     6     9     4    1
     7     1     2    1
     8     4     3    1
     9     3     2    1
    10     3     8    1
    11     2     7    1
