@<TRIPOS>MOLECULE
3h9z_BMA_D_1.pdb
 11 11 0 0 0
SMALL
GASTEIGER

@<TRIPOS>ATOM
      1  C1        90.8600  -34.6920   10.3070 C.3     3  BMA3        0.1777
      2  C2        90.9290  -34.6650    8.7810 C.3     3  BMA3        0.2141
      3  C3        91.7870  -35.8080    8.2550 C.3     3  BMA3        0.2173
      4  C4        93.1410  -35.6860    8.9250 C.3     3  BMA3        0.2142
      5  C5        93.0100  -35.6000   10.4380 C.3     3  BMA3        0.1810
      6  C6        94.4010  -35.5050   11.0480 C.3     3  BMA3        0.2141
      7  O2        91.4810  -33.4450    8.3380 O.3     3  BMA3       -0.2176
      8  O3        92.0250  -35.6380    6.8740 O.3     3  BMA3       -0.2175
      9  O4        93.9170  -36.8100    8.5840 O.3     3  BMA3       -0.2176
     10  O5        92.1620  -34.5460   10.8370 O.3     3  BMA3       -0.3481
     11  O6        94.6610  -34.1990   11.5090 O.3     3  BMA3       -0.2176
@<TRIPOS>BOND
     1     8     3    1
     2     3     2    1
     3     3     4    1
     4     7     2    1
     5     9     4    1
     6     2     1    1
     7     4     5    1
     8     1    10    1
     9     5    10    1
    10     5     6    1
    11     6    11    1
