@<TRIPOS>MOLECULE
3ha3_SAH_A_1.pdb
 26 28 0 0 0
SMALL
GASTEIGER

@<TRIPOS>ATOM
      1  N         25.2660    7.6520   21.5130 N.3   302  SAH302     -0.1208
      2  CA        25.1990    9.1580   21.5480 C.3   302  SAH302      0.1952
      3  CB        26.5370    9.7920   21.1380 C.3   302  SAH302      0.0422
      4  CG        26.8340    9.9260   19.6250 C.3   302  SAH302      0.0597
      5  SD        28.3700   10.7960   19.2660 S.3   302  SAH302     -0.1375
      6  C         24.0610    9.7580   20.6910 C.2   302  SAH302      0.3819
      7  O         23.3960    9.1100   19.8780 O.co2 302  SAH302     -0.2441
      8  OXT       23.8060   10.9720   20.7520 O.co2 302  SAH302     -0.2441
      9  C5'       29.5630    9.4130   19.3030 C.3   302  SAH302      0.0899
     10  C4'       30.1120    9.0990   20.6770 C.3   302  SAH302      0.1630
     11  O4'       31.0690    8.0880   20.4620 O.3   302  SAH302     -0.3153
     12  C3'       30.8840   10.2240   21.3850 C.3   302  SAH302      0.2168
     13  O3'       30.6140   10.0750   22.7540 O.3   302  SAH302     -0.2175
     14  C2'       32.3630    9.8780   21.1640 C.3   302  SAH302      0.2569
     15  O2'       33.2780   10.3280   22.1500 O.3   302  SAH302     -0.2130
     16  C1'       32.2270    8.3710   21.2490 C.3   302  SAH302      0.3185
     17  N9        33.4220    7.6120   20.8160 N.pl3 302  SAH302     -0.1439
     18  C8        34.2500    7.8120   19.7320 C.3   302  SAH302      0.3377
     19  N7        35.1950    6.8480   19.7450 N.2   302  SAH302     -0.2095
     20  C5        34.9660    6.0620   20.8330 C.2   302  SAH302      0.2526
     21  C6        35.6380    4.9460   21.3200 C.2   302  SAH302      0.4393
     22  N6        36.7210    4.4850   20.6550 N.pl3 302  SAH302      0.2180
     23  N1        35.1390    4.3400   22.4580 N.2   302  SAH302      0.0021
     24  C2        34.0160    4.8290   23.1400 C.3   302  SAH302      0.5254
     25  N3        33.3820    5.9580   22.6610 N.2   302  SAH302     -0.0055
     26  C4        33.8570    6.5320   21.5220 C.2   302  SAH302      0.3518
@<TRIPOS>BOND
     1     5     9    1
     2     5     4    1
     3     9    10    1
     4     4     3    1
     5    18    19    1
     6    18    17    1
     7    19    20    2
     8     7     6   ar
     9    11    10    1
    10    11    16    1
    11    22    21    1
    12    10    12    1
    13     6     8   ar
    14     6     2    1
    15    17    16    1
    16    17    26    1
    17    20    21    1
    18    20    26    1
    19     3     2    1
    20    14    16    1
    21    14    12    1
    22    14    15    1
    23    21    23    2
    24    12    13    1
    25     1     2    1
    26    26    25    2
    27    23    24    1
    28    25    24    1
