@<TRIPOS>MOLECULE
3ha5_SFG_A_1.pdb
 27 29 0 0 0
SMALL
GASTEIGER

@<TRIPOS>ATOM
      1  N         24.4420   -6.7220   12.4410 N.3   302  SFG302     -0.1208
      2  CA        24.4500   -8.2020   12.5200 C.3   302  SFG302      0.1944
      3  C         23.2400   -8.8010   13.2260 C.2   302  SFG302      0.3819
      4  O         22.4720   -8.1400   13.9450 O.co2 302  SFG302     -0.2441
      5  OXT       22.9760  -10.0050   13.0350 O.co2 302  SFG302     -0.2441
      6  CB        25.7750   -8.8060   13.0290 C.3   302  SFG302      0.0321
      7  CG        26.0750   -8.5140   14.4900 C.3   302  SFG302      0.0212
      8  CD        27.2920   -9.3050   14.9750 C.3   302  SFG302      0.0944
      9  NE        27.2000   -9.3730   16.4220 N.3   302  SFG302     -0.1328
     10  C5'       28.6960   -8.7140   14.7810 C.3   302  SFG302      0.0514
     11  C4'       29.1530   -8.4450   13.3520 C.3   302  SFG302      0.1537
     12  O4'       30.1200   -7.3770   13.4520 O.3   302  SFG302     -0.3161
     13  C3'       29.8230   -9.5750   12.5520 C.3   302  SFG302      0.2159
     14  O3'       29.4220   -9.3710   11.1450 O.3   302  SFG302     -0.2175
     15  C2'       31.3140   -9.2310   12.6940 C.3   302  SFG302      0.2569
     16  O2'       32.0750   -9.6440   11.5410 O.3   302  SFG302     -0.2130
     17  C1'       31.2360   -7.6980   12.6540 C.3   302  SFG302      0.3185
     18  N9        32.4300   -6.9490   13.0920 N.pl3 302  SFG302     -0.1439
     19  C8        33.1900   -7.1600   14.1770 C.3   302  SFG302      0.3377
     20  N7        34.1760   -6.2440   14.2070 N.2   302  SFG302     -0.2095
     21  C5        34.0730   -5.4290   13.1200 C.2   302  SFG302      0.2526
     22  C6        34.7900   -4.2490   12.5410 C.2   302  SFG302      0.4393
     23  N6        35.8790   -3.7080   13.1050 N.pl3 302  SFG302      0.2180
     24  N1        34.3130   -3.7100   11.4120 N.2   302  SFG302      0.0021
     25  C2        33.2350   -4.2170   10.7810 C.3   302  SFG302      0.5254
     26  N3        32.5430   -5.2870   11.2500 N.2   302  SFG302     -0.0055
     27  C4        32.9120   -5.9190   12.3860 C.2   302  SFG302      0.3518
@<TRIPOS>BOND
     1    25    26    1
     2    25    24    1
     3    14    13    1
     4    26    27    2
     5    24    22    2
     6    16    15    1
     7    27    18    1
     8    27    21    1
     9     1     2    1
    10     2     6    1
    11     2     3    1
    12    22    23    1
    13    22    21    1
    14    13    15    1
    15    13    11    1
    16    17    15    1
    17    17    18    1
    18    17    12    1
    19     6     7    1
    20     5     3   ar
    21    18    19    1
    22    21    20    2
    23     3     4   ar
    24    11    12    1
    25    11    10    1
    26    19    20    1
    27     7     8    1
    28    10     8    1
    29     8     9    1
