@<TRIPOS>MOLECULE
3ha6_2JZ_A_1.pdb
 38 42 0 0 0
SMALL
GASTEIGER

@<TRIPOS>ATOM
      1  C4       -22.0880   24.0310    5.3940 C.ar    1  2JZ1        0.0023
      2  C5       -34.5320   24.0910    8.6060 C.ar    1  2JZ1        0.0204
      3  C6       -22.5870   21.9740    4.2580 C.ar    1  2JZ1       -0.0020
      4  C7       -23.2610   24.5810    4.9220 C.ar    1  2JZ1        0.0293
      5  C8       -33.3850   23.6450    7.9850 C.ar    1  2JZ1       -0.0008
      6  C10      -29.6200   24.7270    7.5330 C.ar    1  2JZ1        0.0207
      7  C13      -35.7270   23.9440    7.9400 C.ar    1  2JZ1        0.0988
      8  C15      -28.3460   23.6120    9.2140 C.ar    1  2JZ1        0.0574
      9  C17      -25.4910   20.7390    3.7680 C.3     1  2JZ1        0.1310
     10  C20      -28.5990   23.8630    7.8820 C.ar    1  2JZ1        0.0868
     11  C21      -23.7650   22.5180    3.7810 C.ar    1  2JZ1        0.0071
     12  C22      -34.7280   22.9660    6.1390 C.ar    1  2JZ1        0.0778
     13  C24      -24.0910   23.8240    4.1190 C.ar    1  2JZ1        0.1362
     14  C26      -27.7670   21.2340    4.0100 C.1     1  2JZ1        0.2421
     15  C28      -28.2730   22.5170    5.8210 C.1     1  2JZ1        0.2465
     16  C1       -32.0560   26.1950   10.2440 C.3     1  2JZ1        0.2526
     17  C2       -27.8300   23.0280   11.6660 C.3     1  2JZ1        0.2526
     18  C3       -21.7530   22.7280    5.0610 C.ar    1  2JZ1       -0.0002
     19  C9       -33.6430   21.9360    4.2540 C.2     1  2JZ1        0.0175
     20  C11      -34.7770   22.3860    4.8900 C.2     1  2JZ1        0.0200
     21  C12      -30.3930   25.3290    8.5040 C.ar    1  2JZ1        0.0414
     22  C14      -32.3420   22.6250    6.1020 C.3     1  2JZ1        0.0745
     23  C16      -24.6600   21.6960    2.9060 C.3     1  2JZ1        0.0529
     24  C18      -33.4830   23.0750    6.7340 C.ar    1  2JZ1        0.0015
     25  C19      -32.4070   22.0500    4.8510 C.2     1  2JZ1        0.0767
     26  C23      -30.1370   25.0640    9.8340 C.ar    1  2JZ1        0.1725
     27  C25      -29.1130   24.2120   10.1920 C.ar    1  2JZ1        0.1737
     28  C27      -29.9380   21.7140    4.4990 C.1     1  2JZ1        0.2573
     29  N29      -35.8530   23.3940    6.7300 N.ar    1  2JZ1       -0.2441
     30  N30      -29.0600   21.0990    3.6950 N.2     1  2JZ1       -0.2416
     31  N31      -27.3390   21.9360    5.0650 N.2     1  2JZ1       -0.2435
     32  N32      -29.5840   22.4350    5.5740 N.2     1  2JZ1       -0.2413
     33  N33      -26.8200   20.6040    3.1820 N.pl3   1  2JZ1       -0.1502
     34  N34      -31.2890   21.5640    4.1500 N.2     1  2JZ1       -0.1604
     35  N35      -27.7930   23.2390    6.9190 N.pl3   1  2JZ1       -0.1241
     36  O36      -30.8820   25.6480   10.8450 O.3     1  2JZ1       -0.4684
     37  O37      -28.8890   23.9760   11.5420 O.3     1  2JZ1       -0.4683
     38  F38      -25.2310   24.3820    3.6690 F       1  2JZ1       -0.2045
@<TRIPOS>BOND
     1    23     9    1
     2    23    11    1
     3    33     9    1
     4    33    14    1
     5    38    13    1
     6    30    14    2
     7    30    28    2
     8    11    13   ar
     9    11     3   ar
    10    14    31    2
    11    13     4   ar
    12    34    28    1
    13    34    25    2
    14    19    25    1
    15    19    20    2
    16     3    18   ar
    17    28    32    2
    18    25    22    1
    19    20    12    1
    20     4     1   ar
    21    18     1   ar
    22    31    15    2
    23    32    15    2
    24    15    35    1
    25    22    24    1
    26    12    29   ar
    27    12    24   ar
    28    29     7   ar
    29    24     5   ar
    30    35    10    1
    31     6    10   ar
    32     6    21   ar
    33    10     8   ar
    34     7     2   ar
    35     5     2   ar
    36    21    26   ar
    37     8    27   ar
    38    26    27   ar
    39    26    36    1
    40    27    37    1
    41    16    36    1
    42    37    17    1
