@<TRIPOS>MOLECULE
3ha7_B32_A_1.pdb
 32 34 0 0 0
SMALL
GASTEIGER

@<TRIPOS>ATOM
      1  CAR      -30.1390   10.9150    8.0070 C.3   302  B32302      0.0000
      2  CAS      -29.1000    9.9580    8.6200 C.3   302  B32302      0.0000
      3  CAT      -27.8900   10.6940    9.2750 C.3   302  B32302      0.0000
      4  CAU      -27.0830    9.8690   10.2890 C.3   302  B32302      0.0000
      5  CAV      -27.8820    9.6440   11.5770 C.3   302  B32302      0.0000
      6  CAW      -27.2960   10.4000   12.7600 C.3   302  B32302      0.0015
      7  CAX      -27.8540    9.8540   14.0770 C.3   302  B32302      0.0188
      8  CAY      -28.9140   10.7800   14.6760 C.3   302  B32302      0.0887
      9  NAZ      -29.7680   10.0160   15.6020 N.3   302  B32302     -0.2171
     10  CBA      -29.7490   10.7140   16.9000 C.3   302  B32302      0.1003
     11  CBB      -30.1280    9.8170   18.0800 C.3   302  B32302      0.0764
     12  SD       -29.1340   10.3560   19.5250 S.3   302  B32302     -0.1361
     13  C5'      -27.5110    9.4700   19.4100 C.3   302  B32302      0.0899
     14  C4'      -27.1460    8.8350   20.7850 C.3   302  B32302      0.1630
     15  O4'      -26.2280    7.7150   20.6460 O.3   302  B32302     -0.3153
     16  C3'      -26.4730    9.8500   21.7300 C.3   302  B32302      0.2168
     17  O3'      -27.0930    9.7590   23.0300 O.3   302  B32302     -0.2175
     18  C2'      -24.9790    9.4430   21.7410 C.3   302  B32302      0.2569
     19  O2'      -24.3590    9.7630   23.0010 O.3   302  B32302     -0.2130
     20  C1'      -25.1010    7.9140   21.5760 C.3   302  B32302      0.3185
     21  N9       -23.9280    7.0790   21.0850 N.pl3 302  B32302     -0.1439
     22  C8       -23.2150    7.2280   19.9670 C.3   302  B32302      0.3377
     23  N7       -22.2790    6.2720   19.8890 N.2   302  B32302     -0.2095
     24  C5       -22.4150    5.5010   20.9720 C.2   302  B32302      0.2526
     25  C4       -23.4540    6.0170   21.7360 C.2   302  B32302      0.3518
     26  N3       -23.8040    5.4130   22.8970 N.2   302  B32302     -0.0055
     27  C2       -23.1900    4.3240   23.3670 C.3   302  B32302      0.5254
     28  N1       -22.1670    3.8010   22.6800 N.2   302  B32302      0.0021
     29  C6       -21.7710    4.3590   21.4980 C.2   302  B32302      0.4393
     30  N6       -20.7850    3.8390   20.8150 N.pl3 302  B32302      0.2180
     31  CAP      -32.4720   11.2830    9.0070 C.3   302  B32302      0.0000
     32  CAQ      -30.9830   11.6030    9.1000 C.3   302  B32302      0.0000
@<TRIPOS>BOND
     1     1     2    1
     2     1    32    1
     3     2     3    1
     4    31    32    1
     5     3     4    1
     6     4     5    1
     7     5     6    1
     8     6     7    1
     9     7     8    1
    10     8     9    1
    11     9    10    1
    12    10    11    1
    13    11    12    1
    14    13    12    1
    15    13    14    1
    16    23    22    1
    17    23    24    2
    18    22    21    1
    19    15    14    1
    20    15    20    1
    21    14    16    1
    22    30    29    1
    23    24    29    1
    24    24    25    1
    25    21    20    1
    26    21    25    1
    27    29    28    2
    28    20    18    1
    29    16    18    1
    30    16    17    1
    31    25    26    2
    32    18    19    1
    33    28    27    1
    34    26    27    1
