@<TRIPOS>MOLECULE
3ha8_5JZ_A_1.pdb
 49 55 0 0 0
SMALL
GASTEIGER

@<TRIPOS>ATOM
      1  C4        -5.1910    5.9170   23.6950 C.3   361  5JZ361      0.1386
      2  C5         7.3380   11.0240   28.4320 C.ar  361  5JZ361     -0.0002
      3  C6         6.1650   11.1460   27.7170 C.ar  361  5JZ361      0.0013
      4  C7         7.5180   11.7210   29.6040 C.ar  361  5JZ361     -0.0030
      5  C8         5.1620   11.9720   28.1740 C.ar  361  5JZ361      0.0146
      6  C10        2.3670   12.1140   29.5690 C.3   361  5JZ361      0.1222
      7  C13       -4.3660    9.6410   28.8400 C.ar  361  5JZ361     -0.0030
      8  C15       -0.4420    8.8950   28.2880 C.3   361  5JZ361      0.2342
      9  C17        6.6680   13.3140   31.3250 C.3   361  5JZ361      0.0294
     10  C20       -5.6950    9.1440   26.7900 C.3   361  5JZ361      0.0583
     11  C21       -5.2500   10.0700   27.8730 C.ar  361  5JZ361     -0.0200
     12  C22        2.7770   11.1060   30.4220 C.2   361  5JZ361     -0.0114
     13  C24        0.7570   10.7100   28.6370 C.2   361  5JZ361      0.0780
     14  C26       -4.4200   11.7920   29.8540 C.ar  361  5JZ361      0.1393
     15  C28        1.1520    9.6830   29.4780 C.2   361  5JZ361      0.0917
     16  C32        0.1600   15.4750   26.1180 C.3   361  5JZ361      0.0525
     17  C2        -2.7290   13.1710   32.7180 C.3   361  5JZ361      0.0761
     18  C3        -1.6320   12.6360   30.6290 C.3   361  5JZ361      0.0761
     19  C9        -5.7140   11.3660   27.9020 C.ar  361  5JZ361     -0.0011
     20  C14        2.1780    9.8630   30.3940 C.2   361  5JZ361      0.0162
     21  C12       -5.3040   12.2280   28.8930 C.ar  361  5JZ361      0.0364
     22  C11        1.3470   11.9570   28.6500 C.2   361  5JZ361      0.0041
     23  C16        6.1840   14.7290   31.1090 C.3   361  5JZ361      0.0266
     24  C18        4.8200   14.7830   30.4550 C.3   361  5JZ361      0.0985
     25  C19       -2.9900   10.0060   30.8630 C.3   361  5JZ361      0.1751
     26  C1        -1.0800   14.7230   26.5380 C.3   361  5JZ361      0.2227
     27  C23        6.5120   12.5430   30.0610 C.ar  361  5JZ361     -0.0084
     28  C25        5.3390   12.6670   29.3510 C.ar  361  5JZ361      0.0498
     29  C27       -3.9460   10.4960   29.8340 C.ar  361  5JZ361      0.0412
     30  C30       -3.0390   10.8470   25.7530 C.1   361  5JZ361      0.2437
     31  C31       -1.1410   10.8680   27.0110 C.1   361  5JZ361      0.2319
     32  C29       -1.7170   12.6780   25.8450 C.1   361  5JZ361      0.3320
     33  C36       -4.5790    8.9730   25.7770 C.3   361  5JZ361      0.1873
     34  C33        3.0090   13.4430   29.6060 C.2   361  5JZ361      0.2371
     35  C34       -5.1140    8.1850   24.6170 C.2   361  5JZ361      0.2624
     36  C35       -2.8410   12.3160   31.4810 C.3   361  5JZ361      0.2294
     37  N37        0.3950    8.5640   29.2460 N.2   361  5JZ361     -0.2458
     38  N40       -2.2180   10.1920   26.5860 N.2   361  5JZ361     -0.2447
     39  N38       -2.8160   12.1020   25.3590 N.2   361  5JZ361     -0.2276
     40  N39       -0.8280   12.1240   26.6730 N.2   361  5JZ361     -0.2287
     41  N41       -4.7690    6.8580   24.7010 N.am  361  5JZ361     -0.2021
     42  N42       -4.2070   10.2650   25.2250 N.pl3 361  5JZ361     -0.1426
     43  N43       -0.2660   10.1870   27.8820 N.pl3 361  5JZ361     -0.1873
     44  N44        4.3590   13.5300   29.8850 N.am  361  5JZ361     -0.2584
     45  O46        2.3100   14.4250   29.4040 O.2   361  5JZ361     -0.2738
     46  O47       -5.7580    8.6900   23.7050 O.2   361  5JZ361     -0.2714
     47  O48       -2.8490   10.9560   31.9170 O.3   361  5JZ361     -0.3199
     48  O49       -4.0470   12.7120   30.8300 O.3   361  5JZ361     -0.4587
     49  O45       -1.5140   13.9750   25.4140 O.2   361  5JZ361     -0.3987
@<TRIPOS>BOND
     1     1    41    1
     2    46    35    2
     3    35    41   am
     4    35    33    1
     5    42    30    1
     6    42    33    1
     7    39    30    2
     8    39    32    2
     9    49    32    1
    10    49    26    1
    11    30    38    2
    12    33    10    1
    13    32    40    2
    14    16    26    1
    15    38    31    2
    16    40    31    2
    17    10    11    1
    18    31    43    1
    19     3     5   ar
    20     3     2   ar
    21    11    19   ar
    22    11     7   ar
    23    43     8    1
    24    43    13    1
    25    19    21   ar
    26     5    28   ar
    27     8    37    1
    28     2     4   ar
    29    13    22    2
    30    13    15    1
    31    22     6    1
    32     7    29   ar
    33    21    14   ar
    34    37    15    2
    35    28    44    1
    36    28    27   ar
    37    45    34    2
    38    15    20    1
    39     6    34    1
    40     6    12    1
    41     4    27   ar
    42    34    44   am
    43    29    14   ar
    44    29    25    1
    45    14    48    1
    46    44    24    1
    47    27     9    1
    48    20    12    2
    49    24    23    1
    50    18    36    1
    51    48    36    1
    52    25    47    1
    53    23     9    1
    54    36    47    1
    55    36    17    1
