@<TRIPOS>MOLECULE
3hab_677_A_1.pdb
 27 30 0 0 0
SMALL
GASTEIGER

@<TRIPOS>ATOM
      1  F27       33.3860   48.5360   36.0170 F     767  677767     -0.2017
      2  C6        34.6090   49.0840   36.0900 C.ar  767  677767      0.1696
      3  C1        34.7850   50.4070   36.4800 C.ar  767  677767      0.0612
      4  C2        36.0930   50.9160   36.5470 C.ar  767  677767      0.1386
      5  F22       36.2570   52.1780   36.9470 F     767  677767     -0.2044
      6  C5        35.7150   48.3080   35.7620 C.ar  767  677767      0.1672
      7  F21       35.5140   47.0440   35.3790 F     767  677767     -0.2018
      8  C4        37.0080   48.8210   35.8210 C.ar  767  677767      0.0300
      9  C3        37.2130   50.1360   36.2340 C.ar  767  677767      0.0093
     10  C9        38.6040   50.7220   36.2880 C.3   767  677767      0.0523
     11  C10       39.6350   49.8630   37.0550 C.3   767  677767      0.0810
     12  C14       39.0690   51.0080   34.8460 C.3   767  677767      0.1164
     13  N23       38.0580   51.8180   34.1530 N.3   767  677767     -0.1307
     14  C13       40.4330   51.7170   34.7860 C.3   767  677767      0.1169
     15  N12       41.3980   51.1280   35.7180 N.pl3 767  677767     -0.2627
     16  C11       41.0580   50.3040   36.7480 C.2   767  677767      0.1642
     17  N18       42.1650   49.9420   37.4510 N.2   767  677767     -0.3899
     18  C29       42.7350   51.3230   35.7220 C.2   767  677767      0.0793
     19  C23       43.6550   52.0600   34.9470 C.2   767  677767     -0.0026
     20  C22       45.0340   52.0080   35.2730 C.3   767  677767      0.0725
     21  C19       43.2500   50.5290   36.8680 C.2   767  677767      0.1468
     22  C20       44.6220   50.5280   37.1460 C.2   767  677767      0.0476
     23  C21       45.5290   51.2590   36.3640 C.2   767  677767      0.0904
     24  S24       47.1330   51.2370   36.7150 S.O2  767  677767      0.0071
     25  O26       47.8850   51.0310   35.5090 O.2   767  677767     -0.1689
     26  O25       47.4370   52.5730   37.1940 O.2   767  677767     -0.1689
     27  C27       47.5060   50.1380   37.8750 C.3   767  677767      0.1812
@<TRIPOS>BOND
     1    13    12    1
     2    14    12    1
     3    14    15    1
     4    12    10    1
     5    19    20    1
     6    19    18    2
     7    20    23    1
     8     7     6    1
     9    25    24    2
    10    15    18    1
    11    15    16    1
    12    18    21    1
    13     6     8   ar
    14     6     2   ar
    15     8     9   ar
    16     1     2    1
    17     2     3   ar
    18     9    10    1
    19     9     4   ar
    20    10    11    1
    21    23    24    1
    22    23    22    2
    23     3     4   ar
    24     4     5    1
    25    24    26    2
    26    24    27    1
    27    16    11    1
    28    16    17    2
    29    21    22    1
    30    21    17    2
