@<TRIPOS>MOLECULE
3hac_361_A_1.pdb
 23 26 0 0 0
SMALL
GASTEIGER

@<TRIPOS>ATOM
      1  F21       35.5330   47.0310   35.3050 F     767  361767     -0.2018
      2  C5        35.7440   48.2950   35.7150 C.ar  767  361767      0.1672
      3  C6        34.6640   49.0760   36.0980 C.ar  767  361767      0.1696
      4  F27       33.4300   48.5580   36.0550 F     767  361767     -0.2017
      5  C4        37.0430   48.8110   35.7300 C.ar  767  361767      0.0300
      6  C3        37.2560   50.1180   36.1550 C.ar  767  361767      0.0093
      7  C2        36.1590   50.8970   36.5270 C.ar  767  361767      0.1386
      8  F22       36.3530   52.1490   36.9320 F     767  361767     -0.2044
      9  C1        34.8610   50.3940   36.5070 C.ar  767  361767      0.0612
     10  C9        38.6360   50.7130   36.1890 C.3   767  361767      0.0523
     11  C14       39.0680   51.0870   34.7600 C.3   767  361767      0.1164
     12  N23       38.0330   51.8460   34.0540 N.3   767  361767     -0.1307
     13  C13       40.3780   51.8800   34.7850 C.3   767  361767      0.1169
     14  N12       41.3700   51.1810   35.6120 N.pl3 767  361767     -0.2627
     15  C29       42.6930   51.3930   35.5820 C.2   767  361767      0.0824
     16  C19       43.2710   50.4880   36.5960 C.2   767  361767      0.1645
     17  N18       42.2170   49.8260   37.1720 N.2   767  361767     -0.3883
     18  C11       41.0790   50.2480   36.5620 C.2   767  361767      0.1642
     19  C10       39.6670   49.7810   36.8800 C.3   767  361767      0.0810
     20  C20       44.6580   50.4990   36.7790 C.2   767  361767      0.1268
     21  N21       45.4220   51.3090   36.0240 N.2   767  361767     -0.2613
     22  C22       44.9190   52.1480   35.0790 C.3   767  361767      0.1531
     23  C23       43.5380   52.2200   34.8370 C.2   767  361767      0.0175
@<TRIPOS>BOND
     1    12    11    1
     2    11    13    1
     3    11    10    1
     4    13    14    1
     5    23    22    1
     6    23    15    2
     7    22    21    1
     8     1     2    1
     9    15    14    1
    10    15    16    1
    11    14    18    1
    12     2     5   ar
    13     2     3   ar
    14     5     6   ar
    15    21    20    2
    16     4     3    1
    17     3     9   ar
    18     6    10    1
    19     6     7   ar
    20    10    19    1
    21     9     7   ar
    22     7     8    1
    23    18    19    1
    24    18    17    2
    25    16    20    1
    26    16    17    2
