@<TRIPOS>MOLECULE
3had_NAD_A_1.pdb
 44 48 0 0 0
SMALL
GASTEIGER

@<TRIPOS>ATOM
      1  PA        42.5700   36.0450   30.7790 P.3   350  NAD350      0.2189
      2  O1A       43.9510   35.7050   30.4100 O.2   350  NAD350     -0.5170
      3  O2A       41.7270   35.0920   31.6440 O.3   350  NAD350     -0.4371
      4  O5B       41.6190   36.2550   29.4700 O.3   350  NAD350     -0.3112
      5  C5B       41.9470   37.2340   28.4220 C.3   350  NAD350      0.1813
      6  C4B       41.2480   36.7620   27.1600 C.3   350  NAD350      0.1821
      7  O4B       41.6150   37.8020   26.1430 O.3   350  NAD350     -0.3135
      8  C3B       41.7950   35.4360   26.5140 C.3   350  NAD350      0.2184
      9  O3B       40.6400   34.4850   26.3640 O.3   350  NAD350     -0.2174
     10  C2B       42.4210   35.7610   25.1860 C.3   350  NAD350      0.2570
     11  O2B       42.3680   34.9080   24.1450 O.3   350  NAD350     -0.2130
     12  C1B       41.7730   37.1480   24.9140 C.3   350  NAD350      0.3186
     13  N9A       42.6360   37.9800   24.1200 N.pl3 350  NAD350     -0.1439
     14  C8A       43.9600   38.3400   24.1300 C.3   350  NAD350      0.3377
     15  N7A       44.3550   39.1600   23.1720 N.2   350  NAD350     -0.2095
     16  C5A       43.2530   39.3960   22.4420 C.2   350  NAD350      0.2526
     17  C6A       43.0190   40.2380   21.2150 C.2   350  NAD350      0.4393
     18  N6A       43.9450   40.9350   20.6170 N.pl3 350  NAD350      0.2180
     19  N1A       41.7210   40.1820   20.8100 N.2   350  NAD350      0.0021
     20  C2A       40.6820   39.5160   21.3240 C.3   350  NAD350      0.5254
     21  N3A       40.8480   38.7050   22.4790 N.2   350  NAD350     -0.0055
     22  C4A       42.1510   38.6850   22.9890 C.2   350  NAD350      0.3518
     23  O3        42.5190   37.4140   31.4870 O.3   350  NAD350     -0.2703
     24  PN        41.7210   38.2060   32.5490 P.3   350  NAD350      0.2189
     25  O1N       42.1290   37.7820   33.8950 O.3   350  NAD350     -0.4371
     26  O2N       40.2650   38.0370   32.2200 O.2   350  NAD350     -0.5170
     27  O5D       42.1470   39.7600   32.5210 O.3   350  NAD350     -0.3112
     28  C5D       41.8380   40.4580   31.2440 C.3   350  NAD350      0.1813
     29  C4D       41.9540   41.9390   31.5070 C.3   350  NAD350      0.1799
     30  O4D       41.2240   42.2610   32.7640 O.3   350  NAD350     -0.3327
     31  C3D       43.3740   42.5220   31.8130 C.3   350  NAD350      0.2158
     32  O3D       43.4640   43.8450   31.2490 O.3   350  NAD350     -0.2175
     33  C2D       43.5340   42.5860   33.3370 C.3   350  NAD350      0.2309
     34  O2D       44.5050   43.4850   33.8290 O.3   350  NAD350     -0.2158
     35  C1D       42.0770   42.9540   33.7690 C.3   350  NAD350      0.2263
     36  N1N       41.5710   42.5140   35.1310 N.pl3 350  NAD350     -0.2787
     37  C2N       41.9330   41.2950   35.7210 C.3   350  NAD350      0.1244
     38  C3N       41.4130   40.9960   36.9560 C.2   350  NAD350      0.0544
     39  C7N       41.7690   39.6820   37.6460 C.2   350  NAD350      0.2818
     40  O7N       42.1390   39.5470   38.7980 O.2   350  NAD350     -0.2670
     41  N7N       41.6130   38.5570   36.7850 N.am  350  NAD350     -0.0839
     42  C4N       40.4960   41.8930   37.6920 C.2   350  NAD350      0.0033
     43  C5N       40.2020   43.0930   37.0000 C.2   350  NAD350      0.0157
     44  C6N       40.6780   43.4380   35.7930 C.2   350  NAD350      0.0633
@<TRIPOS>BOND
     1    18    17    1
     2    19    17    2
     3    19    20    1
     4    17    16    1
     5    20    21    1
     6    16    22    1
     7    16    15    2
     8    21    22    2
     9    22    13    1
    10    15    14    1
    11    13    14    1
    12    13    12    1
    13    11    10    1
    14    12    10    1
    15    12     7    1
    16    10     8    1
    17     7     6    1
    18     9     8    1
    19     8     6    1
    20     6     5    1
    21     5     4    1
    22     4     1    1
    23     2     1    2
    24     1    23    1
    25     1     3    1
    26    28    29    1
    27    28    27    1
    28    32    31    1
    29    23    24    1
    30    29    31    1
    31    29    30    1
    32    31    33    1
    33    26    24    2
    34    27    24    1
    35    24    25    1
    36    30    35    1
    37    33    35    1
    38    33    34    1
    39    35    36    1
    40    36    37    1
    41    36    44    1
    42    37    38    1
    43    44    43    2
    44    41    39   am
    45    38    39    1
    46    38    42    2
    47    43    42    1
    48    39    40    2
