@<TRIPOS>MOLECULE
3han_RET_A_1.pdb
 20 20 0 0 0
SMALL
GASTEIGER

@<TRIPOS>ATOM
      1  C1       -25.9850  -10.5420   -3.0520 C.3   301  RET301      0.0183
      2  C2       -26.3160   -9.9350   -4.3910 C.3   301  RET301      0.0044
      3  C3       -26.7620   -8.4780   -4.2680 C.3   301  RET301      0.0047
      4  C4       -27.6840   -8.0600   -3.1350 C.3   301  RET301      0.0217
      5  C5       -26.9820   -8.4810   -1.8660 C.2   301  RET301     -0.0479
      6  C6       -26.1640   -9.6110   -1.8470 C.2   301  RET301     -0.0307
      7  C7       -25.5580   -9.8990   -0.5280 C.2   301  RET301     -0.0052
      8  C8       -24.7380  -10.8970   -0.3070 C.2   301  RET301     -0.0046
      9  C9       -24.1470  -11.1680    1.0360 C.2   301  RET301     -0.0219
     10  C10      -23.2160  -12.0980    0.9770 C.2   301  RET301     -0.0043
     11  C11      -22.4920  -12.6260    2.1700 C.2   301  RET301     -0.0007
     12  C12      -21.4900  -13.5400    1.9780 C.2   301  RET301     -0.0046
     13  C13      -20.6340  -14.3740    2.9230 C.2   301  RET301     -0.0261
     14  C14      -20.0180  -15.4650    2.4110 C.2   301  RET301     -0.0300
     15  C15      -19.1580  -16.4030    3.1830 C.3   301  RET301      0.0304
     16  C16      -25.7030  -12.0450   -2.8820 C.3   301  RET301      0.0043
     17  C17      -24.4430  -10.3670   -3.3420 C.3   301  RET301      0.0043
     18  C18      -27.1860   -7.6530   -0.6060 C.3   301  RET301      0.0260
     19  C19      -24.3540  -10.5920    2.4470 C.3   301  RET301      0.0310
     20  C20      -20.4000  -14.2730    4.4470 C.3   301  RET301      0.0307
@<TRIPOS>BOND
     1     2     3    1
     2     2     1    1
     3     3     4    1
     4    17     1    1
     5     4     5    1
     6     1    16    1
     7     1     6    1
     8     5     6    2
     9     5    18    1
    10     6     7    1
    11     7     8    2
    12     8     9    1
    13    10     9    2
    14    10    11    1
    15     9    19    1
    16    12    11    2
    17    12    13    1
    18    14    13    2
    19    14    15    1
    20    13    20    1
