@<TRIPOS>MOLECULE
3hao_RET_A_1.pdb
 20 20 0 0 0
SMALL
GASTEIGER

@<TRIPOS>ATOM
      1  C1        -4.1270    3.0370   18.5620 C.3   301  RET301      0.0183
      2  C2        -3.2360    4.2420   18.0180 C.3   301  RET301      0.0044
      3  C3        -2.6550    4.1360   16.6660 C.3   301  RET301      0.0047
      4  C4        -2.1610    2.7600   16.2530 C.3   301  RET301      0.0217
      5  C5        -2.9510    1.5150   16.7150 C.2   301  RET301     -0.0479
      6  C6        -3.8880    1.6130   17.7880 C.2   301  RET301     -0.0307
      7  C7        -4.5740    0.2950   18.0890 C.2   301  RET301     -0.0052
      8  C8        -5.5150   -0.0720   19.0290 C.2   301  RET301     -0.0049
      9  C9        -6.1360   -1.3500   19.2890 C.2   301  RET301     -0.0258
     10  C10       -6.9940   -1.2710   20.3440 C.2   301  RET301     -0.0257
     11  C11       -7.7370   -2.4420   20.8150 C.3   301  RET301      0.0510
     12  C12       -8.5210   -2.0840   21.8540 C.2   301  RET301     -0.0299
     13  C13       -9.4190   -2.9910   22.5290 C.2   301  RET301     -0.0478
     14  C14      -10.0940   -2.3460   23.5570 C.3   301  RET301      0.0217
     15  C15      -11.0550   -2.9710   24.4270 C.3   301  RET301      0.0047
     16  C16       -3.8260    2.9120   20.0580 C.3   301  RET301      0.0043
     17  C17       -5.5950    3.6230   18.4690 C.3   301  RET301      0.0043
     18  C18       -2.5420    0.3480   15.8850 C.3   301  RET301      0.0260
     19  C19       -5.8510   -2.6110   18.5010 C.3   301  RET301      0.0307
     20  C20       -9.5820   -4.4200   22.1370 C.3   301  RET301      0.0260
@<TRIPOS>BOND
     1    18     5    1
     2     4     3    1
     3     4     5    1
     4     3     2    1
     5     5     6    2
     6     6     7    1
     7     6     1    1
     8     2     1    1
     9     7     8    2
    10    17     1    1
    11    19     9    1
    12     1    16    1
    13     8     9    1
    14     9    10    2
    15    10    11    1
    16    11    12    1
    17    12    13    2
    18    20    13    1
    19    13    14    1
    20    14    15    1
