@<TRIPOS>MOLECULE
3hap_RET_A_1.pdb
 20 20 0 0 0
SMALL
GASTEIGER

@<TRIPOS>ATOM
      1  C1        26.2450   10.4590   -3.0650 C.3   301  RET301      0.0183
      2  C2        26.5890    9.8530   -4.4100 C.3   301  RET301      0.0044
      3  C3        26.9770    8.3940   -4.3280 C.3   301  RET301      0.0047
      4  C4        27.7400    8.0120   -3.0470 C.3   301  RET301      0.0217
      5  C5        27.0160    8.5050   -1.8120 C.2   301  RET301     -0.0479
      6  C6        26.2550    9.6130   -1.7980 C.2   301  RET301     -0.0307
      7  C7        25.6060    9.9730   -0.4910 C.2   301  RET301     -0.0052
      8  C8        24.5900   10.8200   -0.3400 C.2   301  RET301     -0.0046
      9  C9        23.9320   11.1340    0.9400 C.2   301  RET301     -0.0219
     10  C10       23.0270   12.1290    0.9410 C.2   301  RET301     -0.0043
     11  C11       22.2480   12.6020    2.0820 C.2   301  RET301     -0.0007
     12  C12       21.2970   13.4850    1.8040 C.2   301  RET301     -0.0046
     13  C13       20.4280   14.1210    2.7850 C.2   301  RET301     -0.0261
     14  C14       19.7200   15.1830    2.3130 C.2   301  RET301     -0.0300
     15  C15       18.8270   16.0020    3.1000 C.3   301  RET301      0.0304
     16  C16       26.0390   11.9910   -2.9590 C.3   301  RET301      0.0043
     17  C17       24.7490   10.2530   -3.3810 C.3   301  RET301      0.0043
     18  C18       27.1820    7.6520   -0.5840 C.3   301  RET301      0.0260
     19  C19       24.2300   10.3180    2.1710 C.3   301  RET301      0.0310
     20  C20       20.3860   13.6300    4.2030 C.3   301  RET301      0.0307
@<TRIPOS>BOND
     1     2     3    1
     2     2     1    1
     3     3     4    1
     4    17     1    1
     5     1    16    1
     6     1     6    1
     7     4     5    1
     8     5     6    2
     9     5    18    1
    10     6     7    1
    11     7     8    2
    12     8     9    1
    13     9    10    2
    14     9    19    1
    15    10    11    1
    16    12    11    2
    17    12    13    1
    18    14    13    2
    19    14    15    1
    20    13    20    1
