@<TRIPOS>MOLECULE
3haq_RET_A_1.pdb
 20 20 0 0 0
SMALL
GASTEIGER

@<TRIPOS>ATOM
      1  C1       -26.3550  -10.2920   -3.0860 C.3   301  RET301      0.0183
      2  C2       -26.5350   -9.5040   -4.3640 C.3   301  RET301      0.0044
      3  C3       -27.4860   -8.3210   -4.2270 C.3   301  RET301      0.0047
      4  C4       -28.0690   -8.0240   -2.8500 C.3   301  RET301      0.0217
      5  C5       -27.2620   -8.4830   -1.6490 C.2   301  RET301     -0.0479
      6  C6       -26.4140   -9.5450   -1.7220 C.2   301  RET301     -0.0307
      7  C7       -25.6590   -9.9080   -0.5040 C.2   301  RET301     -0.0052
      8  C8       -25.0220  -11.0550   -0.2920 C.2   301  RET301     -0.0049
      9  C9       -24.2610  -11.2340    0.9680 C.2   301  RET301     -0.0258
     10  C10      -23.2940  -12.1460    0.9160 C.2   301  RET301     -0.0257
     11  C11      -22.4410  -12.4590    2.0380 C.3   301  RET301      0.0510
     12  C12      -21.6930  -13.5110    1.7530 C.2   301  RET301     -0.0299
     13  C13      -20.7490  -14.1800    2.6680 C.2   301  RET301     -0.0478
     14  C14      -20.1030  -15.2330    2.1430 C.3   301  RET301      0.0217
     15  C15      -19.1690  -16.0360    2.9000 C.3   301  RET301      0.0047
     16  C16      -26.2240  -11.8090   -3.1610 C.3   301  RET301      0.0043
     17  C17      -24.8130  -10.2400   -3.2850 C.3   301  RET301      0.0043
     18  C18      -27.5200   -7.6850   -0.3950 C.3   301  RET301      0.0260
     19  C19      -24.4830  -10.3920    2.2170 C.3   301  RET301      0.0307
     20  C20      -20.5840  -13.7900    4.1000 C.3   301  RET301      0.0260
@<TRIPOS>BOND
     1     2     3    1
     2     2     1    1
     3     3     4    1
     4    17     1    1
     5    16     1    1
     6     1     6    1
     7     4     5    1
     8     6     5    2
     9     6     7    1
    10     5    18    1
    11     7     8    2
    12     8     9    1
    13    10     9    2
    14    10    11    1
    15     9    19    1
    16    12    11    1
    17    12    13    2
    18    14    13    1
    19    14    15    1
    20    13    20    1
