@<TRIPOS>MOLECULE
3har_RET_A_1.pdb
 20 20 0 0 0
SMALL
GASTEIGER

@<TRIPOS>ATOM
      1  C1        26.4300   10.4850   -3.0160 C.3   301  RET301      0.0183
      2  C2        26.7270    9.8870   -4.3630 C.3   301  RET301      0.0044
      3  C3        27.2440    8.4660   -4.3090 C.3   301  RET301      0.0047
      4  C4        27.9750    8.0820   -3.0160 C.3   301  RET301      0.0217
      5  C5        27.2470    8.5430   -1.7700 C.2   301  RET301     -0.0479
      6  C6        26.4650    9.6500   -1.7510 C.2   301  RET301     -0.0307
      7  C7        25.8060    9.9930   -0.4510 C.2   301  RET301     -0.0052
      8  C8        24.8510   10.9020   -0.3010 C.2   301  RET301     -0.0049
      9  C9        24.2030   11.1790    1.0010 C.2   301  RET301     -0.0258
     10  C10       23.2840   12.1550    1.0040 C.2   301  RET301     -0.0257
     11  C11       22.5390   12.5730    2.1810 C.3   301  RET301      0.0510
     12  C12       21.6630   13.5470    1.9480 C.2   301  RET301     -0.0299
     13  C13       20.7950   14.2090    2.9170 C.2   301  RET301     -0.0478
     14  C14       20.0980   15.2450    2.4040 C.3   301  RET301      0.0217
     15  C15       19.1720   16.1180    3.0960 C.3   301  RET301      0.0047
     16  C16       26.3270   12.0220   -2.9260 C.3   301  RET301      0.0043
     17  C17       24.9230   10.2860   -3.2960 C.3   301  RET301      0.0043
     18  C18       27.4530    7.6930   -0.5450 C.3   301  RET301      0.0260
     19  C19       24.5270   10.4010    2.2500 C.3   301  RET301      0.0307
     20  C20       20.7580   13.7670    4.3550 C.3   301  RET301      0.0260
@<TRIPOS>BOND
     1     2     3    1
     2     2     1    1
     3     3     4    1
     4    17     1    1
     5     4     5    1
     6     1    16    1
     7     1     6    1
     8     5     6    2
     9     5    18    1
    10     6     7    1
    11     7     8    2
    12     8     9    1
    13     9    10    2
    14     9    19    1
    15    10    11    1
    16    12    11    1
    17    12    13    2
    18    14    13    1
    19    14    15    1
    20    13    20    1
