@<TRIPOS>MOLECULE
3has_RET_A_1.pdb
 20 20 0 0 0
SMALL
GASTEIGER

@<TRIPOS>ATOM
      1  C1       -26.6270  -10.5200   -3.0280 C.3   301  RET301      0.0183
      2  C2       -26.9990   -9.9420   -4.3780 C.3   301  RET301      0.0044
      3  C3       -27.4530   -8.5020   -4.2990 C.3   301  RET301      0.0047
      4  C4       -28.1590   -8.1030   -3.0020 C.3   301  RET301      0.0217
      5  C5       -27.4330   -8.5770   -1.7660 C.2   301  RET301     -0.0479
      6  C6       -26.6540   -9.6780   -1.7620 C.2   301  RET301     -0.0307
      7  C7       -25.9800  -10.0530   -0.4780 C.2   301  RET301     -0.0052
      8  C8       -25.0200  -10.9760   -0.3330 C.2   301  RET301     -0.0049
      9  C9       -24.3840  -11.2650    0.9740 C.2   301  RET301     -0.0258
     10  C10      -23.3930  -12.1530    1.0060 C.2   301  RET301     -0.0257
     11  C11      -22.6720  -12.5240    2.2160 C.3   301  RET301      0.0510
     12  C12      -21.7920  -13.4900    2.0280 C.2   301  RET301     -0.0299
     13  C13      -20.9250  -14.1150    3.0200 C.2   301  RET301     -0.0478
     14  C14      -20.2470  -15.1620    2.5190 C.3   301  RET301      0.0217
     15  C15      -19.3050  -16.0260    3.1840 C.3   301  RET301      0.0047
     16  C16      -26.4210  -12.0450   -2.9400 C.3   301  RET301      0.0043
     17  C17      -25.1320  -10.2470   -3.3350 C.3   301  RET301      0.0043
     18  C18      -27.6110   -7.7460   -0.5190 C.3   301  RET301      0.0260
     19  C19      -24.8150  -10.4880    2.2030 C.3   301  RET301      0.0307
     20  C20      -20.8310  -13.6120    4.4330 C.3   301  RET301      0.0260
@<TRIPOS>BOND
     1     2     3    1
     2     2     1    1
     3     3     4    1
     4    17     1    1
     5     1    16    1
     6     1     6    1
     7     4     5    1
     8     5     6    2
     9     5    18    1
    10     6     7    1
    11     7     8    2
    12     8     9    1
    13     9    10    2
    14     9    19    1
    15    10    11    1
    16    12    11    1
    17    12    13    2
    18    14    13    1
    19    14    15    1
    20    13    20    1
