@<TRIPOS>MOLECULE
3hat_III_T_1.pdb
 32 32 0 0 0
SMALL
GASTEIGER

@<TRIPOS>ATOM
      1  O         17.9160  -17.7100   24.0140 O.2   303  RNG303     -0.2733
      2  C         17.1340  -16.9200   24.6840 C.2   303  RNG303      0.2433
      3  CA        17.5180  -16.7080   26.1450 C.3   303  RNG303      0.1058
      4  CH        18.7530  -15.7240   26.3080 C.3   303  RNG303      0.1010
      5  CG        19.7560  -16.3680   27.3250 C.3   303  RNG303      0.0211
      6  CF        20.8610  -16.9610   26.6950 C.3   303  RNG303      0.0220
      7  CE        21.5490  -16.0590   25.5930 C.3   303  RNG303      0.1094
      8  N1        20.7420  -14.8140   25.2310 N.3   303  RNG303     -0.1314
      9  N2        19.4880  -15.1190   25.0070 N.3   303  RNG303     -0.1324
     10  N         16.0830  -16.3600   24.1050 N.am  304  GLY304     -0.1954
     11  CA        16.1000  -16.2950   22.6500 C.3   304  GLY304      0.2013
     12  C         16.3650  -14.8160   22.2990 C.2   304  GLY304      0.2639
     13  O         15.4670  -14.0560   22.6250 O.2   304  GLY304     -0.2714
     14  N         17.5080  -14.5840   21.7360 N.am  305  VAL305     -0.1963
     15  CA        18.0100  -13.2930   21.2720 C.3   305  VAL305      0.1727
     16  C         16.9320  -12.8720   20.2820 C.2   305  VAL305      0.2617
     17  O         16.8640  -13.5980   19.3020 O.2   305  VAL305     -0.2715
     18  CB        19.4020  -13.4770   20.6580 C.3   305  VAL305      0.0290
     19  CG1       20.0370  -14.8250   21.0610 C.3   305  VAL305      0.0023
     20  CG2       19.5230  -13.2910   19.1530 C.3   305  VAL305      0.0023
     21  N         16.1700  -11.8370   20.4740 N.am  306  ARG306     -0.1938
     22  CA        15.0690  -11.3670   19.6400 C.3   306  ARG306      0.2022
     23  C         15.2600  -10.5440   18.3700 C.2   306  ARG306      0.3845
     24  O         14.1580   -9.9760   18.0200 O.co2 306  ARG306     -0.2437
     25  CB        14.0150  -10.6400   20.5790 C.3   306  ARG306      0.0625
     26  CG        13.4010  -11.6880   21.5030 C.2   306  ARG306      0.0163
     27  CD        12.3890  -11.2080   22.4020 C.2   306  ARG306      0.1886
     28  NE        11.6340  -12.2380   23.0790 N.pl3 306  ARG306     -0.0578
     29  CZ        10.8420  -11.9770   24.1430 C.cat 306  ARG306      0.5393
     30  NH1       10.7440  -10.7390   24.6870 N.pl3 306  ARG306      0.1358
     31  NH2       10.0480  -12.8860   24.7350 N.pl3 306  ARG306      0.1358
     32  OXT       16.3090  -10.4290   17.6750 O.co2 306  ARG306     -0.2437
@<TRIPOS>BOND
     1    32    23   ar
     2    24    23   ar
     3    23    22    1
     4    20    18    1
     5    17    16    2
     6    22    21    1
     7    22    25    1
     8    16    21   am
     9    16    15    1
    10    25    26    1
    11    18    19    1
    12    18    15    1
    13    15    14    1
    14    26    27    2
    15    14    12   am
    16    12    13    2
    17    12    11    1
    18    27    28    1
    19    11    10    1
    20    28    29    2
    21     1     2    2
    22    10     2   am
    23    29    30    1
    24    29    31    1
    25     2     3    1
    26     9     8    1
    27     9     4    1
    28     8     7    1
    29     7     6    1
    30     3     4    1
    31     4     5    1
    32     6     5    1
