@<TRIPOS>MOLECULE
3haz_NAD_A_1.pdb
 44 48 0 0 0
SMALL
GASTEIGER

@<TRIPOS>ATOM
      1  PA       -23.4170    9.1760  -30.1080 P.3   2003  NAD2003     0.2189
      2  O1A      -23.7650    9.3370  -31.7030 O.2   2003  NAD2003    -0.5170
      3  O2A      -24.5150    8.4700  -29.4280 O.3   2003  NAD2003    -0.4371
      4  O5B      -23.2440   10.7120  -29.4780 O.3   2003  NAD2003    -0.3112
      5  C5B      -21.9370   11.2110  -29.2270 C.3   2003  NAD2003     0.1813
      6  C4B      -21.9440   12.7370  -29.0480 C.3   2003  NAD2003     0.1821
      7  O4B      -22.8170   13.4760  -29.9850 O.3   2003  NAD2003    -0.3135
      8  C3B      -22.4640   13.2500  -27.6430 C.3   2003  NAD2003     0.2184
      9  O3B      -21.7190   14.1830  -26.9220 O.3   2003  NAD2003    -0.2174
     10  C2B      -23.9390   13.4990  -27.9440 C.3   2003  NAD2003     0.2570
     11  O2B      -24.7780   14.0460  -26.9510 O.3   2003  NAD2003    -0.2130
     12  C1B      -23.8260   14.1610  -29.2480 C.3   2003  NAD2003     0.3186
     13  N9A      -25.0990   14.1270  -29.9830 N.pl3 2003  NAD2003    -0.1439
     14  C8A      -26.0980   13.2150  -29.8650 C.3   2003  NAD2003     0.3377
     15  N7A      -27.1310   13.5770  -30.7790 N.2   2003  NAD2003    -0.2095
     16  C5A      -26.7210   14.7460  -31.4600 C.2   2003  NAD2003     0.2526
     17  C6A      -27.3340   15.5160  -32.4420 C.2   2003  NAD2003     0.4393
     18  N6A      -28.6470   15.1380  -32.9390 N.pl3 2003  NAD2003     0.2180
     19  N1A      -26.7070   16.6140  -32.9370 N.2   2003  NAD2003     0.0021
     20  C2A      -25.4560   16.9690  -32.4610 C.3   2003  NAD2003     0.5254
     21  N3A      -24.8510   16.2130  -31.4940 N.2   2003  NAD2003    -0.0055
     22  C4A      -25.4870   15.0980  -30.9920 C.2   2003  NAD2003     0.3518
     23  O3       -21.9560    8.3770  -29.8990 O.3   2003  NAD2003    -0.2703
     24  PN       -21.5700    7.7390  -28.4020 P.3   2003  NAD2003     0.2189
     25  O1N      -22.8410    6.8070  -27.8630 O.2   2003  NAD2003    -0.5170
     26  O2N      -21.2970    8.8220  -27.4550 O.3   2003  NAD2003    -0.4371
     27  O5D      -20.2120    6.7780  -28.5290 O.3   2003  NAD2003    -0.3112
     28  C5D      -20.2920    5.5310  -29.2050 C.3   2003  NAD2003     0.1813
     29  C4D      -20.0240    5.6550  -30.7200 C.3   2003  NAD2003     0.1799
     30  O4D      -18.9370    6.5930  -31.1300 O.3   2003  NAD2003    -0.3327
     31  C3D      -19.7680    4.3580  -31.6020 C.3   2003  NAD2003     0.2158
     32  O3D      -20.6170    4.0860  -32.6910 O.3   2003  NAD2003    -0.2175
     33  C2D      -18.2510    4.5000  -31.8540 C.3   2003  NAD2003     0.2309
     34  O2D      -17.5500    3.5720  -32.6590 O.3   2003  NAD2003    -0.2158
     35  C1D      -18.1320    5.9490  -32.0960 C.3   2003  NAD2003     0.2263
     36  N1N      -16.7310    6.3370  -31.8860 N.pl3 2003  NAD2003    -0.2787
     37  C2N      -15.8550    6.3730  -32.9870 C.3   2003  NAD2003     0.1244
     38  C3N      -14.4570    6.7400  -32.7830 C.2   2003  NAD2003     0.0544
     39  C7N      -13.5020    6.7900  -33.9890 C.2   2003  NAD2003     0.2818
     40  O7N      -12.4390    7.2840  -33.8640 O.2   2003  NAD2003    -0.2670
     41  N7N      -13.9580    6.3620  -35.2960 N.am  2003  NAD2003    -0.0839
     42  C4N      -13.9660    7.0660  -31.4210 C.2   2003  NAD2003     0.0033
     43  C5N      -14.8380    7.0330  -30.3300 C.2   2003  NAD2003     0.0157
     44  C6N      -16.2570    6.6640  -30.5330 C.2   2003  NAD2003     0.0633
@<TRIPOS>BOND
     1    41    39   am
     2    39    40    2
     3    39    38    1
     4    37    38    1
     5    37    36    1
     6    18    17    1
     7    19    20    1
     8    19    17    2
     9    38    42    2
    10    32    31    1
    11    34    33    1
    12    20    21    1
    13    17    16    1
    14    35    36    1
    15    35    33    1
    16    35    30    1
    17    36    44    1
    18    33    31    1
    19     2     1    2
    20    31    29    1
    21    21    22    2
    22    16    22    1
    23    16    15    2
    24    42    43    1
    25    30    29    1
    26    22    13    1
    27    15    14    1
    28    29    28    1
    29    44    43    2
    30     1    23    1
    31     1     4    1
    32     1     3    1
    33     7    12    1
    34     7     6    1
    35    13    14    1
    36    13    12    1
    37    23    24    1
    38     4     5    1
    39    12    10    1
    40     5     6    1
    41    28    27    1
    42     6     8    1
    43    27    24    1
    44    24    25    2
    45    24    26    1
    46    10     8    1
    47    10    11    1
    48     8     9    1
