@<TRIPOS>MOLECULE
3hb4_E2B_X_1.pdb
 30 34 0 0 0
SMALL
GASTEIGER

@<TRIPOS>ATOM
      1  N30       14.5170   -0.7840   -8.2900 N.am  700  E2B700     -0.0837
      2  C9        10.9180    8.7820  -11.5230 C.3   700  E2B700      0.0044
      3  C10       10.9450   10.2200  -11.0590 C.3   700  E2B700      0.0220
      4  C15       11.6700    7.9290  -10.4800 C.3   700  E2B700      0.0028
      5  C8        11.3790    8.6360  -12.9920 C.3   700  E2B700      0.0050
      6  C14       11.2570    8.0940   -8.9950 C.3   700  E2B700      0.0282
      7  C11       10.2270   11.0830  -12.0440 C.ar  700  E2B700     -0.0263
      8  C13       11.3750    9.5690   -8.5800 C.3   700  E2B700      0.0028
      9  C16       11.5620    6.4270  -10.6420 C.3   700  E2B700      0.0029
     10  C28       13.6860    0.1750   -7.8300 C.2   700  E2B700      0.2842
     11  C25       11.8400    0.4360   -9.7710 C.ar  700  E2B700      0.0046
     12  C6         9.9280   10.6210  -13.4480 C.ar  700  E2B700     -0.0230
     13  C12       10.5370   10.4320   -9.5480 C.3   700  E2B700      0.0044
     14  C17       12.3040    5.9160   -9.4150 C.3   700  E2B700      0.0348
     15  C18       12.2510    7.0980   -8.4180 C.3   700  E2B700      0.1521
     16  C20        9.7970    7.5700   -8.7410 C.3   700  E2B700      0.0025
     17  C24       12.6870    0.9690   -8.7420 C.ar  700  E2B700      0.0563
     18  C1         9.8430   12.3750  -11.6520 C.ar  700  E2B700     -0.0013
     19  C26       10.9130    1.2080  -10.5320 C.ar  700  E2B700     -0.0002
     20  C21       11.6310    4.6620   -8.8840 C.3   700  E2B700      0.0289
     21  C23       12.5690    2.3600   -8.5650 C.ar  700  E2B700      0.0004
     22  C27       10.8560    2.5860  -10.2780 C.ar  700  E2B700     -0.0043
     23  C7        10.3210    9.2080  -13.9490 C.3   700  E2B700      0.0261
     24  C3         8.9200   12.8460  -13.8660 C.ar  700  E2B700      0.1954
     25  C22       11.7100    3.1880   -9.3290 C.ar  700  E2B700     -0.0220
     26  C5         9.2700   11.5440  -14.3060 C.ar  700  E2B700      0.0375
     27  C2         9.2240   13.2460  -12.5470 C.ar  700  E2B700      0.0417
     28  O4         8.2710   13.7470  -14.7180 O.3   700  E2B700     -0.2866
     29  O29       13.7080    0.4050   -6.5960 O.2   700  E2B700     -0.2667
     30  O19       11.9550    6.6890   -7.0760 O.3   700  E2B700     -0.2231
@<TRIPOS>BOND
     1    28    24    1
     2    26    24   ar
     3    26    12   ar
     4    23    12    1
     5    23     5    1
     6    24    27   ar
     7    12     7   ar
     8     5     2    1
     9    27    18   ar
    10     7    18   ar
    11     7     3    1
    12     2     3    1
    13     2     4    1
    14     3    13    1
    15     9     4    1
    16     9    14    1
    17    19    22   ar
    18    19    11   ar
    19     4     6    1
    20    22    25   ar
    21    11    17   ar
    22    13     8    1
    23    14    20    1
    24    14    15    1
    25    25    20    1
    26    25    21   ar
    27     6    16    1
    28     6     8    1
    29     6    15    1
    30    17    21   ar
    31    17    10    1
    32    15    30    1
    33     1    10   am
    34    10    29    2
