@<TRIPOS>MOLECULE
3hb5_E2B_X_1.pdb
 30 34 0 0 0
SMALL
GASTEIGER

@<TRIPOS>ATOM
      1  N30       10.1160   -0.2710  -10.6430 N.am  700  E2B700     -0.0837
      2  C9        10.7270    9.1770  -11.7560 C.3   700  E2B700      0.0044
      3  C10       10.7380   10.6370  -11.4720 C.3   700  E2B700      0.0220
      4  C15       11.4510    8.4020  -10.6480 C.3   700  E2B700      0.0028
      5  C8        11.1600    8.9160  -13.1790 C.3   700  E2B700      0.0050
      6  C14       10.9320    8.6940   -9.2640 C.3   700  E2B700      0.0282
      7  C11       10.0230   11.4230  -12.5580 C.ar  700  E2B700     -0.0263
      8  C13       11.0180   10.1720   -8.9920 C.3   700  E2B700      0.0028
      9  C16       11.3350    6.9180  -10.6430 C.3   700  E2B700      0.0029
     10  C28        9.8060    0.9700  -10.6060 C.2   700  E2B700      0.2842
     11  C25       12.2540    1.5200  -10.4910 C.ar  700  E2B700      0.0046
     12  C6         9.7360   10.8620  -13.7780 C.ar  700  E2B700     -0.0230
     13  C12       10.2400   10.9450  -10.0540 C.3   700  E2B700      0.0044
     14  C17       12.0410    6.5900   -9.3640 C.3   700  E2B700      0.0348
     15  C18       11.9130    7.8520   -8.5240 C.3   700  E2B700      0.1521
     16  C20        9.4860    8.2010   -8.9710 C.3   700  E2B700      0.0025
     17  C24       10.9600    1.9060  -10.2540 C.ar  700  E2B700      0.0563
     18  C1         9.6810   12.7280  -12.3140 C.ar  700  E2B700     -0.0013
     19  C26       13.3060    2.3420  -10.1820 C.ar  700  E2B700     -0.0002
     20  C21       11.5390    5.3330   -8.6800 C.3   700  E2B700      0.0289
     21  C23       10.7560    3.1330   -9.6680 C.ar  700  E2B700      0.0004
     22  C27       13.0870    3.5600   -9.6050 C.ar  700  E2B700     -0.0043
     23  C7        10.1010    9.4300  -14.1190 C.3   700  E2B700      0.0261
     24  C3         8.7640   12.9830  -14.4580 C.ar  700  E2B700      0.1954
     25  C22       11.8110    3.9750   -9.3470 C.ar  700  E2B700     -0.0220
     26  C5         9.1010   11.6630  -14.7300 C.ar  700  E2B700      0.0375
     27  C2         9.0560   13.5150  -13.2430 C.ar  700  E2B700      0.0417
     28  O4         8.1570   13.7760  -15.3260 O.3   700  E2B700     -0.2866
     29  O29        8.6800    1.3630  -10.7620 O.2   700  E2B700     -0.2667
     30  O19       11.4670    7.5730   -7.2840 O.3   700  E2B700     -0.2231
@<TRIPOS>BOND
     1    28    24    1
     2    26    24   ar
     3    26    12   ar
     4    24    27   ar
     5    23    12    1
     6    23     5    1
     7    12     7   ar
     8    27    18   ar
     9     5     2    1
    10     7    18   ar
    11     7     3    1
    12     2     3    1
    13     2     4    1
    14     3    13    1
    15    29    10    2
    16     4     9    1
    17     4     6    1
    18     1    10   am
    19     9    14    1
    20    10    17    1
    21    11    17   ar
    22    11    19   ar
    23    17    21   ar
    24    19    22   ar
    25    13     8    1
    26    21    25   ar
    27    22    25   ar
    28    14    20    1
    29    14    15    1
    30    25    20    1
    31     6     8    1
    32     6    16    1
    33     6    15    1
    34    15    30    1
