@<TRIPOS>MOLECULE
3hb5_NAP_X_1.pdb
 48 52 0 0 0
SMALL
GASTEIGER

@<TRIPOS>ATOM
      1  PA        19.1260   -1.5370   -2.2980 P.3   360  NAP360      0.2189
      2  O1A       19.6900   -2.4160   -3.3680 O.2   360  NAP360     -0.5170
      3  O2A       19.8290   -1.4410   -1.0260 O.3   360  NAP360     -0.4371
      4  O5B       17.5860   -1.9920   -2.1320 O.3   360  NAP360     -0.3112
      5  C5B       16.9400   -2.8780   -3.0570 C.3   360  NAP360      0.1813
      6  C4B       17.2510   -4.1330   -2.2960 C.3   360  NAP360      0.1820
      7  O4B       16.1490   -4.8880   -1.8260 O.3   360  NAP360     -0.3136
      8  C3B       18.2940   -5.1050   -2.8130 C.3   360  NAP360      0.2157
      9  O3B       19.5930   -4.7490   -2.3460 O.3   360  NAP360     -0.2175
     10  C2B       17.8970   -6.4990   -2.3080 C.3   360  NAP360      0.2314
     11  O2B       19.1050   -7.1490   -1.7110 O.3   360  NAP360     -0.2630
     12  C1B       16.6810   -6.1510   -1.4180 C.3   360  NAP360      0.3158
     13  N9A       15.6200   -7.1560   -1.4070 N.pl3 360  NAP360     -0.1439
     14  C8A       14.9360   -7.6080   -2.4570 C.3   360  NAP360      0.3377
     15  N7A       14.1130   -8.5870   -2.0400 N.2   360  NAP360     -0.2095
     16  C5A       14.2760   -8.7510   -0.7180 C.2   360  NAP360      0.2526
     17  C6A       13.7320   -9.5980    0.2860 C.2   360  NAP360      0.4393
     18  N6A       12.8150  -10.5240    0.0550 N.pl3 360  NAP360      0.2180
     19  N1A       14.1540   -9.4840    1.5600 N.2   360  NAP360      0.0021
     20  C2A       15.0680   -8.5870    1.8940 C.3   360  NAP360      0.5254
     21  N3A       15.6080   -7.7740    0.9930 N.2   360  NAP360     -0.0055
     22  C4A       15.2400   -7.8300   -0.3120 C.2   360  NAP360      0.3518
     23  O3        19.1120   -0.0270   -2.8520 O.3   360  NAP360     -0.2703
     24  PN        18.5090    0.7290   -4.1530 P.3   360  NAP360      0.2189
     25  O1N       18.6600   -0.1610   -5.3400 O.2   360  NAP360     -0.5170
     26  O2N       19.0170    2.1030   -4.3070 O.3   360  NAP360     -0.4371
     27  O5D       16.9370    0.7980   -3.7030 O.3   360  NAP360     -0.3112
     28  C5D       16.4400    0.4110   -2.4000 C.3   360  NAP360      0.1813
     29  C4D       15.4400    1.2970   -1.7290 C.3   360  NAP360      0.1799
     30  O4D       15.8620    2.6320   -2.0110 O.3   360  NAP360     -0.3327
     31  C3D       13.9540    1.1780   -2.0940 C.3   360  NAP360      0.2158
     32  O3D       13.1040    0.9890   -0.9480 O.3   360  NAP360     -0.2175
     33  C2D       13.7350    2.4020   -2.9930 C.3   360  NAP360      0.2309
     34  O2D       12.5590    3.1580   -2.7150 O.3   360  NAP360     -0.2158
     35  C1D       14.8440    3.3660   -2.6830 C.3   360  NAP360      0.2263
     36  N1N       15.1940    4.2250   -3.8100 N.pl3 360  NAP360     -0.2787
     37  C2N       15.9730    3.7610   -4.8700 C.3   360  NAP360      0.1244
     38  C3N       16.0910    4.5600   -6.0010 C.2   360  NAP360      0.0544
     39  C7N       16.8130    4.0500   -7.2490 C.2   360  NAP360      0.2818
     40  O7N       16.8520    4.7200   -8.2870 O.2   360  NAP360     -0.2670
     41  N7N       17.3260    2.8290   -7.1310 N.am  360  NAP360     -0.0839
     42  C4N       15.4740    5.7980   -6.0420 C.2   360  NAP360      0.0033
     43  C5N       14.7180    6.2510   -4.9740 C.2   360  NAP360      0.0157
     44  C6N       14.5650    5.4660   -3.8390 C.2   360  NAP360      0.0633
     45  P2B       19.1970   -8.0890   -0.6200 P.3   360  NAP360      0.5328
     46  O1X       18.0730   -8.3740    0.1260 O.3   360  NAP360     -0.1145
     47  O2X       20.0040   -7.4930    0.2300 O.3   360  NAP360     -0.1145
     48  O3X       19.7290   -9.3440   -1.0490 O.2   360  NAP360     -0.2224
@<TRIPOS>BOND
     1    40    39    2
     2    39    41   am
     3    39    38    1
     4    42    38    2
     5    42    43    1
     6    38    37    1
     7    25    24    2
     8    43    44    2
     9    37    36    1
    10    26    24    1
    11    24    27    1
    12    24    23    1
    13    44    36    1
    14    36    35    1
    15    27    28    1
    16     2     1    2
    17     5     6    1
    18     5     4    1
    19    33    34    1
    20    33    35    1
    21    33    31    1
    22    23     1    1
    23     8     9    1
    24     8    10    1
    25     8     6    1
    26    35    30    1
    27    14    15    1
    28    14    13    1
    29    28    29    1
    30    10    11    1
    31    10    12    1
    32     1     4    1
    33     1     3    1
    34     6     7    1
    35    31    29    1
    36    31    32    1
    37    15    16    2
    38    30    29    1
    39     7    12    1
    40    11    45    1
    41    12    13    1
    42    13    22    1
    43    48    45    2
    44    16    22    1
    45    16    17    1
    46    45    46    1
    47    45    47    1
    48    22    21    2
    49    18    17    1
    50    17    19    2
    51    21    20    1
    52    19    20    1
