@<TRIPOS>MOLECULE
3hb8_UMP_A_1.pdb
 20 21 0 0 0
SMALL
GASTEIGER

@<TRIPOS>ATOM
      1  N1        25.4610  -11.6780  100.5810 N.am  314  UMP314     -0.1790
      2  C2        25.7200  -10.8880   99.4780 C.1   314  UMP314      0.2844
      3  N3        25.8450  -11.4540   98.2500 N.2   314  UMP314     -0.2452
      4  C4        25.7320  -12.8080   98.0710 C.1   314  UMP314      0.2182
      5  C5        25.4720  -13.6500   99.1990 C.2   314  UMP314      0.1242
      6  C6        25.3440  -13.0630  100.4330 C.2   314  UMP314      0.0928
      7  O2        25.8290   -9.6840   99.5760 O.2   314  UMP314     -0.1918
      8  O4        25.8520  -13.2960   96.9740 O.2   314  UMP314     -0.2085
      9  C1'       25.3010  -11.1280  101.9690 C.3   314  UMP314      0.2090
     10  C2'       26.4290  -10.1750  102.4570 C.3   314  UMP314      0.0874
     11  C3'       25.6840   -9.3010  103.5180 C.3   314  UMP314      0.1857
     12  C4'       24.2640   -9.8770  103.5090 C.3   314  UMP314      0.1774
     13  O3'       26.2650   -9.4830  104.8150 O.3   314  UMP314     -0.2203
     14  O4'       24.1130  -10.3440  102.1360 O.3   314  UMP314     -0.3339
     15  C5'       23.2030   -8.8290  103.9040 C.3   314  UMP314      0.1858
     16  O5'       21.9190   -9.4540  103.8820 O.3   314  UMP314     -0.2675
     17  P         20.7600   -8.4250  104.3260 P.3   314  UMP314      0.5327
     18  OP1       20.7300   -7.2520  103.4420 O.2   314  UMP314     -0.2224
     19  OP2       19.3580   -9.1820  104.2670 O.3   314  UMP314     -0.1145
     20  OP3       21.0240   -7.9390  105.8220 O.3   314  UMP314     -0.1145
@<TRIPOS>BOND
     1     8     4    2
     2     4     3    2
     3     4     5    1
     4     3     2    2
     5     5     6    2
     6     2     7    2
     7     2     1   am
     8     6     1    1
     9     1     9    1
    10     9    14    1
    11     9    10    1
    12    14    12    1
    13    10    11    1
    14    18    17    2
    15    12    11    1
    16    12    15    1
    17    11    13    1
    18    16    15    1
    19    16    17    1
    20    19    17    1
    21    17    20    1
