@<TRIPOS>MOLECULE
3hb9_BTI_A_1.pdb
 15 16 0 0 0
SMALL
GASTEIGER

@<TRIPOS>ATOM
      1  C11       81.8950  108.9300   40.9250 C.2   2000  BTI2000     0.2074
      2  O11       83.0850  109.0540   40.6830 O.2   2000  BTI2000    -0.2883
      3  C10       81.1630  110.0100   41.6850 C.3   2000  BTI2000     0.0722
      4  C9        81.9170  110.3320   42.9680 C.3   2000  BTI2000     0.0082
      5  C8        81.4070  109.4900   44.1280 C.3   2000  BTI2000     0.0014
      6  C7        82.3920  109.5370   45.2870 C.3   2000  BTI2000     0.0129
      7  C2        81.7900  108.8760   46.5220 C.3   2000  BTI2000     0.0729
      8  S1        82.4870  109.5540   47.9950 S.3   2000  BTI2000    -0.1369
      9  C6        82.0300  108.1380   48.9330 C.3   2000  BTI2000     0.0848
     10  C5        82.1490  106.9230   48.0200 C.3   2000  BTI2000     0.1509
     11  N3        83.5380  106.4920   48.0990 N.2   2000  BTI2000    -0.1859
     12  C3        84.1540  106.6150   46.9350 C.1   2000  BTI2000     0.2386
     13  O3        85.4190  106.2740   46.7030 O.2   2000  BTI2000    -0.2023
     14  N2        83.3480  107.1230   46.0250 N.2   2000  BTI2000    -0.1860
     15  C4        82.0160  107.3670   46.5620 C.3   2000  BTI2000     0.1500
@<TRIPOS>BOND
     1     2     1    2
     2     1     3    1
     3     3     4    1
     4     4     5    1
     5     5     6    1
     6     6     7    1
     7    14    15    1
     8    14    12    2
     9     7    15    1
    10     7     8    1
    11    15    10    1
    12    13    12    2
    13    12    11    2
    14     8     9    1
    15    10    11    1
    16    10     9    1
