@<TRIPOS>MOLECULE
3hb9_ADP_A_1.pdb
 27 29 0 0 0
SMALL
GASTEIGER

@<TRIPOS>ATOM
      1  PB        87.7580   47.4060    1.6610 P.3   2100  ADP2100     0.5373
      2  O1B       87.7270   45.9900    2.1860 O.3   2100  ADP2100    -0.1143
      3  O2B       88.3680   48.4020    2.6190 O.3   2100  ADP2100    -0.1143
      4  O3B       86.4730   47.8730    1.0180 O.2   2100  ADP2100    -0.2221
      5  PA        88.7000   46.2240   -0.7170 P.3   2100  ADP2100     0.2231
      6  O1A       87.2400   45.9920   -1.0400 O.2   2100  ADP2100    -0.5169
      7  O2A       89.5750   45.0560   -0.3280 O.3   2100  ADP2100    -0.4370
      8  O3A       88.8090   47.3450    0.4400 O.3   2100  ADP2100    -0.2261
      9  O5'       89.3890   46.9540   -1.9790 O.3   2100  ADP2100    -0.3111
     10  C5'       88.7950   48.1150   -2.5590 C.3   2100  ADP2100     0.1813
     11  C4'       89.5970   48.5950   -3.7610 C.3   2100  ADP2100     0.1821
     12  O4'       90.9990   48.3980   -3.5560 O.3   2100  ADP2100    -0.3135
     13  C3'       89.2300   47.8370   -5.0260 C.3   2100  ADP2100     0.2184
     14  O3'       88.2340   48.5320   -5.7810 O.3   2100  ADP2100    -0.2174
     15  C2'       90.5260   47.7360   -5.7990 C.3   2100  ADP2100     0.2570
     16  O2'       90.6190   48.7640   -6.7920 O.3   2100  ADP2100    -0.2130
     17  C1'       91.6200   47.9230   -4.7580 C.3   2100  ADP2100     0.3186
     18  N9        92.3140   46.6230   -4.5380 N.pl3 2100  ADP2100    -0.1439
     19  C8        92.2800   45.8780   -3.4150 C.3   2100  ADP2100     0.3377
     20  N7        93.0250   44.7490   -3.5470 N.2   2100  ADP2100    -0.2095
     21  C5        93.5550   44.7570   -4.7850 C.2   2100  ADP2100     0.2526
     22  C6        94.4420   43.8700   -5.5830 C.2   2100  ADP2100     0.4393
     23  N6        94.9220   42.7130   -5.0670 N.pl3 2100  ADP2100     0.2180
     24  N1        94.7560   44.2520   -6.8440 N.2   2100  ADP2100     0.0021
     25  C2        94.2850   45.3990   -7.3740 C.3   2100  ADP2100     0.5254
     26  N3        93.4820   46.2490   -6.7090 N.2   2100  ADP2100    -0.0055
     27  C4        93.0860   45.9940   -5.4340 C.2   2100  ADP2100     0.3518
@<TRIPOS>BOND
     1    25    24    1
     2    25    26    1
     3    24    22    2
     4    16    15    1
     5    26    27    2
     6    15    13    1
     7    15    17    1
     8    14    13    1
     9    22    23    1
    10    22    21    1
    11    27    21    1
    12    27    18    1
    13    13    11    1
    14    21    20    2
    15    17    18    1
    16    17    12    1
    17    18    19    1
    18    11    12    1
    19    11    10    1
    20    20    19    1
    21    10     9    1
    22     9     5    1
    23     6     5    2
    24     5     7    1
    25     5     8    1
    26     8     1    1
    27     4     1    2
    28     1     2    1
    29     1     3    1
