@<TRIPOS>MOLECULE
3hbb_NAP_A_1.pdb
 48 52 0 0 0
SMALL
GASTEIGER

@<TRIPOS>ATOM
      1  PA        33.3030   43.0800   27.3410 P.3   601  NAP601      0.2189
      2  O1A       31.8170   43.1700   27.5260 O.2   601  NAP601     -0.5170
      3  O2A       34.2760   43.1660   28.6710 O.3   601  NAP601     -0.4371
      4  O5B       33.2700   44.6560   27.6690 O.3   601  NAP601     -0.3112
      5  C5B       34.4830   45.3490   27.9750 C.3   601  NAP601      0.1813
      6  C4B       34.4430   45.9220   29.3930 C.3   601  NAP601      0.1820
      7  O4B       35.0470   44.9910   30.3040 O.3   601  NAP601     -0.3136
      8  C3B       35.3460   47.1540   29.4730 C.3   601  NAP601      0.2157
      9  O3B       34.5490   48.3370   29.3730 O.3   601  NAP601     -0.2175
     10  C2B       35.9600   47.0680   30.8710 C.3   601  NAP601      0.2314
     11  O2B       35.5340   48.1910   31.6490 O.3   601  NAP601     -0.2630
     12  C1B       35.3640   45.7860   31.4570 C.3   601  NAP601      0.3158
     13  N9A       36.3870   45.0920   32.2690 N.pl3 601  NAP601     -0.1439
     14  C8A       36.8880   43.8790   32.0290 C.3   601  NAP601      0.3377
     15  N7A       37.7860   43.5790   32.9680 N.2   601  NAP601     -0.2095
     16  C5A       37.8560   44.6060   33.8080 C.2   601  NAP601      0.2526
     17  C6A       38.5990   44.8600   34.9510 C.2   601  NAP601      0.4393
     18  N6A       39.4640   43.9600   35.4090 N.pl3 601  NAP601      0.2180
     19  N1A       38.4310   46.0280   35.5870 N.2   601  NAP601      0.0021
     20  C2A       37.5710   46.9280   35.1350 C.3   601  NAP601      0.5254
     21  N3A       36.8480   46.7150   34.0470 N.2   601  NAP601     -0.0055
     22  C4A       36.9690   45.5670   33.3650 C.2   601  NAP601      0.3518
     23  O3        33.9740   43.7220   25.9760 O.3   601  NAP601     -0.2703
     24  PN        34.5610   42.7500   24.8350 P.3   601  NAP601      0.2189
     25  O1N       35.0770   43.9750   24.1640 O.2   601  NAP601     -0.5170
     26  O2N       35.3000   42.0470   25.9200 O.3   601  NAP601     -0.4371
     27  O5D       32.9800   42.4010   24.6530 O.3   601  NAP601     -0.3112
     28  C5D       32.1720   43.1830   23.7690 C.3   601  NAP601      0.1813
     29  C4D       31.3510   42.2870   22.8400 C.3   601  NAP601      0.1799
     30  O4D       30.9200   41.1200   23.5570 O.3   601  NAP601     -0.3327
     31  C3D       30.0470   42.9960   22.4670 C.3   601  NAP601      0.2158
     32  O3D       30.1740   43.5750   21.1660 O.3   601  NAP601     -0.2175
     33  C2D       29.0150   41.8670   22.4260 C.3   601  NAP601      0.2309
     34  O2D       28.4970   41.7430   21.0990 O.3   601  NAP601     -0.2158
     35  C1D       29.8240   40.6170   22.7780 C.3   601  NAP601      0.2263
     36  N1N       28.9990   39.7140   23.6110 N.pl3 601  NAP601     -0.2787
     37  C2N       28.5390   38.5000   23.0870 C.3   601  NAP601      0.1244
     38  C3N       27.7650   37.6550   23.8730 C.2   601  NAP601      0.0544
     39  C7N       27.2620   36.3280   23.3020 C.2   601  NAP601      0.2818
     40  O7N       26.7990   35.4570   24.0370 O.2   601  NAP601     -0.2670
     41  N7N       27.3670   36.2090   21.9820 N.am  601  NAP601     -0.0839
     42  C4N       27.4480   38.0140   25.1780 C.2   601  NAP601      0.0033
     43  C5N       27.9020   39.2190   25.7040 C.2   601  NAP601      0.0157
     44  C6N       28.6770   40.0710   24.9250 C.2   601  NAP601      0.0633
     45  P2B       36.2500   49.6280   31.4540 P.3   601  NAP601      0.5328
     46  O1X       35.3160   50.7690   31.5780 O.3   601  NAP601     -0.1145
     47  O2X       37.4490   49.6620   32.5400 O.3   601  NAP601     -0.1145
     48  O3X       36.9790   49.5530   30.0120 O.2   601  NAP601     -0.2224
@<TRIPOS>BOND
     1    34    33    1
     2    32    31    1
     3    41    39   am
     4    33    31    1
     5    33    35    1
     6    31    29    1
     7    35    30    1
     8    35    36    1
     9    29    30    1
    10    29    28    1
    11    37    36    1
    12    37    38    1
    13    39    38    1
    14    39    40    2
    15    36    44    1
    16    28    27    1
    17    38    42    2
    18    25    24    2
    19    27    24    1
    20    24    26    1
    21    24    23    1
    22    44    43    2
    23    42    43    1
    24    23     1    1
    25     1     2    2
    26     1     4    1
    27     1     3    1
    28     4     5    1
    29     5     6    1
    30     9     8    1
    31     6     8    1
    32     6     7    1
    33     8    10    1
    34    48    45    2
    35     7    12    1
    36    10    12    1
    37    10    11    1
    38    45    46    1
    39    45    11    1
    40    45    47    1
    41    12    13    1
    42    14    13    1
    43    14    15    1
    44    13    22    1
    45    15    16    2
    46    22    16    1
    47    22    21    2
    48    16    17    1
    49    21    20    1
    50    17    18    1
    51    17    19    2
    52    20    19    1
