@<TRIPOS>MOLECULE
3hbb_TMQ_A_1.pdb
 27 29 0 0 0
SMALL
GASTEIGER

@<TRIPOS>ATOM
      1  N1        22.9020   35.1020   24.2790 N.2   611  TMQ611     -0.3298
      2  C2        23.3630   34.3430   25.2890 C.1   611  TMQ611      0.2424
      3  N3        24.0610   34.8860   26.2990 N.2   611  TMQ611     -0.3073
      4  C4        24.3070   36.2020   26.3090 C.2   611  TMQ611      0.2346
      5  C3A       23.1280   36.4230   24.2530 C.2   611  TMQ611      0.1305
      6  C4A       23.8460   37.0110   25.2820 C.2   611  TMQ611      0.0704
      7  C5        24.0930   38.3790   25.2770 C.2   611  TMQ611     -0.0184
      8  C6        23.6150   39.1600   24.2310 C.2   611  TMQ611     -0.0083
      9  C7        22.8940   38.5720   23.1970 C.2   611  TMQ611     -0.0215
     10  C8        22.6500   37.2030   23.2060 C.3   611  TMQ611      0.0858
     11  C9        23.8570   40.5290   24.2180 C.3   611  TMQ611      0.1379
     12  N10       23.0470   41.1800   25.2570 N.pl3 611  TMQ611     -0.2326
     13  C11       21.8180   41.6520   25.0080 C.ar  611  TMQ611      0.0719
     14  C12       20.7350   41.1830   25.7520 C.ar  611  TMQ611      0.0563
     15  C13       19.4620   41.6750   25.4890 C.ar  611  TMQ611      0.1767
     16  C14       19.2860   42.6230   24.4940 C.ar  611  TMQ611      0.2061
     17  C15       20.3580   43.0920   23.7520 C.ar  611  TMQ611      0.1767
     18  C16       21.6350   42.6060   24.0070 C.ar  611  TMQ611      0.0563
     19  C17       24.8130   38.9630   26.3120 C.3   611  TMQ611      0.0309
     20  O18       18.3540   41.2720   26.1670 O.3   611  TMQ611     -0.4682
     21  O19       18.0390   43.1010   24.2410 O.3   611  TMQ611     -0.4654
     22  O20       20.0920   44.0210   22.7950 O.3   611  TMQ611     -0.4682
     23  C21       18.7460   40.4820   27.2990 C.3   611  TMQ611      0.2526
     24  C22       17.2570   42.0840   23.5970 C.3   611  TMQ611      0.2528
     25  C23       19.5790   43.3700   21.6240 C.3   611  TMQ611      0.2526
     26  N24       23.1230   33.0350   25.2870 N.pl3 611  TMQ611     -0.0232
     27  N25       24.9930   36.7970   27.2810 N.pl3 611  TMQ611     -0.0921
@<TRIPOS>BOND
     1    25    22    1
     2    22    17    1
     3     9    10    1
     4     9     8    2
     5    10     5    1
     6    24    21    1
     7    17    18   ar
     8    17    16   ar
     9    18    13   ar
    10    11     8    1
    11    11    12    1
    12     8     7    1
    13    21    16    1
    14     5     1    2
    15     5     6    1
    16     1     2    2
    17    16    15   ar
    18    13    12    1
    19    13    14   ar
    20     7     6    2
    21     7    19    1
    22     6     4    1
    23    26     2    1
    24     2     3    2
    25    15    14   ar
    26    15    20    1
    27    20    23    1
    28     3     4    2
    29     4    27    1
