@<TRIPOS>MOLECULE
3hbf_UDP_A_1.pdb
 25 26 0 0 0
SMALL
GASTEIGER

@<TRIPOS>ATOM
      1  N1        21.6900    3.0840   -2.9050 N.am  900  UDP900     -0.1766
      2  C2        22.0600    4.1860   -3.6890 C.1   900  UDP900      0.2845
      3  N3        22.0380    4.0680   -5.0840 N.2   900  UDP900     -0.2452
      4  C4        21.6650    2.8610   -5.6880 C.1   900  UDP900      0.2182
      5  C5        21.3030    1.7660   -4.9090 C.2   900  UDP900      0.1242
      6  C6        21.3150    1.8820   -3.5230 C.2   900  UDP900      0.0929
      7  O2        22.4540    5.2290   -3.1700 O.2   900  UDP900     -0.1918
      8  O4        21.6710    2.7730   -6.9150 O.2   900  UDP900     -0.2085
      9  C1'       21.6600    3.1890   -1.4270 C.3   900  UDP900      0.2401
     10  C2'       20.2270    3.4340   -0.9520 C.3   900  UDP900      0.2319
     11  O2'       19.9710    4.8400   -1.0180 O.3   900  UDP900     -0.2157
     12  C3'       20.3240    2.9890    0.5090 C.3   900  UDP900      0.2158
     13  C4'       21.3750    1.8750    0.4580 C.3   900  UDP900      0.1799
     14  O4'       22.0100    1.9300   -0.8320 O.3   900  UDP900     -0.3320
     15  O3'       20.7700    4.0600    1.3450 O.3   900  UDP900     -0.2175
     16  C5'       20.7010    0.5100    0.6070 C.3   900  UDP900      0.1813
     17  O5'       20.3890    0.2580    1.9780 O.3   900  UDP900     -0.3111
     18  PA        19.1050   -0.6230    2.3820 P.3   900  UDP900      0.2231
     19  O1A       19.0420   -0.7110    3.8580 O.3   900  UDP900     -0.4370
     20  O2A       17.9240   -0.0770    1.6750 O.2   900  UDP900     -0.5169
     21  O3A       19.3790   -2.0810    1.7520 O.3   900  UDP900     -0.2261
     22  PB        20.8080   -2.8270    1.7600 P.3   900  UDP900      0.5373
     23  O1B       21.7950   -2.1970    0.8550 O.2   900  UDP900     -0.2221
     24  O2B       20.4630   -4.3480    1.3610 O.3   900  UDP900     -0.1143
     25  O3B       21.3240   -2.8850    3.2840 O.3   900  UDP900     -0.1143
@<TRIPOS>BOND
     1     8     4    2
     2     4     3    2
     3     4     5    1
     4     3     2    2
     5     5     6    2
     6     2     7    2
     7     2     1   am
     8     6     1    1
     9     1     9    1
    10     9    10    1
    11     9    14    1
    12    11    10    1
    13    10    12    1
    14    14    13    1
    15    13    12    1
    16    13    16    1
    17    12    15    1
    18    16    17    1
    19    23    22    2
    20    24    22    1
    21    20    18    2
    22    21    22    1
    23    21    18    1
    24    22    25    1
    25    17    18    1
    26    18    19    1
