@<TRIPOS>MOLECULE
3hbf_MYC_A_1.pdb
 23 25 0 0 0
SMALL
GASTEIGER

@<TRIPOS>ATOM
      1  C1        23.7730  -14.0680    6.1440 C.ar  901  MYC901      0.0843
      2  C2        23.7440  -12.6730    5.9330 C.ar  901  MYC901      0.2050
      3  C3        22.7830  -11.8840    6.6210 C.ar  901  MYC901      0.1158
      4  C4        21.8520  -12.5150    7.5170 C.ar  901  MYC901      0.1549
      5  C5        21.8930  -13.9120    7.7110 C.ar  901  MYC901      0.0798
      6  C6        22.8480  -14.6860    7.0320 C.ar  901  MYC901      0.2020
      7  C9        22.7060  -10.4020    6.4530 C.ar  901  MYC901      0.2433
      8  C10       21.7130   -9.6770    7.2020 C.ar  901  MYC901      0.2685
      9  C11       20.8470  -10.3940    8.0610 C.ar  901  MYC901      0.1873
     10  C14       19.7880   -9.7470    8.9130 C.ar  901  MYC901      0.0445
     11  C15       18.9310  -10.6090    9.6570 C.ar  901  MYC901      0.0487
     12  C16       17.9370  -10.0900   10.4880 C.ar  901  MYC901      0.2376
     13  C17       17.7680   -8.6750   10.6050 C.ar  901  MYC901      0.2727
     14  C18       18.6120   -7.7970    9.8680 C.ar  901  MYC901      0.2376
     15  C19       19.6160   -8.3260    9.0300 C.ar  901  MYC901      0.0487
     16  O12       20.9450  -11.7600    8.1800 O.2   901  MYC901     -0.4498
     17  O13       23.4720   -9.8110    5.7060 O.2   901  MYC901     -0.2828
     18  O23       18.4570   -6.4410    9.9710 O.3   901  MYC901     -0.2830
     19  O24       16.8090   -8.1600   11.4130 O.3   901  MYC901     -0.2797
     20  O25       17.1550  -10.9550   11.1670 O.3   901  MYC901     -0.2830
     21  O27       21.6540   -8.3330    7.0600 O.3   901  MYC901     -0.2798
     22  O29       22.8870  -16.0290    7.2320 O.3   901  MYC901     -0.2864
     23  O30       24.6300  -12.0890    5.0890 O.3   901  MYC901     -0.2862
@<TRIPOS>BOND
     1    23     2    1
     2    17     7    2
     3     2     1   ar
     4     2     3   ar
     5     1     6   ar
     6     7     3   ar
     7     7     8   ar
     8     3     4   ar
     9     6    22    1
    10     6     5   ar
    11    21     8    1
    12     8     9   ar
    13     4     5   ar
    14     4    16   ar
    15     9    16   ar
    16     9    10    1
    17    10    15   ar
    18    10    11   ar
    19    15    14   ar
    20    11    12   ar
    21    14    18    1
    22    14    13   ar
    23    12    13   ar
    24    12    20    1
    25    13    19    1
