@<TRIPOS>MOLECULE
3hbj_UDP_A_1.pdb
 25 26 0 0 0
SMALL
GASTEIGER

@<TRIPOS>ATOM
      1  N1        25.6400  -17.0240   15.9190 N.am  900  UDP900     -0.1766
      2  C2        26.9710  -17.4470   16.0240 C.1   900  UDP900      0.2845
      3  N3        27.5570  -18.1260   14.9490 N.2   900  UDP900     -0.2452
      4  C4        26.8190  -18.3830   13.7860 C.1   900  UDP900      0.2182
      5  C5        25.4960  -17.9650   13.6850 C.2   900  UDP900      0.1242
      6  C6        24.9120  -17.2890   14.7500 C.2   900  UDP900      0.0929
      7  O2        27.6150  -17.2370   17.0510 O.2   900  UDP900     -0.1918
      8  O4        27.3390  -18.9980   12.8570 O.2   900  UDP900     -0.2085
      9  C1'       25.0170  -16.2540   17.0200 C.3   900  UDP900      0.2401
     10  C2'       24.9770  -14.7690   16.6610 C.3   900  UDP900      0.2319
     11  O2'       26.2650  -14.2050   16.9140 O.3   900  UDP900     -0.2157
     12  C3'       23.9590  -14.2830   17.6940 C.3   900  UDP900      0.2158
     13  C4'       22.9660  -15.4490   17.7200 C.3   900  UDP900      0.1799
     14  O4'       23.6320  -16.5990   17.1700 O.3   900  UDP900     -0.3320
     15  O3'       24.5540  -14.1050   18.9820 O.3   900  UDP900     -0.2175
     16  C5'       21.7460  -15.1260   16.8550 C.3   900  UDP900      0.1813
     17  O5'       20.8350  -14.3120   17.5980 O.3   900  UDP900     -0.3111
     18  PA        19.8120  -13.3160   16.8580 P.3   900  UDP900      0.2231
     19  O1A       19.0420  -12.5760   17.8820 O.3   900  UDP900     -0.4370
     20  O2A       20.5600  -12.5270   15.8550 O.2   900  UDP900     -0.5169
     21  O3A       18.8300  -14.2960   16.0370 O.3   900  UDP900     -0.2261
     22  PB        18.0420  -15.5480   16.6760 P.3   900  UDP900      0.5373
     23  O1B       18.9090  -16.7210   16.9310 O.3   900  UDP900     -0.1143
     24  O2B       16.8770  -15.8670   15.6110 O.2   900  UDP900     -0.2221
     25  O3B       17.2920  -15.0260   18.0010 O.3   900  UDP900     -0.1143
@<TRIPOS>BOND
     1     8     4    2
     2     5     4    1
     3     5     6    2
     4     4     3    2
     5     6     1    1
     6     3     2    2
     7    24    22    2
     8    20    18    2
     9     1     2   am
    10     1     9    1
    11     2     7    2
    12    21    22    1
    13    21    18    1
    14    10    11    1
    15    10     9    1
    16    10    12    1
    17    22    23    1
    18    22    25    1
    19    16    17    1
    20    16    13    1
    21    18    17    1
    22    18    19    1
    23     9    14    1
    24    14    13    1
    25    12    13    1
    26    12    15    1
