@<TRIPOS>MOLECULE
3hbl_BTI_A_1.pdb
 15 16 0 0 0
SMALL
GASTEIGER

@<TRIPOS>ATOM
      1  C11       14.6370   -3.9660   40.6250 C.2   2000  BTI2000     0.2074
      2  O11       13.6070   -4.1780   39.9950 O.2   2000  BTI2000    -0.2883
      3  C10       15.2640   -5.0770   41.4360 C.3   2000  BTI2000     0.0722
      4  C9        14.4020   -5.3820   42.6580 C.3   2000  BTI2000     0.0082
      5  C8        15.1590   -5.0670   43.9420 C.3   2000  BTI2000     0.0014
      6  C7        14.2430   -5.1080   45.1590 C.3   2000  BTI2000     0.0129
      7  C2        14.8480   -4.2970   46.3050 C.3   2000  BTI2000     0.0729
      8  S1        14.1800   -4.7770   47.8730 S.3   2000  BTI2000    -0.1369
      9  C6        14.6600   -3.2490   48.6030 C.3   2000  BTI2000     0.0848
     10  C5        14.4770   -2.1660   47.5470 C.3   2000  BTI2000     0.1509
     11  N3        13.0630   -1.8020   47.5750 N.2   2000  BTI2000    -0.1859
     12  C3        12.4530   -2.1230   46.4430 C.1   2000  BTI2000     0.2386
     13  O3        11.1520   -1.9830   46.2030 O.2   2000  BTI2000    -0.2023
     14  N2        13.3060   -2.6270   45.5730 N.2   2000  BTI2000    -0.1860
     15  C4        14.6310   -2.7930   46.1570 C.3   2000  BTI2000     0.1500
@<TRIPOS>BOND
     1     2     1    2
     2     1     3    1
     3     3     4    1
     4     4     5    1
     5     5     6    1
     6     6     7    1
     7    14    15    1
     8    14    12    2
     9    15     7    1
    10    15    10    1
    11    13    12    2
    12     7     8    1
    13    12    11    2
    14    10    11    1
    15    10     9    1
    16     8     9    1
