@<TRIPOS>MOLECULE
3hbl_ADP_C_1.pdb
 27 29 0 0 0
SMALL
GASTEIGER

@<TRIPOS>ATOM
      1  PB        60.2940   41.8290  -19.6930 P.3   2100  ADP2100     0.5373
      2  O1B       59.7310   40.9540  -20.7890 O.2   2100  ADP2100    -0.2221
      3  O2B       61.2970   41.1330  -18.8060 O.3   2100  ADP2100    -0.1143
      4  O3B       59.2530   42.6470  -18.9570 O.3   2100  ADP2100    -0.1143
      5  PA        61.5620   44.3500  -19.9190 P.3   2100  ADP2100     0.2231
      6  O1A       60.2790   45.1540  -19.8500 O.3   2100  ADP2100    -0.4370
      7  O2A       62.7400   44.8720  -20.7080 O.2   2100  ADP2100    -0.5169
      8  O3A       61.1870   42.8960  -20.5040 O.3   2100  ADP2100    -0.2261
      9  O5'       62.1120   44.0450  -18.4320 O.3   2100  ADP2100    -0.3111
     10  C5'       61.4120   44.4910  -17.2710 C.3   2100  ADP2100     0.1813
     11  C4'       62.1930   45.5470  -16.4920 C.3   2100  ADP2100     0.1821
     12  O4'       63.6110   45.4530  -16.6600 O.3   2100  ADP2100    -0.3135
     13  C3'       61.8450   46.9580  -16.9180 C.3   2100  ADP2100     0.2184
     14  O3'       60.6600   47.4040  -16.2620 O.3   2100  ADP2100    -0.2174
     15  C2'       63.0670   47.7540  -16.5050 C.3   2100  ADP2100     0.2570
     16  O2'       62.9480   48.2330  -15.1620 O.3   2100  ADP2100    -0.2130
     17  C1'       64.2110   46.7550  -16.5790 C.3   2100  ADP2100     0.3186
     18  N9        65.0330   47.0580  -17.7860 N.pl3 2100  ADP2100    -0.1439
     19  C8        64.9440   46.4320  -18.9760 C.3   2100  ADP2100     0.3377
     20  N7        65.8240   46.9430  -19.8720 N.2   2100  ADP2100    -0.2095
     21  C5        66.5010   47.9280  -19.2560 C.2   2100  ADP2100     0.2526
     22  C6        67.5770   48.8840  -19.6290 C.2   2100  ADP2100     0.4393
     23  N6        68.1070   48.8760  -20.8760 N.pl3 2100  ADP2100     0.2180
     24  N1        68.0100   49.7600  -18.6870 N.2   2100  ADP2100     0.0021
     25  C2        67.4840   49.7760  -17.4460 C.3   2100  ADP2100     0.5254
     26  N3        66.5070   48.9360  -17.0430 N.2   2100  ADP2100    -0.0055
     27  C4        65.9790   48.0040  -17.8820 C.2   2100  ADP2100     0.3518
@<TRIPOS>BOND
     1    23    22    1
     2     2     1    2
     3     7     5    2
     4     8     5    1
     5     8     1    1
     6     5     6    1
     7     5     9    1
     8    20    21    2
     9    20    19    1
    10     1     4    1
    11     1     3    1
    12    22    21    1
    13    22    24    2
    14    21    27    1
    15    19    18    1
    16    24    25    1
    17     9    10    1
    18    27    18    1
    19    27    26    2
    20    18    17    1
    21    25    26    1
    22    10    11    1
    23    13    15    1
    24    13    11    1
    25    13    14    1
    26    12    17    1
    27    12    11    1
    28    17    15    1
    29    15    16    1
