@<TRIPOS>MOLECULE
3hbn_UDP_A_1.pdb
 25 26 0 0 0
SMALL
GASTEIGER

@<TRIPOS>ATOM
      1  N1       -11.1430   24.4960   -5.9410 N.am  301  UDP301     -0.1766
      2  C2       -10.6440   23.7350   -6.9950 C.1   301  UDP301      0.2845
      3  N3       -11.0960   22.4540   -7.1990 N.2   301  UDP301     -0.2452
      4  C4       -12.0360   21.9080   -6.3330 C.1   301  UDP301      0.2182
      5  C5       -12.5260   22.6630   -5.2560 C.2   301  UDP301      0.1242
      6  C6       -12.0820   23.9700   -5.0740 C.2   301  UDP301      0.0929
      7  O2        -9.7990   24.1960   -7.7730 O.2   301  UDP301     -0.1918
      8  O4       -12.4260   20.7500   -6.5350 O.2   301  UDP301     -0.2085
      9  C1'      -10.5970   25.8650   -5.7600 C.3   301  UDP301      0.2401
     10  C2'      -11.6170   26.9630   -5.5080 C.3   301  UDP301      0.2319
     11  O2'      -11.9540   27.6630   -6.6730 O.3   301  UDP301     -0.2157
     12  C3'      -10.9070   27.8840   -4.5330 C.3   301  UDP301      0.2158
     13  C4'       -9.9930   26.9350   -3.7840 C.3   301  UDP301      0.1799
     14  O4'       -9.8200   25.7780   -4.5870 O.3   301  UDP301     -0.3320
     15  O3'      -10.1050   28.8440   -5.2180 O.3   301  UDP301     -0.2175
     16  C5'      -10.5630   26.5410   -2.4300 C.3   301  UDP301      0.1813
     17  O5'      -10.1870   27.5370   -1.5050 O.3   301  UDP301     -0.3111
     18  PA       -11.2540   27.9770   -0.4000 P.3   301  UDP301      0.2231
     19  O1A      -10.7530   29.1380    0.3870 O.3   301  UDP301     -0.4370
     20  O2A      -12.5180   28.2620   -1.1130 O.2   301  UDP301     -0.5169
     21  O3A      -11.5540   26.6950    0.5190 O.3   301  UDP301     -0.2261
     22  PB       -10.5350   25.7290    1.3150 P.3   301  UDP301      0.5373
     23  O1B      -11.3590   25.1990    2.4180 O.3   301  UDP301     -0.1143
     24  O2B      -10.0810   24.6150    0.4730 O.2   301  UDP301     -0.2221
     25  O3B       -9.4130   26.5310    1.8530 O.3   301  UDP301     -0.1143
@<TRIPOS>BOND
     1     7     2    2
     2     3     2    2
     3     3     4    2
     4     2     1   am
     5    11    10    1
     6     8     4    2
     7     4     5    1
     8     1     9    1
     9     1     6    1
    10     9    10    1
    11     9    14    1
    12    10    12    1
    13     5     6    2
    14    15    12    1
    15    14    13    1
    16    12    13    1
    17    13    16    1
    18    16    17    1
    19    17    18    1
    20    20    18    2
    21    18    19    1
    22    18    21    1
    23    24    22    2
    24    21    22    1
    25    22    25    1
    26    22    23    1
