@<TRIPOS>MOLECULE
3hbt_ATP_A_1.pdb
 31 33 0 0 0
SMALL
GASTEIGER

@<TRIPOS>ATOM
      1  PG        45.2650    5.9520   39.0920 P.3   1380  ATP1380     0.5373
      2  O1G       46.6790    5.8990   39.6250 O.3   1380  ATP1380    -0.1143
      3  O2G       45.0210    5.0500   37.9030 O.2   1380  ATP1380    -0.2221
      4  O3G       44.1400    5.8310   40.1040 O.3   1380  ATP1380    -0.1143
      5  PB        44.6360    8.8310   39.1080 P.3   1380  ATP1380     0.2277
      6  O1B       45.4130    9.9650   38.5010 O.2   1380  ATP1380    -0.5168
      7  O2B       44.6050    8.7050   40.6070 O.3   1380  ATP1380    -0.4368
      8  O3B       45.1810    7.4540   38.4410 O.3   1380  ATP1380    -0.2258
      9  PA        42.0410    9.8680   39.1880 P.3   1380  ATP1380     0.2189
     10  O1A       41.0190    9.1780   40.1000 O.3   1380  ATP1380    -0.4371
     11  O2A       42.7800   11.0650   39.7300 O.2   1380  ATP1380    -0.5170
     12  O3A       43.1380    8.8500   38.5850 O.3   1380  ATP1380    -0.2700
     13  O5'       41.2080   10.2160   37.8400 O.3   1380  ATP1380    -0.3112
     14  C5'       41.8160   10.7360   36.6570 C.3   1380  ATP1380     0.1813
     15  C4'       41.1100   10.1710   35.4270 C.3   1380  ATP1380     0.1821
     16  O4'       39.6880   10.3180   35.5830 O.3   1380  ATP1380    -0.3135
     17  C3'       41.5070   10.9340   34.1630 C.3   1380  ATP1380     0.2184
     18  O3'       41.7120   10.0400   33.0720 O.3   1380  ATP1380    -0.2174
     19  C2'       40.2970   11.7930   33.8550 C.3   1380  ATP1380     0.2570
     20  O2'       40.0830   12.0160   32.4630 O.3   1380  ATP1380    -0.2130
     21  C1'       39.1580   10.9920   34.4350 C.3   1380  ATP1380     0.3186
     22  N9        38.0230   11.8840   34.7480 N.pl3 1380  ATP1380    -0.1439
     23  C8        37.9990   12.9920   35.5100 C.3   1380  ATP1380     0.3377
     24  N7        36.7420   13.5000   35.5310 N.2   1380  ATP1380    -0.2095
     25  C5        35.9490   12.7060   34.7850 C.2   1380  ATP1380     0.2526
     26  C6        34.5250   12.6500   34.3580 C.2   1380  ATP1380     0.4393
     27  N6        33.6080   13.5670   34.7390 N.pl3 1380  ATP1380     0.2180
     28  N1        34.1370   11.6280   33.5580 N.2   1380  ATP1380     0.0021
     29  C2        34.9910   10.6710   33.1240 C.3   1380  ATP1380     0.5254
     30  N3        36.2950   10.6730   33.4540 N.2   1380  ATP1380    -0.0055
     31  C4        36.8110   11.6470   34.2630 C.2   1380  ATP1380     0.3518
@<TRIPOS>BOND
     1    20    19    1
     2    18    17    1
     3    29    30    1
     4    29    28    1
     5    30    31    2
     6    28    26    2
     7    19    17    1
     8    19    21    1
     9    17    15    1
    10    31    22    1
    11    31    25    1
    12    26    27    1
    13    26    25    1
    14    21    22    1
    15    21    16    1
    16    22    23    1
    17    25    24    2
    18    15    16    1
    19    15    14    1
    20    23    24    1
    21    14    13    1
    22    13     9    1
    23     3     1    2
    24     8     1    1
    25     8     5    1
    26     6     5    2
    27    12     5    1
    28    12     9    1
    29     1     2    1
    30     1     4    1
    31     5     7    1
    32     9    11    2
    33     9    10    1
