@<TRIPOS>MOLECULE
3hbu_III_Z_1.pdb
 24 23 0 0 0
SMALL
GASTEIGER

@<TRIPOS>ATOM
      1  N         35.5830   55.6580   55.1550 N.3     1  ALA1       -0.1231
      2  CA        34.5940   55.8860   54.1070 C.3     1  ALA1        0.1694
      3  C         34.6210   54.7620   53.0720 C.2     1  ALA1        0.2592
      4  O         35.6890   54.2590   52.7110 O.2     1  ALA1       -0.2718
      5  CB        34.8160   57.2420   53.4450 C.3     1  ALA1        0.0304
      6  N         33.4390   54.3800   52.5960 N.am    2  LYS2       -0.1966
      7  CA        33.2870   53.1880   51.7670 C.3     2  LYS2        0.1728
      8  C         32.9520   53.5310   50.3140 C.2     2  LYS2        0.2616
      9  O         32.1070   54.3840   50.0370 O.2     2  LYS2       -0.2715
     10  CB        32.2140   52.2700   52.3790 C.3     2  LYS2        0.0311
     11  CG        31.9950   50.9300   51.6940 C.3     2  LYS2        0.0038
     12  CD        30.7730   50.2470   52.3540 C.3     2  LYS2        0.0206
     13  CE        30.1210   49.2650   51.3930 C.3     2  LYS2        0.1093
     14  NZ        28.8970   48.5660   51.9440 N.3     2  LYS2       -0.1314
     15  N         33.6440   52.8720   49.3910 N.am    3  ALA3       -0.1963
     16  CA        33.3390   52.9710   47.9710 C.3     3  ALA3        0.1728
     17  C         32.8310   51.6030   47.5230 C.2     3  ALA3        0.2616
     18  O         33.5470   50.6160   47.6600 O.2     3  ALA3       -0.2715
     19  CB        34.5840   53.3700   47.1950 C.3     3  ALA3        0.0334
     20  N         31.5960   51.5470   47.0190 N.am    4  ALA4       -0.1977
     21  CA        30.9300   50.2790   46.6920 C.3     4  ALA4        0.1597
     22  C         30.7500   50.0520   45.1920 C.2     4  ALA4        0.2287
     23  O         31.1740   50.8660   44.3690 O.2     4  ALA4       -0.2864
     24  CB        29.5780   50.1860   47.4020 C.3     4  ALA4        0.0319
@<TRIPOS>BOND
     1    23    22    2
     2    22    21    1
     3    21    20    1
     4    21    24    1
     5    20    17   am
     6    19    16    1
     7    17    18    2
     8    17    16    1
     9    16    15    1
    10    15     8   am
    11     9     8    2
    12     8     7    1
    13    13    14    1
    14    13    12    1
    15    11    12    1
    16    11    10    1
    17     7    10    1
    18     7     6    1
    19     6     3   am
    20     4     3    2
    21     3     2    1
    22     5     2    1
    23     2     1    1
