@<TRIPOS>MOLECULE
3hbv_III_Z_1.pdb
 44 43 0 0 0
SMALL
GASTEIGER

@<TRIPOS>ATOM
      1  N         34.5910   55.2380   55.7020 N.3     1  ALA1       -0.1231
      2  CA        34.6020   55.7060   54.3190 C.3     1  ALA1        0.1694
      3  C         34.6580   54.5350   53.3360 C.2     1  ALA1        0.2592
      4  O         35.7290   53.9830   53.0740 O.2     1  ALA1       -0.2718
      5  CB        35.7720   56.6560   54.0940 C.3     1  ALA1        0.0304
      6  N         33.5010   54.1670   52.7900 N.am    2  LYS2       -0.1966
      7  CA        33.3830   52.9640   51.9640 C.3     2  LYS2        0.1728
      8  C         32.9590   53.2430   50.5250 C.2     2  LYS2        0.2616
      9  O         31.9700   53.9350   50.2790 O.2     2  LYS2       -0.2715
     10  CB        32.3800   51.9890   52.5810 C.3     2  LYS2        0.0311
     11  CG        32.2940   50.6880   51.8180 C.3     2  LYS2        0.0038
     12  CD        30.8620   50.2150   51.6600 C.3     2  LYS2        0.0206
     13  CE        30.3860   49.4310   52.8580 C.3     2  LYS2        0.1093
     14  NZ        29.3120   48.4830   52.4520 N.3     2  LYS2       -0.1314
     15  N         33.6980   52.6740   49.5780 N.am    3  ALA3       -0.1963
     16  CA        33.3770   52.8060   48.1600 C.3     3  ALA3        0.1728
     17  C         32.8760   51.4720   47.6030 C.2     3  ALA3        0.2617
     18  O         33.5350   50.4500   47.7670 O.2     3  ALA3       -0.2715
     19  CB        34.6000   53.2830   47.3840 C.3     3  ALA3        0.0334
     20  N         31.7150   51.4840   46.9480 N.am    4  SER4       -0.1936
     21  CA        31.1410   50.2680   46.3630 C.3     4  SER4        0.2055
     22  C         31.4600   50.1040   44.8760 C.2     4  SER4        0.2643
     23  O         31.3450   51.0570   44.1020 O.2     4  SER4       -0.2714
     24  CB        29.6210   50.2380   46.5510 C.3     4  SER4        0.2130
     25  OG        29.2570   50.0800   47.9220 O.3     4  SER4       -0.2179
     26  N         31.8420   48.8870   44.4870 N.am    5  GLN5       -0.1963
     27  CA        32.0330   48.5430   43.0780 C.3     5  GLN5        0.1733
     28  C         30.7200   48.0750   42.4540 C.2     5  GLN5        0.2616
     29  O         29.9590   47.3300   43.0770 O.2     5  GLN5       -0.2715
     30  CB        33.0950   47.4530   42.9160 C.3     5  GLN5        0.0408
     31  CG        34.5270   47.9590   42.7960 C.3     5  GLN5        0.0908
     32  CD        34.9710   48.7750   43.9910 C.2     5  GLN5        0.2608
     33  OE1       35.6680   48.2760   44.8730 O.2     5  GLN5       -0.2717
     34  NE2       34.5670   50.0390   44.0280 N.am    5  GLN5       -0.0878
     35  N         30.4630   48.5130   41.2230 N.am    6  ALA6       -0.1963
     36  CA        29.2440   48.1390   40.5060 C.3     6  ALA6        0.1728
     37  C         29.2460   46.6540   40.1400 C.2     6  ALA6        0.2616
     38  O         30.2940   46.0830   39.8380 O.2     6  ALA6       -0.2715
     39  CB        29.0770   49.0000   39.2610 C.3     6  ALA6        0.0334
     40  N         28.0670   46.0350   40.1660 N.am    7  ALA7       -0.1977
     41  CA        27.9470   44.5960   39.9340 C.3     7  ALA7        0.1597
     42  C         27.8030   44.2570   38.4520 C.2     7  ALA7        0.2287
     43  O         28.2140   45.0280   37.5850 O.2     7  ALA7       -0.2864
     44  CB        26.7750   44.0200   40.7370 C.3     7  ALA7        0.0319
@<TRIPOS>BOND
     1    43    42    2
     2    42    41    1
     3    39    36    1
     4    38    37    2
     5    41    40    1
     6    41    44    1
     7    37    40   am
     8    37    36    1
     9    36    35    1
    10    35    28   am
    11    28    29    2
    12    28    27    1
    13    31    30    1
    14    31    32    1
    15    30    27    1
    16    27    26    1
    17    32    34   am
    18    32    33    2
    19    23    22    2
    20    26    22   am
    21    22    21    1
    22    21    24    1
    23    21    20    1
    24    24    25    1
    25    20    17   am
    26    19    16    1
    27    17    18    2
    28    17    16    1
    29    16    15    1
    30    15     8   am
    31     9     8    2
    32     8     7    1
    33    12    11    1
    34    12    13    1
    35    11    10    1
    36     7    10    1
    37     7     6    1
    38    14    13    1
    39     6     3   am
    40     4     3    2
    41     3     2    1
    42     5     2    1
    43     2     1    1
