@<TRIPOS>MOLECULE
3hc5_82X_A_1.pdb
 36 40 0 0 0
SMALL
GASTEIGER

@<TRIPOS>ATOM
      1  C11        0.7540   24.0700   53.7770 C.ar    1  82X1        0.0600
      2  C12        1.7740   24.8980   53.2400 C.ar    1  82X1        0.0115
      3  C13        1.5510   26.2660   52.9900 C.ar    1  82X1        0.0017
      4  C14        0.2880   26.8170   53.2440 C.ar    1  82X1        0.0115
      5  C15       -0.7510   26.0270   53.7770 C.ar    1  82X1        0.0600
      6  C19       -0.0470   26.0150   58.0900 C.ar    1  82X1        0.1396
      7  C20       -0.3900   27.3790   58.2490 C.ar    1  82X1        0.0369
      8  C21        0.3270   28.1940   59.1450 C.ar    1  82X1        0.0036
      9  C22        1.0290   25.4610   58.8110 C.ar    1  82X1        0.0434
     10  C23        1.7490   26.2940   59.7060 C.ar    1  82X1        0.0325
     11  C24        1.4070   27.6420   59.8720 C.ar    1  82X1        0.0067
     12  C25        2.2180   28.2860   60.8180 C.ar    1  82X1        0.0070
     13  C26        3.1760   27.4590   61.3850 C.ar    1  82X1        0.0295
     14  C29        4.8490   26.8760   63.1230 C.ar    1  82X1        0.0005
     15  C30        5.7380   27.2520   64.1560 C.ar    1  82X1        0.0002
     16  C1        -0.7300   23.9380   57.0370 C.3     1  82X1        0.2364
     17  C2        -1.6820   23.5090   55.9820 C.ar    1  82X1        0.0749
     18  C3        -1.5780   23.8370   54.6220 C.ar    1  82X1        0.1237
     19  N4        -2.5860   23.2920   53.9960 N.ar    1  82X1       -0.0775
     20  O5        -3.3760   22.5930   54.9010 O.2     1  82X1       -0.3580
     21  C6        -2.8160   22.7290   56.1150 C.ar    1  82X1        0.1534
     22  C7        -0.5220   24.6460   54.0380 C.ar    1  82X1        0.0419
     23  C8        -3.3740   22.1060   57.3850 C.3     1  82X1        0.0600
     24  C9        -4.8580   22.4490   57.5910 C.3     1  82X1        0.0080
     25  C10       -3.1460   20.5790   57.3600 C.3     1  82X1        0.0080
     26 CL16       -2.2810   26.8040   54.0660 Cl      1  82X1       -0.0822
     27 CL17        1.1590   22.4020   54.0480 Cl      1  82X1       -0.0822
     28  O18       -0.8310   25.3050   57.2560 O.3     1  82X1       -0.4705
     29  S27        3.0640   25.8830   60.6960 S.2     1  82X1       -0.0868
     30  C28        4.0950   27.8530   62.4340 C.ar    1  82X1        0.0062
     31  C31        5.8700   28.6220   64.4970 C.ar    1  82X1        0.0066
     32  C32        5.1070   29.6060   63.8250 C.ar    1  82X1        0.0798
     33  C33        4.2320   29.2150   62.7860 C.ar    1  82X1        0.0071
     34  C34        5.2330   31.0070   64.1830 C.2     1  82X1        0.3878
     35  O35        5.9680   31.3550   65.0840 O.co2   1  82X1       -0.2406
     36  O36        4.5080   31.9690   63.5200 O.co2   1  82X1       -0.2406
@<TRIPOS>BOND
     1     3     2   ar
     2     3     4   ar
     3     2     1   ar
     4     4     5   ar
     5     5    22   ar
     6     5    26    1
     7     1    22   ar
     8     1    27    1
     9    19    18   ar
    10    19    20   ar
    11    22    18    1
    12    18    17   ar
    13    20    21   ar
    14    17    21   ar
    15    17    16    1
    16    21    23    1
    17    16    28    1
    18    28     6    1
    19    25    23    1
    20    23    24    1
    21     6     7   ar
    22     6     9   ar
    23     7     8   ar
    24     9    10   ar
    25     8    11   ar
    26    10    11   ar
    27    10    29   ar
    28    11    12   ar
    29    29    13   ar
    30    12    13   ar
    31    13    30    1
    32    30    33   ar
    33    30    14   ar
    34    33    32   ar
    35    14    15   ar
    36    36    34   ar
    37    32    34    1
    38    32    31   ar
    39    15    31   ar
    40    34    35   ar
