@<TRIPOS>MOLECULE
3hc6_088_A_1.pdb
 37 41 0 0 0
SMALL
GASTEIGER

@<TRIPOS>ATOM
      1  C1       136.4520  136.2600   84.5120 C.3     1  0881        0.0080
      2  C2       136.8210  136.3220   83.0540 C.3     1  0881        0.0600
      3  C3       138.3070  136.1000   82.8920 C.3     1  0881        0.0080
      4  C4       136.0880  135.2960   82.3040 C.ar    1  0881        0.1534
      5  O5       136.2620  134.0150   82.6950 O.2     1  0881       -0.3580
      6  N6       135.4980  133.1910   81.8640 N.ar    1  0881       -0.0775
      7  C7       134.8870  134.0140   81.0000 C.ar    1  0881        0.1237
      8  C8       135.2200  135.3660   81.2440 C.ar    1  0881        0.0749
      9  C9       134.7280  136.5870   80.5270 C.3     1  0881        0.2364
     10  O10      134.6560  136.3590   79.1040 O.3     1  0881       -0.4705
     11  C11      133.6200  137.0530   78.4190 C.ar    1  0881        0.1392
     12  C12      133.7340  137.1800   77.0140 C.ar    1  0881        0.0384
     13  C13      132.7680  137.8710   76.2290 C.ar    1  0881        0.0203
     14  C14      131.6860  138.4070   76.9550 C.ar    1  0881        0.0604
     15  N15      130.6140  139.1870   76.5390 N.ar    1  0881       -0.3218
     16  C16      130.3950  139.6560   75.1230 C.3     1  0881        0.1328
     17  C17      129.6360  140.9980   74.9550 C.ar    1  0881        0.0006
     18  C18      130.2200  142.0820   74.2430 C.ar    1  0881       -0.0024
     19  C19      129.4910  143.3060   74.0860 C.ar    1  0881       -0.0001
     20  C20      128.1960  143.4410   74.6440 C.ar    1  0881        0.0066
     21  C21      127.6500  142.3640   75.3470 C.ar    1  0881        0.0795
     22  C22      128.3410  141.1650   75.4930 C.ar    1  0881        0.0042
     23  C23      126.3310  142.4710   76.0080 C.2     1  0881        0.3877
     24  O24      126.2300  142.3940   77.2450 O.co2   1  0881       -0.2406
     25  O25      125.2640  142.6490   75.1860 O.co2   1  0881       -0.2406
     26  C26      129.8070  139.4480   77.6300 C.ar    1  0881        0.0762
     27  C27      130.3760  138.8810   78.7400 C.ar    1  0881        0.0202
     28  C28      131.5600  138.2510   78.3430 C.ar    1  0881        0.0203
     29  C29      132.5200  137.5820   79.1150 C.ar    1  0881        0.0384
     30  C30      134.0310  133.5140   79.9750 C.ar    1  0881        0.0419
     31  C31      134.5480  133.2540   78.6670 C.ar    1  0881        0.0600
     32 CL32      136.2190  133.5080   78.3100 Cl      1  0881       -0.0822
     33  C33      133.6960  132.7990   77.6550 C.ar    1  0881        0.0115
     34  C34      132.3350  132.5860   77.9360 C.ar    1  0881        0.0017
     35  C35      131.8290  132.8170   79.2400 C.ar    1  0881        0.0115
     36  C36      132.6690  133.2670   80.2580 C.ar    1  0881        0.0600
     37 CL37      132.0240  133.4820   81.8430 Cl      1  0881       -0.0822
@<TRIPOS>BOND
     1    19    18   ar
     2    19    20   ar
     3    18    17   ar
     4    20    21   ar
     5    17    16    1
     6    17    22   ar
     7    16    15    1
     8    25    23   ar
     9    21    22   ar
    10    21    23    1
    11    23    24   ar
    12    13    14   ar
    13    13    12   ar
    14    15    14   ar
    15    15    26   ar
    16    14    28   ar
    17    12    11   ar
    18    26    27   ar
    19    33    34   ar
    20    33    31   ar
    21    34    35   ar
    22    32    31    1
    23    28    27   ar
    24    28    29   ar
    25    11    10    1
    26    11    29   ar
    27    31    30   ar
    28    10     9    1
    29    35    36   ar
    30    30    36   ar
    31    30     7    1
    32    36    37    1
    33     9     8    1
    34     7     8   ar
    35     7     6   ar
    36     8     4   ar
    37     6     5   ar
    38     4     5   ar
    39     4     2    1
    40     3     2    1
    41     2     1    1
