@<TRIPOS>MOLECULE
3hc8_PD4_A_1.pdb
 34 37 0 0 0
SMALL
GASTEIGER

@<TRIPOS>ATOM
      1  C         17.2340   -5.8820   12.8690 C.2   901  PD4901      0.1347
      2  C1        17.3770   -5.6280   14.2330 C.2   901  PD4901      0.0349
      3  C2        18.2830   -6.3810   14.9920 C.2   901  PD4901      0.0388
      4  C3        19.0350   -7.3770   14.3720 C.2   901  PD4901      0.1774
      5  C4        18.8710   -7.6070   12.9950 C.2   901  PD4901      0.2192
      6  N         17.9840   -6.8530   12.3230 N.2   901  PD4901     -0.3839
      7  N1        19.9200   -8.1310   15.0530 N.2   901  PD4901     -0.3765
      8  C5        20.6280   -9.1020   14.4320 C.2   901  PD4901      0.2579
      9  C6        20.4500   -9.3200   13.0530 C.2   901  PD4901      0.3006
     10  N2        19.5850   -8.5490   12.3510 N.am  901  PD4901     -0.2226
     11  O         21.1500  -10.2570   12.4470 O.2   901  PD4901     -0.2652
     12  N3        21.5090   -9.8740   15.0930 N.pl3 901  PD4901     -0.1771
     13  C7        21.9010   -9.8440   16.5080 C.2   901  PD4901      0.1042
     14  C8        20.8730  -10.4340   17.4770 C.2   901  PD4901      0.0796
     15  N4        21.4060  -10.8110   18.8270 N.pl3 901  PD4901     -0.3007
     16  C9        21.7270   -9.7180   19.7950 C.3   901  PD4901      0.1231
     17  C10       20.7720   -9.7840   20.9970 C.3   901  PD4901      0.1636
     18  O1        20.7210  -11.1130   21.5490 O.3   901  PD4901     -0.3501
     19  C11       20.3290  -12.1510   20.6330 C.3   901  PD4901      0.1636
     20  C12       21.2200  -12.1960   19.3810 C.3   901  PD4901      0.1231
     21  C13       16.3090   -5.1860   11.9470 C.ar  901  PD4901      0.0490
     22  C14       15.2460   -4.3980   12.3970 C.ar  901  PD4901      0.0089
     23  C15       14.3770   -3.7530   11.5280 C.ar  901  PD4901      0.0578
     24  C16       14.5920   -3.9460   10.1740 C.ar  901  PD4901      0.2250
     25  N5        15.6030   -4.7230    9.7310 N.ar  901  PD4901     -0.2101
     26  C17       16.4420   -5.3440   10.5720 C.ar  901  PD4901      0.1046
     27  C18       19.3780   -8.7950   10.9040 C.3   901  PD4901      0.1331
     28  O2        13.7400   -3.3260    9.3770 O.3   901  PD4901     -0.4561
     29  C19       20.5690   -8.4370   10.0200 C.3   901  PD4901      0.1640
     30  O3        20.5530   -7.0290    9.9070 O.3   901  PD4901     -0.3519
     31  C20       21.5230   -6.4910    9.0020 C.3   901  PD4901      0.1422
     32  C21       21.2350   -4.9980    8.7980 C.3   901  PD4901      0.0321
     33  C22       19.8280   -4.7120    8.2690 C.3   901  PD4901      0.0027
     34  C23       13.9390   -3.3050    7.9390 C.3   901  PD4901      0.2542
@<TRIPOS>BOND
     1    34    28    1
     2    33    32    1
     3    32    31    1
     4    31    30    1
     5    28    24    1
     6    25    24   ar
     7    25    26   ar
     8    30    29    1
     9    29    27    1
    10    24    23   ar
    11    26    21   ar
    12    27    10    1
    13    23    22   ar
    14    21    22   ar
    15    21     1    1
    16     6     1    2
    17     6     5    2
    18    10     5    1
    19    10     9   am
    20    11     9    2
    21     1     2    1
    22     5     4    1
    23     9     8    1
    24     2     3    2
    25     4     3    1
    26     4     7    2
    27     8     7    2
    28     8    12    1
    29    12    13    1
    30    13    14    2
    31    14    15    1
    32    15    20    1
    33    15    16    1
    34    20    19    1
    35    16    17    1
    36    19    18    1
    37    17    18    1
