@<TRIPOS>MOLECULE
3hc9_HEM_A_1.pdb
 43 50 0 0 0
SMALL
GASTEIGER

@<TRIPOS>ATOM
      1  CHA      -18.7780   19.6750  -10.8580 C.2   154  HEM154      0.0000
      2  CHB      -15.9790   23.2900  -12.5150 C.2   154  HEM154      0.0000
      3  CHC      -12.1850   21.3400  -10.2250 C.2   154  HEM154      0.0000
      4  CHD      -15.1370   18.0040   -8.1450 C.2   154  HEM154      0.0000
      5  C1A      -18.3220   20.8230  -11.5270 C.ar  154  HEM154      0.0000
      6  C2A      -19.1620   21.6500  -12.3280 C.ar  154  HEM154      0.0000
      7  C3A      -18.4010   22.6390  -12.8260 C.ar  154  HEM154      0.0000
      8  C4A      -17.0650   22.5050  -12.2540 C.ar  154  HEM154      0.0000
      9  CMA      -18.8400   23.7860  -13.8200 C.3   154  HEM154      0.0000
     10  CAA      -20.6730   21.3110  -12.5470 C.3   154  HEM154      0.0000
     11  CBA      -21.5480   22.4210  -11.9050 C.3   154  HEM154      0.0000
     12  CGA      -21.2570   22.7320  -10.4340 C.2   154  HEM154      0.0000
     13  O1A      -21.4680   21.8760   -9.5030 O.co2 154  HEM154      0.0000
     14  O2A      -20.8370   23.8880  -10.1300 O.co2 154  HEM154      0.0000
     15  C1B      -14.6790   23.0880  -12.0770 C.2   154  HEM154      0.0000
     16  C2B      -13.5650   23.8670  -12.5160 C.2   154  HEM154      0.0000
     17  C3B      -12.5270   23.3080  -11.8280 C.2   154  HEM154      0.0000
     18  C4B      -12.9550   22.1990  -11.0070 C.2   154  HEM154      0.0000
     19  CMB      -13.7020   25.1400  -13.5100 C.3   154  HEM154      0.0000
     20  CAB      -11.0450   23.7220  -11.8720 C.2   154  HEM154      0.0000
     21  CBB      -10.4630   23.9100  -13.0360 C.2   154  HEM154      0.0000
     22  C1C      -12.6120   20.2680   -9.4670 C.ar  154  HEM154      0.0000
     23  C2C      -11.7690   19.3320   -8.7060 C.ar  154  HEM154      0.0000
     24  C3C      -12.6390   18.4000   -8.1560 C.ar  154  HEM154      0.0000
     25  C4C      -13.9960   18.7140   -8.5410 C.ar  154  HEM154      0.0000
     26  CMC      -10.2170   19.4850   -8.5970 C.3   154  HEM154      0.0000
     27  CAC      -12.3710   17.1960   -7.2630 C.2   154  HEM154      0.0000
     28  CBC      -11.0890   16.8640   -6.9440 C.2   154  HEM154      0.0000
     29  C1D      -16.3560   18.1260   -8.7100 C.2   154  HEM154      0.0000
     30  C2D      -17.4190   17.1680   -8.5080 C.2   154  HEM154      0.0000
     31  C3D      -18.5690   17.6880   -9.3400 C.2   154  HEM154      0.0000
     32  C4D      -18.0390   18.8550  -10.0370 C.2   154  HEM154      0.0000
     33  CMD      -17.4230   16.0090   -7.5300 C.3   154  HEM154      0.0000
     34  CAD      -19.9600   17.0440   -9.4860 C.3   154  HEM154      0.0000
     35  CBD      -19.7310   16.1370  -10.7190 C.3   154  HEM154      0.0000
     36  CGD      -20.9310   15.2610  -11.0800 C.2   154  HEM154      0.0000
     37  O1D      -21.9210   15.7390  -11.6180 O.co2 154  HEM154      0.0000
     38  O2D      -20.9170   14.0400  -10.8660 O.co2 154  HEM154      0.0000
     39  NA       -17.0610   21.4020  -11.4690 N.ar  154  HEM154      0.0000
     40  NB       -14.2730   22.0810  -11.2180 N.2   154  HEM154      0.0000
     41  NC       -13.9400   19.8610   -9.3010 N.ar  154  HEM154      0.0000
     42  ND       -16.7400   19.1010   -9.6240 N.2   154  HEM154      0.0000
     43 FE        -15.5990   20.7690  -10.1610 Fe    154  HEM154      0.0000
@<TRIPOS>BOND
     1     9     7    1
     2    19    16    1
     3    21    20    2
     4     7     6   ar
     5     7     8   ar
     6    10     6    1
     7    10    11    1
     8    16    15    1
     9    16    17    2
    10     2     8    2
    11     2    15    1
    12     6     5   ar
    13     8    39   ar
    14    15    40    2
    15    11    12    1
    16    20    17    1
    17    17    18    1
    18    37    36   ar
    19     5    39   ar
    20     5     1    2
    21    39    43    1
    22    40    18    1
    23    40    43    1
    24    36    38   ar
    25    36    35    1
    26    18     3    2
    27     1    32    1
    28    35    34    1
    29    12    14   ar
    30    12    13   ar
    31     3    22    1
    32    43    42    1
    33    43    41    1
    34    32    42    2
    35    32    31    1
    36    42    29    1
    37    34    31    1
    38    22    41   ar
    39    22    23   ar
    40    31    30    2
    41    41    25   ar
    42    29    30    1
    43    29     4    2
    44    23    26    1
    45    23    24   ar
    46    25    24   ar
    47    25     4    1
    48    30    33    1
    49    24    27    1
    50    27    28    2
