@<TRIPOS>MOLECULE
3hca_OTR_A_1.pdb
 11 11 0 0 0
SMALL
GASTEIGER

@<TRIPOS>ATOM
      1  C2        28.4160   45.1000   17.0710 C.ar  401  OTR401      0.0015
      2  C3        28.0510   44.9350   15.7340 C.ar  401  OTR401      0.0418
      3  C4        27.6970   43.6680   15.2640 C.ar  401  OTR401      0.1957
      4  O4        27.3360   43.4800   13.9250 O.3   401  OTR401     -0.2866
      5  C5        27.7060   42.5730   16.1200 C.ar  401  OTR401      0.0418
      6  C6        28.0710   42.7360   17.4490 C.ar  401  OTR401      0.0015
      7  C1        28.4240   43.9970   17.9250 C.ar  401  OTR401      0.0094
      8  C7        28.7980   44.1610   19.3960 C.3   401  OTR401      0.1932
      9  O7        29.9690   43.4610   19.6970 O.3   401  OTR401     -0.2167
     10  C8        28.9720   45.6300   19.7390 C.3   401  OTR401      0.1466
     11  N8        28.9520   45.7500   21.1820 N.3   401  OTR401     -0.1282
@<TRIPOS>BOND
     1     4     3    1
     2     3     2   ar
     3     3     5   ar
     4     2     1   ar
     5     5     6   ar
     6     1     7   ar
     7     6     7   ar
     8     7     8    1
     9     8     9    1
    10     8    10    1
    11    10    11    1
