@<TRIPOS>MOLECULE
3hca_SAH_A_1.pdb
 26 28 0 0 0
SMALL
GASTEIGER

@<TRIPOS>ATOM
      1  N         26.7240   52.9080   17.8680 N.3   3001  SAH3001    -0.1208
      2  CA        27.8250   52.2950   17.1450 C.3   3001  SAH3001     0.1952
      3  CB        29.0740   52.1400   18.0240 C.3   3001  SAH3001     0.0422
      4  CG        28.7580   51.5260   19.3890 C.3   3001  SAH3001     0.0597
      5  SD        30.2990   51.2010   20.2920 S.3   3001  SAH3001    -0.1375
      6  C         27.3910   50.9600   16.5510 C.2   3001  SAH3001     0.3819
      7  O         28.2700   50.2620   16.1910 O.co2 3001  SAH3001    -0.2441
      8  OXT       26.0620   50.8820   16.1140 O.co2 3001  SAH3001    -0.2441
      9  C5'       29.8520   51.7390   21.9600 C.3   3001  SAH3001     0.0899
     10  C4'       30.1220   53.2070   22.2500 C.3   3001  SAH3001     0.1630
     11  O4'       29.7450   53.4900   23.5520 O.3   3001  SAH3001    -0.3153
     12  C3'       31.6070   53.5200   22.1800 C.3   3001  SAH3001     0.2168
     13  O3'       31.8360   54.4580   21.1550 O.3   3001  SAH3001    -0.2175
     14  C2'       31.8980   54.0400   23.4260 C.3   3001  SAH3001     0.2569
     15  O2'       32.8150   55.1030   23.3520 O.3   3001  SAH3001    -0.2130
     16  C1'       30.6370   54.4680   23.9470 C.3   3001  SAH3001     0.3185
     17  N9        30.6050   54.6680   25.3870 N.pl3 3001  SAH3001    -0.1439
     18  C8        31.4570   54.1740   26.2790 C.3   3001  SAH3001     0.3377
     19  N7        31.0390   54.6030   27.5260 N.2   3001  SAH3001    -0.2095
     20  C5        29.9100   55.3650   27.3770 C.2   3001  SAH3001     0.2526
     21  C6        29.0990   56.0240   28.2750 C.2   3001  SAH3001     0.4393
     22  N6        29.4100   55.9730   29.6960 N.pl3 3001  SAH3001     0.2180
     23  N1        28.0330   56.7110   27.8430 N.2   3001  SAH3001     0.0021
     24  C2        27.7700   56.7430   26.5100 C.3   3001  SAH3001     0.5254
     25  N3        28.5730   56.0920   25.6260 N.2   3001  SAH3001    -0.0055
     26  C4        29.6340   55.4070   26.0680 C.2   3001  SAH3001     0.3518
@<TRIPOS>BOND
     1     8     6   ar
     2     7     6   ar
     3     6     2    1
     4     2     1    1
     5     2     3    1
     6     3     4    1
     7     4     5    1
     8     5     9    1
     9    13    12    1
    10     9    10    1
    11    12    10    1
    12    12    14    1
    13    10    11    1
    14    15    14    1
    15    14    16    1
    16    11    16    1
    17    16    17    1
    18    17    26    1
    19    17    18    1
    20    25    26    2
    21    25    24    1
    22    26    20    1
    23    18    19    1
    24    24    23    1
    25    20    19    2
    26    20    21    1
    27    23    21    2
    28    21    22    1
