@<TRIPOS>MOLECULE
3hcb_LT2_A_1.pdb
 12 13 0 0 0
SMALL
GASTEIGER

@<TRIPOS>ATOM
      1  CAF       27.4450   44.9610   14.5600 C.3   3001  LT23001     0.1624
      2  NAG       27.8150   45.9110   15.6240 N.2   3001  LT23001    -0.2714
      3  CAH       28.2220   45.2670   16.7200 C.2   3001  LT23001     0.0602
      4  CAD       28.9160   45.7350   17.8330 C.3   3001  LT23001     0.1175
      5  CAJ       29.2330   44.8640   18.8730 C.2   3001  LT23001     0.2175
      6  OAA       29.8440   45.2440   19.8710 O.2   3001  LT23001    -0.2875
      7  CAK       28.8530   43.5350   18.7940 C.2   3001  LT23001     0.2302
      8  OAB       29.1400   42.7830   19.7170 O.2   3001  LT23001    -0.2835
      9  CAE       28.1580   43.0580   17.6880 C.2   3001  LT23001     0.0444
     10  CAI       27.8460   43.9200   16.6470 C.2   3001  LT23001     0.0265
     11  CAL       27.0930   43.6960   15.3300 C.3   3001  LT23001     0.1996
     12  OAC       27.5870   42.5480   14.6310 O.3   3001  LT23001    -0.2161
@<TRIPOS>BOND
     1     1    11    1
     2     1     2    1
     3    12    11    1
     4    11    10    1
     5     2     3    2
     6    10     3    1
     7    10     9    2
     8     3     4    1
     9     9     7    1
    10     4     5    1
    11     7     5    1
    12     7     8    2
    13     5     6    2
