@<TRIPOS>MOLECULE
3hcb_SAH_A_1.pdb
 26 28 0 0 0
SMALL
GASTEIGER

@<TRIPOS>ATOM
      1  N         26.8640   52.8640   18.1100 N.3   2001  SAH2001    -0.1208
      2  CA        27.9910   52.3190   17.3780 C.3   2001  SAH2001     0.1952
      3  CB        29.2020   52.0890   18.2860 C.3   2001  SAH2001     0.0422
      4  CG        28.8310   51.3060   19.5450 C.3   2001  SAH2001     0.0597
      5  SD        30.2610   50.7820   20.5490 S.3   2001  SAH2001    -0.1375
      6  C         27.6090   51.0170   16.6740 C.2   2001  SAH2001     0.3819
      7  O         26.4930   50.9230   16.2860 O.co2 2001  SAH2001    -0.2441
      8  OXT       28.6700   50.1880   16.3080 O.co2 2001  SAH2001    -0.2441
      9  C5'       29.7760   51.4350   22.1690 C.3   2001  SAH2001     0.0899
     10  C4'       30.1420   52.8990   22.4070 C.3   2001  SAH2001     0.1630
     11  O4'       29.7630   53.2580   23.6890 O.3   2001  SAH2001    -0.3153
     12  C3'       31.6400   53.1630   22.3760 C.3   2001  SAH2001     0.2168
     13  O3'       31.9250   53.9980   21.2860 O.3   2001  SAH2001    -0.2175
     14  C2'       31.8830   53.8040   23.5720 C.3   2001  SAH2001     0.2569
     15  O2'       32.8280   54.8340   23.4710 O.3   2001  SAH2001    -0.2130
     16  C1'       30.6160   54.2990   23.9850 C.3   2001  SAH2001     0.3185
     17  N9        30.6270   54.5510   25.4130 N.pl3 2001  SAH2001    -0.1439
     18  C8        31.5130   54.0500   26.2780 C.3   2001  SAH2001     0.3377
     19  N7        31.1810   54.4970   27.5360 N.2   2001  SAH2001    -0.2095
     20  C5        30.0690   55.2810   27.4310 C.2   2001  SAH2001     0.2526
     21  C6        29.3460   55.9590   28.3690 C.2   2001  SAH2001     0.4393
     22  N6        29.7460   55.8940   29.7590 N.pl3 2001  SAH2001     0.2180
     23  N1        28.2820   56.6660   28.0040 N.2   2001  SAH2001     0.0021
     24  C2        27.9210   56.7120   26.6980 C.3   2001  SAH2001     0.5254
     25  N3        28.6400   56.0390   25.7660 N.2   2001  SAH2001    -0.0055
     26  C4        29.7120   55.3280   26.1360 C.2   2001  SAH2001     0.3518
@<TRIPOS>BOND
     1     7     6   ar
     2     8     6   ar
     3     6     2    1
     4     2     1    1
     5     2     3    1
     6     3     4    1
     7     4     5    1
     8     5     9    1
     9    13    12    1
    10     9    10    1
    11    12    10    1
    12    12    14    1
    13    10    11    1
    14    15    14    1
    15    14    16    1
    16    11    16    1
    17    16    17    1
    18    17    26    1
    19    17    18    1
    20    25    26    2
    21    25    24    1
    22    26    20    1
    23    18    19    1
    24    24    23    1
    25    20    19    2
    26    20    21    1
    27    23    21    2
    28    21    22    1
