@<TRIPOS>MOLECULE
3hcc_SAH_A_1.pdb
 26 28 0 0 0
SMALL
GASTEIGER

@<TRIPOS>ATOM
      1  N         27.2450   53.2200   18.4010 N.3   3001  SAH3001    -0.1208
      2  CA        28.3720   52.5970   17.7360 C.3   3001  SAH3001     0.1952
      3  CB        29.5410   52.3520   18.6960 C.3   3001  SAH3001     0.0422
      4  CG        29.1670   51.5690   19.9600 C.3   3001  SAH3001     0.0597
      5  SD        30.6210   51.0820   20.9480 S.3   3001  SAH3001    -0.1375
      6  C         27.9410   51.3180   17.0190 C.2   3001  SAH3001     0.3819
      7  O         28.8070   50.6210   16.6110 O.co2 3001  SAH3001    -0.2441
      8  OXT       26.5980   51.2500   16.6320 O.co2 3001  SAH3001    -0.2441
      9  C5'       30.2410   51.7610   22.5950 C.3   3001  SAH3001     0.0899
     10  C4'       30.6100   53.2350   22.8180 C.3   3001  SAH3001     0.1630
     11  O4'       30.2370   53.5930   24.1020 O.3   3001  SAH3001    -0.3153
     12  C3'       32.1080   53.5040   22.7610 C.3   3001  SAH3001     0.2168
     13  O3'       32.3700   54.4130   21.7240 O.3   3001  SAH3001    -0.2175
     14  C2'       32.4020   54.0230   24.0010 C.3   3001  SAH3001     0.2569
     15  O2'       33.4060   55.0000   23.9920 O.3   3001  SAH3001    -0.2130
     16  C1'       31.1700   54.5270   24.4970 C.3   3001  SAH3001     0.3185
     17  N9        31.1150   54.7520   25.9370 N.pl3 3001  SAH3001    -0.1439
     18  C8        31.9310   54.2400   26.8570 C.3   3001  SAH3001     0.3377
     19  N7        31.5170   54.6930   28.1020 N.2   3001  SAH3001    -0.2095
     20  C5        30.4250   55.4940   27.9220 C.2   3001  SAH3001     0.2526
     21  C6        29.6370   56.1870   28.7990 C.2   3001  SAH3001     0.4393
     22  N6        29.9110   56.1370   30.2210 N.pl3 3001  SAH3001     0.2180
     23  N1        28.6150   56.9050   28.3530 N.2   3001  SAH3001     0.0021
     24  C2        28.3530   56.9480   27.0320 C.3   3001  SAH3001     0.5254
     25  N3        29.1330   56.2640   26.1620 N.2   3001  SAH3001    -0.0055
     26  C4        30.1650   55.5380   26.6070 C.2   3001  SAH3001     0.3518
@<TRIPOS>BOND
     1     7     6   ar
     2     8     6   ar
     3     6     2    1
     4     2     1    1
     5     2     3    1
     6     3     4    1
     7     4     5    1
     8     5     9    1
     9    13    12    1
    10     9    10    1
    11    12    10    1
    12    12    14    1
    13    10    11    1
    14    15    14    1
    15    14    16    1
    16    11    16    1
    17    16    17    1
    18    17    26    1
    19    17    18    1
    20    25    26    2
    21    25    24    1
    22    26    20    1
    23    18    19    1
    24    24    23    1
    25    20    19    2
    26    20    21    1
    27    23    21    2
    28    21    22    1
