@<TRIPOS>MOLECULE
3hcc_LT3_A_1.pdb
 16 18 0 0 0
SMALL
GASTEIGER

@<TRIPOS>ATOM
      1  C1        29.9780   46.0110   19.2140 C.3   2001  LT32001     0.0399
      2  N1        29.5230   45.1440   21.5370 N.3   2001  LT32001    -0.1322
      3  C3        30.6220   43.7620   19.5390 C.3   2001  LT32001     0.0062
      4  C5        28.0770   44.0140   16.7850 C.ar  2001  LT32001     0.0672
      5  C6        27.8970   44.8110   15.6600 C.ar  2001  LT32001     0.0035
      6  C9        29.2730   45.8170   17.8620 C.ar  2001  LT32001    -0.0250
      7  C2        31.2230   45.1290   19.1840 C.3   2001  LT32001     0.0062
      8  C4        29.1540   43.9780   19.2590 C.3   2001  LT32001     0.0399
      9  C12       29.0710   45.2720   20.1400 C.3   2001  LT32001     0.0997
     10  C10       28.7780   44.5140   17.8760 C.ar  2001  LT32001    -0.0211
     11  C7        28.4110   46.1040   15.6370 C.ar  2001  LT32001    -0.0004
     12  C8        29.1050   46.6090   16.7340 C.ar  2001  LT32001    -0.0046
     13  C11       27.5130   42.5940   16.8180 C.3   2001  LT32001     0.4183
     14  F1        28.4720   41.7500   17.1800 F     2001  LT32001    -0.1659
     15  F3        27.0590   42.2520   15.6130 F     2001  LT32001    -0.1659
     16  F2        26.5240   42.5500   17.7040 F     2001  LT32001    -0.1659
@<TRIPOS>BOND
     1    15    13    1
     2    11     5   ar
     3    11    12   ar
     4     5     4   ar
     5    12     6   ar
     6     4    13    1
     7     4    10   ar
     8    13    14    1
     9    13    16    1
    10     6    10   ar
    11     6     1    1
    12    10     8    1
    13     7     1    1
    14     7     3    1
    15     1     9    1
    16     8     3    1
    17     8     9    1
    18     9     2    1
