@<TRIPOS>MOLECULE
3hcd_LNR_A_1.pdb
 12 12 0 0 0
SMALL
GASTEIGER

@<TRIPOS>ATOM
      1  OAC       27.9580   45.9240   15.1590 O.3   2001  LNR2001    -0.2832
      2  CAJ       28.1270   44.8270   16.0220 C.ar  2001  LNR2001     0.2340
      3  CAG       28.5520   44.9680   17.3450 C.ar  2001  LNR2001     0.0436
      4  CAI       27.8280   43.5610   15.5330 C.ar  2001  LNR2001     0.2342
      5  OAB       27.4940   43.3860   14.1980 O.3   2001  LNR2001    -0.2831
      6  CAE       27.9430   42.4290   16.3240 C.ar  2001  LNR2001     0.0452
      7  CAF       28.3570   42.5660   17.6360 C.ar  2001  LNR2001     0.0017
      8  CAK       28.6680   43.8240   18.1510 C.ar  2001  LNR2001     0.0126
      9  CAL       29.0790   43.9240   19.6310 C.3   2001  LNR2001     0.1933
     10  OAD       30.4220   43.6040   19.8740 O.3   2001  LNR2001    -0.2167
     11  CAH       28.7560   45.3150   20.1600 C.3   2001  LNR2001     0.1466
     12  NAA       29.5070   45.5560   21.3740 N.3   2001  LNR2001    -0.1282
@<TRIPOS>BOND
     1     5     4    1
     2     1     2    1
     3     4     2   ar
     4     4     6   ar
     5     2     3   ar
     6     6     7   ar
     7     3     8   ar
     8     7     8   ar
     9     8     9    1
    10     9    10    1
    11     9    11    1
    12    11    12    1
