@<TRIPOS>MOLECULE
3hcd_SAH_A_1.pdb
 26 28 0 0 0
SMALL
GASTEIGER

@<TRIPOS>ATOM
      1  N         26.7890   52.8680   18.3220 N.3   3001  SAH3001    -0.1208
      2  CA        27.8170   52.2740   17.4990 C.3   3001  SAH3001     0.1952
      3  CB        29.1110   52.1100   18.2940 C.3   3001  SAH3001     0.0422
      4  CG        28.8220   51.4530   19.6510 C.3   3001  SAH3001     0.0597
      5  SD        30.2560   50.9560   20.6720 S.3   3001  SAH3001    -0.1375
      6  C         27.4300   50.9130   16.9530 C.2   3001  SAH3001     0.3819
      7  O         26.1310   50.7710   16.4720 O.co2 3001  SAH3001    -0.2441
      8  OXT       28.3380   50.2720   16.6010 O.co2 3001  SAH3001    -0.2441
      9  C5'       29.8400   51.5980   22.3160 C.3   3001  SAH3001     0.0899
     10  C4'       30.1940   53.0760   22.4390 C.3   3001  SAH3001     0.1630
     11  O4'       29.8570   53.3170   23.7560 O.3   3001  SAH3001    -0.3153
     12  C3'       31.6790   53.4640   22.3090 C.3   3001  SAH3001     0.2168
     13  O3'       31.8560   54.4420   21.3050 O.3   3001  SAH3001    -0.2175
     14  C2'       31.9450   53.9490   23.5770 C.3   3001  SAH3001     0.2569
     15  O2'       32.9290   54.9450   23.7210 O.3   3001  SAH3001    -0.2130
     16  C1'       30.6860   54.3730   24.0750 C.3   3001  SAH3001     0.3185
     17  N9        30.6620   54.6310   25.5100 N.pl3 3001  SAH3001    -0.1439
     18  C8        31.5100   54.1580   26.4280 C.3   3001  SAH3001     0.3377
     19  N7        31.0830   54.5800   27.6740 N.2   3001  SAH3001    -0.2095
     20  C5        29.9440   55.3110   27.4950 C.2   3001  SAH3001     0.2526
     21  C6        29.1140   55.9700   28.3520 C.2   3001  SAH3001     0.4393
     22  N6        29.4190   55.8950   29.7500 N.pl3 3001  SAH3001     0.2180
     23  N1        28.0420   56.6480   27.9440 N.2   3001  SAH3001     0.0021
     24  C2        27.7780   56.6930   26.6190 C.3   3001  SAH3001     0.5254
     25  N3        28.6140   56.0470   25.7720 N.2   3001  SAH3001    -0.0055
     26  C4        29.6810   55.3620   26.1880 C.2   3001  SAH3001     0.3518
@<TRIPOS>BOND
     1     7     6   ar
     2     8     6   ar
     3     6     2    1
     4     2     3    1
     5     2     1    1
     6     3     4    1
     7     4     5    1
     8     5     9    1
     9    13    12    1
    10    12    10    1
    11    12    14    1
    12     9    10    1
    13    10    11    1
    14    14    15    1
    15    14    16    1
    16    11    16    1
    17    16    17    1
    18    17    26    1
    19    17    18    1
    20    25    26    2
    21    25    24    1
    22    26    20    1
    23    18    19    1
    24    24    23    1
    25    20    19    2
    26    20    21    1
    27    23    21    2
    28    21    22    1
