@<TRIPOS>MOLECULE
3hce_OTR_A_1.pdb
 11 11 0 0 0
SMALL
GASTEIGER

@<TRIPOS>ATOM
      1  C2        28.8270   45.2490   17.6880 C.ar  291  OTR291      0.0015
      2  C3        28.2120   45.2990   16.4450 C.ar  291  OTR291      0.0418
      3  C4        27.7410   44.1450   15.7930 C.ar  291  OTR291      0.1957
      4  O4        27.1500   44.2030   14.5140 O.3   291  OTR291     -0.2866
      5  C5        27.8710   42.9150   16.3960 C.ar  291  OTR291      0.0418
      6  C6        28.4810   42.8800   17.6450 C.ar  291  OTR291      0.0015
      7  C1        28.9620   44.0150   18.3060 C.ar  291  OTR291      0.0094
      8  C7        29.6430   43.8560   19.6820 C.3   291  OTR291      0.1932
      9  O7        31.0100   43.4640   19.5180 O.3   291  OTR291     -0.2167
     10  C8        29.4920   45.2130   20.3740 C.3   291  OTR291      0.1466
     11  N8        28.9640   45.0860   21.7110 N.3   291  OTR291     -0.1282
@<TRIPOS>BOND
     1     4     3    1
     2     3     5   ar
     3     3     2   ar
     4     5     6   ar
     5     2     1   ar
     6     6     7   ar
     7     1     7   ar
     8     7     8    1
     9     9     8    1
    10     8    10    1
    11    10    11    1
