@<TRIPOS>MOLECULE
3hce_SAH_A_1.pdb
 26 28 0 0 0
SMALL
GASTEIGER

@<TRIPOS>ATOM
      1  N         26.8180   52.7040   18.2290 N.3   290  SAH290     -0.1208
      2  CA        28.0610   52.1010   17.7200 C.3   290  SAH290      0.1952
      3  CB        29.2210   52.0160   18.7290 C.3   290  SAH290      0.0422
      4  CG        28.9960   51.0440   19.8900 C.3   290  SAH290      0.0597
      5  SD        30.5340   50.7570   20.8310 S.3   290  SAH290     -0.1375
      6  C         27.8180   50.7540   17.0710 C.2   290  SAH290      0.3819
      7  O         28.7460   50.0780   16.9020 O.co2 290  SAH290     -0.2441
      8  OXT       26.6340   50.6600   16.3760 O.co2 290  SAH290     -0.2441
      9  C5'       30.0540   51.4230   22.4250 C.3   290  SAH290      0.0899
     10  C4'       30.2500   52.9150   22.5780 C.3   290  SAH290      0.1630
     11  O4'       29.8420   53.2400   23.8650 O.3   290  SAH290     -0.3153
     12  C3'       31.7270   53.2510   22.5460 C.3   290  SAH290      0.2168
     13  O3'       31.9040   54.1510   21.4840 O.3   290  SAH290     -0.2175
     14  C2'       31.9970   53.8750   23.7950 C.3   290  SAH290      0.2569
     15  O2'       32.8830   55.0050   23.7720 O.3   290  SAH290     -0.2130
     16  C1'       30.7020   54.2570   24.3140 C.3   290  SAH290      0.3185
     17  N9        30.7090   54.4800   25.7820 N.pl3 290  SAH290     -0.1439
     18  C8        31.6160   54.0730   26.6790 C.3   290  SAH290      0.3377
     19  N7        31.2470   54.5150   27.9290 N.2   290  SAH290     -0.2095
     20  C5        30.0950   55.1990   27.7680 C.2   290  SAH290      0.2526
     21  C6        29.3220   55.8350   28.6620 C.2   290  SAH290      0.4393
     22  N6        29.6940   55.8460   30.0570 N.pl3 290  SAH290      0.2180
     23  N1        28.2140   56.4530   28.2640 N.2   290  SAH290      0.0021
     24  C2        27.8670   56.4500   26.9450 C.3   290  SAH290      0.5254
     25  N3        28.6590   55.8080   26.0490 N.2   290  SAH290     -0.0055
     26  C4        29.7510   55.1930   26.4820 C.2   290  SAH290      0.3518
@<TRIPOS>BOND
     1     8     6   ar
     2     7     6   ar
     3     6     2    1
     4     2     1    1
     5     2     3    1
     6     3     4    1
     7     4     5    1
     8     5     9    1
     9    13    12    1
    10     9    10    1
    11    12    10    1
    12    12    14    1
    13    10    11    1
    14    15    14    1
    15    14    16    1
    16    11    16    1
    17    16    17    1
    18    17    26    1
    19    17    18    1
    20    25    26    2
    21    25    24    1
    22    26    20    1
    23    18    19    1
    24    24    23    1
    25    20    19    2
    26    20    21    1
    27    23    21    2
    28    21    22    1
