@<TRIPOS>MOLECULE
3hcf_SAH_A_1.pdb
 26 28 0 0 0
SMALL
GASTEIGER

@<TRIPOS>ATOM
      1  N         26.5170   52.7950   18.1120 N.3   3001  SAH3001    -0.1208
      2  CA        27.7120   52.2010   17.5160 C.3   3001  SAH3001     0.1952
      3  CB        28.9150   52.0440   18.4530 C.3   3001  SAH3001     0.0422
      4  CG        28.5960   51.3200   19.7770 C.3   3001  SAH3001     0.0597
      5  SD        30.0780   50.9070   20.7710 S.3   3001  SAH3001    -0.1375
      6  C         27.4080   50.8710   16.8690 C.2   3001  SAH3001     0.3819
      7  O         28.3710   50.2400   16.6120 O.co2 3001  SAH3001    -0.2441
      8  OXT       26.1050   50.6290   16.4590 O.co2 3001  SAH3001    -0.2441
      9  C5'       29.6710   51.5780   22.4100 C.3   3001  SAH3001     0.0899
     10  C4'       29.9230   53.0710   22.5890 C.3   3001  SAH3001     0.1630
     11  O4'       29.5300   53.4630   23.8540 O.3   3001  SAH3001    -0.3153
     12  C3'       31.3850   53.4340   22.4760 C.3   3001  SAH3001     0.2168
     13  O3'       31.5630   54.3220   21.4270 O.3   3001  SAH3001    -0.2175
     14  C2'       31.6770   54.0350   23.6700 C.3   3001  SAH3001     0.2569
     15  O2'       32.6030   55.0640   23.5610 O.3   3001  SAH3001    -0.2130
     16  C1'       30.4270   54.4400   24.2060 C.3   3001  SAH3001     0.3185
     17  N9        30.4090   54.6540   25.6460 N.pl3 3001  SAH3001    -0.1439
     18  C8        31.2840   54.1910   26.5570 C.3   3001  SAH3001     0.3377
     19  N7        30.8690   54.6040   27.8130 N.2   3001  SAH3001    -0.2095
     20  C5        29.7160   55.3250   27.6600 C.2   3001  SAH3001     0.2526
     21  C6        28.8910   55.9480   28.5650 C.2   3001  SAH3001     0.4393
     22  N6        29.2090   55.8670   29.9770 N.pl3 3001  SAH3001     0.2180
     23  N1        27.8110   56.6000   28.1220 N.2   3001  SAH3001     0.0021
     24  C2        27.5300   56.6420   26.7960 C.3   3001  SAH3001     0.5254
     25  N3        28.3440   56.0290   25.8960 N.2   3001  SAH3001    -0.0055
     26  C4        29.4260   55.3680   26.3390 C.2   3001  SAH3001     0.3518
@<TRIPOS>BOND
     1     8     6   ar
     2     7     6   ar
     3     6     2    1
     4     2     1    1
     5     2     3    1
     6     3     4    1
     7     4     5    1
     8     5     9    1
     9    13    12    1
    10     9    10    1
    11    12    10    1
    12    12    14    1
    13    10    11    1
    14    15    14    1
    15    14    16    1
    16    11    16    1
    17    16    17    1
    18    17    26    1
    19    17    18    1
    20    25    26    2
    21    25    24    1
    22    26    20    1
    23    18    19    1
    24    24    23    1
    25    20    19    2
    26    20    21    1
    27    23    21    2
    28    21    22    1
