@<TRIPOS>MOLECULE
3hcf_LT5_A_1.pdb
 14 14 0 0 0
SMALL
GASTEIGER

@<TRIPOS>ATOM
      1  FAC       25.8870   41.8680   15.7320 F     1001  LT51001    -0.1659
      2  CAN       27.2550   41.9080   15.7360 C.3   1001  LT51001     0.4186
      3  FAD       27.7700   41.6810   14.4910 F     1001  LT51001    -0.1659
      4  FAE       27.7510   40.9370   16.5570 F     1001  LT51001    -0.1659
      5  CAL       27.7590   43.2310   16.3000 C.ar  1001  LT51001     0.0712
      6  CAI       28.3640   43.1600   17.5340 C.ar  1001  LT51001     0.0021
      7  CAH       27.6620   44.4500   15.6460 C.ar  1001  LT51001     0.0038
      8  CAF       28.1820   45.5850   16.2650 C.ar  1001  LT51001    -0.0003
      9  CAG       28.8000   45.5300   17.5160 C.ar  1001  LT51001    -0.0018
     10  CAK       28.8770   44.2880   18.1560 C.ar  1001  LT51001     0.0091
     11  CAM       29.5980   44.0440   19.4940 C.3   1001  LT51001     0.1932
     12  OAB       30.8730   43.4720   19.2160 O.3   1001  LT51001    -0.2167
     13  CAJ       29.6940   45.3400   20.3150 C.3   1001  LT51001     0.1466
     14  NAA       28.5320   45.5060   21.1670 N.3   1001  LT51001    -0.1282
@<TRIPOS>BOND
     1     3     2    1
     2     7     8   ar
     3     7     5   ar
     4     1     2    1
     5     2     5    1
     6     2     4    1
     7     8     9   ar
     8     5     6   ar
     9     9    10   ar
    10     6    10   ar
    11    10    11    1
    12    12    11    1
    13    11    13    1
    14    13    14    1
