@<TRIPOS>MOLECULE
3hch_RSM_A_1.pdb
 14 13 0 0 0
SMALL
GASTEIGER

@<TRIPOS>ATOM
      1  C2        39.5330   16.4520   79.1380 C.3   1000  RSM1000     0.0964
      2  C         40.0480   15.9080   80.4520 C.2   1000  RSM1000     0.2423
      3  O         39.8750   14.7490   80.7570 O.2   1000  RSM1000    -0.2733
      4  N         40.7450   16.7220   81.2760 N.am  1000  RSM1000    -0.1977
      5  CA        41.2130   16.2390   82.6010 C.3   1000  RSM1000     0.1737
      6  CB        42.7460   16.1020   82.7240 C.3   1000  RSM1000     0.0454
      7  CG        43.3280   14.8600   82.0300 C.3   1000  RSM1000     0.0941
      8  SD        43.2500   13.3880   82.8330 S.O   1000  RSM1000     0.0428
      9  OD1       43.7460   13.4840   84.3820 O.2   1000  RSM1000    -0.2559
     10  CE        44.3080   12.3930   82.0240 C.3   1000  RSM1000     0.1061
     11  C3        40.5820   17.1170   83.6630 C.2   1000  RSM1000     0.2613
     12  O3        40.9730   17.1410   84.8290 O.2   1000  RSM1000    -0.2715
     13  N2        39.5310   17.8310   83.2250 N.am  1000  RSM1000    -0.2021
     14  C1        38.6600   18.7770   83.9070 C.3   1000  RSM1000     0.1386
@<TRIPOS>BOND
     1     1     2    1
     2     2     3    2
     3     2     4   am
     4     4     5    1
     5    10     8    1
     6     7     6    1
     7     7     8    1
     8     5     6    1
     9     5    11    1
    10     8     9    2
    11    13    11   am
    12    13    14    1
    13    11    12    2
