@<TRIPOS>MOLECULE
3hci_RSM_A_1.pdb
 14 13 0 0 0
SMALL
GASTEIGER

@<TRIPOS>ATOM
      1  C2         8.9360   25.6410   65.3090 C.3   1001  RSM1001     0.0964
      2  C          8.2760   26.8250   64.6420 C.2   1001  RSM1001     0.2423
      3  O          8.0750   27.8530   65.2730 O.2   1001  RSM1001    -0.2733
      4  N          7.9040   26.7720   63.3480 N.am  1001  RSM1001    -0.1977
      5  CA         8.0060   25.6870   62.3570 C.3   1001  RSM1001     0.1737
      6  CB         7.4540   26.3180   61.0690 C.3   1001  RSM1001     0.0454
      7  CG         6.1080   27.0170   61.2940 C.3   1001  RSM1001     0.0941
      8  SD         5.7770   28.2300   60.1970 S.O   1001  RSM1001     0.0428
      9  OD1        6.7990   29.4920   60.3730 O.2   1001  RSM1001    -0.2559
     10  CE         4.2210   28.7560   60.4600 C.3   1001  RSM1001     0.1061
     11  C3         9.4020   25.1310   62.1310 C.2   1001  RSM1001     0.2613
     12  O3        10.3840   25.8650   62.1760 O.2   1001  RSM1001    -0.2715
     13  N2         9.4850   23.8090   61.8920 N.am  1001  RSM1001    -0.2021
     14  C1        10.7260   23.0420   61.9050 C.3   1001  RSM1001     0.1386
@<TRIPOS>BOND
     1     8     9    2
     2     8    10    1
     3     8     7    1
     4     6     7    1
     5     6     5    1
     6    13    14    1
     7    13    11   am
     8    11    12    2
     9    11     5    1
    10     5     4    1
    11     4     2   am
    12     2     3    2
    13     2     1    1
