@<TRIPOS>MOLECULE
3hcm_S45_A_1.pdb
 18 20 0 0 0
SMALL
GASTEIGER

@<TRIPOS>ATOM
      1 CL1        -5.4980    4.8170   29.1040 Cl     94  S4594      -0.0822
      2  C7        -4.6500    6.2830   29.7060 C.ar   94  S4594       0.0577
      3  C10       -5.3580    7.2790   30.3880 C.ar   94  S4594       0.0121
      4  C6        -4.6970    8.4240   30.8420 C.ar   94  S4594       0.0120
      5  C4        -3.3320    8.5960   30.6210 C.ar   94  S4594       0.0771
      6  C5        -2.6210    7.6110   29.9400 C.ar   94  S4594       0.0120
      7  C9        -3.2780    6.4570   29.4920 C.ar   94  S4594       0.0121
      8  C1        -2.6600    9.8470   31.1040 C.1    94  S4594       0.1268
      9  N1        -3.1520   11.0900   30.8260 N.2    94  S4594      -0.3126
     10  C2        -2.3610   12.0300   31.3670 C.2    94  S4594       0.2947
     11  O1        -1.3420   11.3910   32.0090 O.2    94  S4594      -0.3155
     12  N2        -1.5220    9.9690   31.8510 N.2    94  S4594      -0.0072
     13  C3        -2.4320   13.5170   31.3760 C.3    94  S4594       0.1100
     14  C11       -3.5210   13.9570   30.3780 C.3    94  S4594       0.0134
     15  C13       -3.0550   14.0310   28.9110 C.3    94  S4594       0.0194
     16  C12       -1.8230   14.9340   28.7670 C.3    94  S4594       0.0887
     17  N3        -1.2350   15.2340   30.0710 N.3    94  S4594      -0.2175
     18  C8        -1.0810   14.1680   31.0550 C.3    94  S4594       0.0991
@<TRIPOS>BOND
     1    16    15    1
     2    16    17    1
     3    15    14    1
     4     1     2    1
     5     7     2   ar
     6     7     6   ar
     7     2     3   ar
     8     6     5   ar
     9    17    18    1
    10    14    13    1
    11     3     4   ar
    12     5     4   ar
    13     5     8    1
    14     9     8    2
    15     9    10    2
    16    18    13    1
    17     8    12    2
    18    10    13    1
    19    10    11    1
    20    12    11    1
