@<TRIPOS>MOLECULE
3hcn_HEM_A_1.pdb
 43 50 0 0 0
SMALL
GASTEIGER

@<TRIPOS>ATOM
      1  CHA      -38.9550   12.9980   73.2630 C.2   424  HEM424      0.0000
      2  CHB      -37.3120   16.8500   71.0150 C.2   424  HEM424      0.0000
      3  CHC      -35.0520   18.4220   74.9820 C.2   424  HEM424      0.0000
      4  CHD      -36.6720   14.5030   77.2690 C.2   424  HEM424      0.0000
      5  C1A      -38.7150   13.9170   72.2530 C.ar  424  HEM424      0.0000
      6  C2A      -39.1980   13.8270   70.9300 C.ar  424  HEM424      0.0000
      7  C3A      -38.7210   14.9340   70.3120 C.ar  424  HEM424      0.0000
      8  C4A      -37.9410   15.7030   71.2440 C.ar  424  HEM424      0.0000
      9  CMA      -38.9350   15.3720   68.8460 C.3   424  HEM424      0.0000
     10  CAA      -40.2410   12.8860   70.3480 C.3   424  HEM424      0.0000
     11  CBA      -39.5580   11.5640   70.0190 C.3   424  HEM424      0.0000
     12  CGA      -39.0220   11.3300   68.6240 C.2   424  HEM424      0.0000
     13  O1A      -39.6980   11.7170   67.6410 O.co2 424  HEM424      0.0000
     14  O2A      -37.9810   10.7530   68.4990 O.co2 424  HEM424      0.0000
     15  C1B      -36.5420   17.6540   71.8710 C.2   424  HEM424      0.0000
     16  C2B      -35.9310   18.8860   71.4690 C.2   424  HEM424      0.0000
     17  C3B      -35.2590   19.3600   72.6690 C.2   424  HEM424      0.0000
     18  C4B      -35.5220   18.3780   73.6530 C.2   424  HEM424      0.0000
     19  CMB      -36.0060   19.4980   70.1120 C.3   424  HEM424      0.0000
     20  CAB      -34.4960   20.5870   72.7550 C.2   424  HEM424      0.0000
     21  CBB      -34.9300   21.7840   72.3980 C.2   424  HEM424      0.0000
     22  C1C      -35.2980   17.4630   75.9660 C.ar  424  HEM424      0.0000
     23  C2C      -34.7700   17.5670   77.3320 C.ar  424  HEM424      0.0000
     24  C3C      -35.2220   16.4300   78.0400 C.ar  424  HEM424      0.0000
     25  C4C      -36.0340   15.6750   77.0080 C.ar  424  HEM424      0.0000
     26  CMC      -33.8990   18.7090   77.8490 C.3   424  HEM424      0.0000
     27  CAC      -34.9780   16.0970   79.3410 C.2   424  HEM424      0.0000
     28  CBC      -35.0990   16.5910   80.5240 C.2   424  HEM424      0.0000
     29  C1D      -37.4450   13.7460   76.3800 C.2   424  HEM424      0.0000
     30  C2D      -38.1240   12.4650   76.7610 C.2   424  HEM424      0.0000
     31  C3D      -38.7660   12.0590   75.6120 C.2   424  HEM424      0.0000
     32  C4D      -38.4860   13.0540   74.5740 C.2   424  HEM424      0.0000
     33  CMD      -38.0570   11.8320   78.1480 C.3   424  HEM424      0.0000
     34  CAD      -39.7330   10.9270   75.4790 C.3   424  HEM424      0.0000
     35  CBD      -39.0860    9.7690   74.7930 C.3   424  HEM424      0.0000
     36  CGD      -37.8950    9.3210   75.4890 C.2   424  HEM424      0.0000
     37  O1D      -38.0050    8.6040   76.5270 O.co2 424  HEM424      0.0000
     38  O2D      -36.7830    9.6570   75.0550 O.co2 424  HEM424      0.0000
     39  NA       -37.9410   15.0700   72.4410 N.ar  424  HEM424      0.0000
     40  NB       -36.3160   17.3340   73.1410 N.2   424  HEM424      0.0000
     41  NC       -36.0390   16.3100   75.8390 N.ar  424  HEM424      0.0000
     42  ND       -37.6920   14.0360   75.0960 N.2   424  HEM424      0.0000
     43 FE        -36.9650   15.6770   74.1340 Fe    424  HEM424      0.0000
@<TRIPOS>BOND
     1    13    12   ar
     2    14    12   ar
     3    12    11    1
     4     9     7    1
     5    11    10    1
     6    19    16    1
     7     7     6   ar
     8     7     8   ar
     9    10     6    1
    10     6     5   ar
    11     2     8    2
    12     2    15    1
    13     8    39   ar
    14    16    15    1
    15    16    17    2
    16    15    40    2
    17     5    39   ar
    18     5     1    2
    19    21    20    2
    20    39    43    1
    21    17    20    1
    22    17    18    1
    23    40    18    1
    24    40    43    1
    25     1    32    1
    26    18     3    2
    27    43    42    1
    28    43    41    1
    29    32    42    2
    30    32    31    1
    31    35    34    1
    32    35    36    1
    33     3    22    1
    34    38    36   ar
    35    42    29    1
    36    34    31    1
    37    36    37   ar
    38    31    30    2
    39    41    22   ar
    40    41    25   ar
    41    22    23   ar
    42    29    30    1
    43    29     4    2
    44    30    33    1
    45    25     4    1
    46    25    24   ar
    47    23    26    1
    48    23    24   ar
    49    24    27    1
    50    27    28    2
