@<TRIPOS>MOLECULE
3hco_HEM_A_1.pdb
 43 50 0 0 0
SMALL
GASTEIGER

@<TRIPOS>ATOM
      1  CHA      -39.0470   13.2250   73.4250 C.2   426  HEM426      0.0000
      2  CHB      -37.0000   16.8430   70.9980 C.2   426  HEM426      0.0000
      3  CHC      -35.0850   18.6230   75.1130 C.2   426  HEM426      0.0000
      4  CHD      -36.5430   14.6470   77.3870 C.2   426  HEM426      0.0000
      5  C1A      -38.6970   14.0630   72.4140 C.ar  426  HEM426      0.0000
      6  C2A      -39.2070   14.0130   71.0810 C.ar  426  HEM426      0.0000
      7  C3A      -38.6490   15.0180   70.3790 C.ar  426  HEM426      0.0000
      8  C4A      -37.7620   15.7490   71.2820 C.ar  426  HEM426      0.0000
      9  CMA      -38.8840   15.3530   68.8870 C.3   426  HEM426      0.0000
     10  CAA      -40.2400   12.9530   70.6160 C.3   426  HEM426      0.0000
     11  CBA      -39.5870   11.6200   70.2850 C.3   426  HEM426      0.0000
     12  CGA      -39.0820   11.6860   68.8710 C.2   426  HEM426      0.0000
     13  O1A      -37.9530   11.2030   68.6700 O.co2 426  HEM426      0.0000
     14  O2A      -39.7890   12.1920   67.9350 O.co2 426  HEM426      0.0000
     15  C1B      -36.3760   17.6600   71.9180 C.2   426  HEM426      0.0000
     16  C2B      -35.8260   18.9650   71.6170 C.2   426  HEM426      0.0000
     17  C3B      -35.3310   19.4770   72.7630 C.2   426  HEM426      0.0000
     18  C4B      -35.5140   18.4760   73.8040 C.2   426  HEM426      0.0000
     19  CMB      -35.8670   19.6440   70.2230 C.3   426  HEM426      0.0000
     20  CAB      -34.5950   20.8330   72.9550 C.2   426  HEM426      0.0000
     21  CBB      -34.8280   21.9660   72.2570 C.2   426  HEM426      0.0000
     22  C1C      -35.2440   17.6850   76.1040 C.ar  426  HEM426      0.0000
     23  C2C      -34.7200   17.7410   77.4960 C.ar  426  HEM426      0.0000
     24  C3C      -35.1630   16.6310   78.1080 C.ar  426  HEM426      0.0000
     25  C4C      -35.9530   15.8550   77.1450 C.ar  426  HEM426      0.0000
     26  CMC      -33.8830   18.9350   77.9720 C.3   426  HEM426      0.0000
     27  CAC      -34.9450   16.1020   79.5530 C.2   426  HEM426      0.0000
     28  CBC      -34.8680   16.8890   80.5910 C.2   426  HEM426      0.0000
     29  C1D      -37.3430   13.9230   76.5380 C.2   426  HEM426      0.0000
     30  C2D      -38.0340   12.7190   76.9240 C.2   426  HEM426      0.0000
     31  C3D      -38.8170   12.3100   75.6730 C.2   426  HEM426      0.0000
     32  C4D      -38.5090   13.2800   74.6870 C.2   426  HEM426      0.0000
     33  CMD      -37.9960   12.0190   78.2940 C.3   426  HEM426      0.0000
     34  CAD      -39.7790   11.1250   75.4650 C.3   426  HEM426      0.0000
     35  CBD      -39.1910    9.9110   74.7890 C.3   426  HEM426      0.0000
     36  CGD      -38.0300    9.3630   75.5710 C.2   426  HEM426      0.0000
     37  O1D      -38.2450    8.7630   76.6540 O.co2 426  HEM426      0.0000
     38  O2D      -36.8760    9.5930   75.1320 O.co2 426  HEM426      0.0000
     39  NA       -37.8560   15.1530   72.5140 N.ar  426  HEM426      0.0000
     40  NB       -36.1810   17.3710   73.2550 N.2   426  HEM426      0.0000
     41  NC       -35.9480   16.5250   75.9520 N.ar  426  HEM426      0.0000
     42  ND       -37.6300   14.2180   75.1950 N.2   426  HEM426      0.0000
     43 FE        -36.8690   15.8160   74.2540 Fe    426  HEM426      0.0000
@<TRIPOS>BOND
     1    14    12   ar
     2    13    12   ar
     3    12    11    1
     4     9     7    1
     5    19    16    1
     6    11    10    1
     7     7     6   ar
     8     7     8   ar
     9    10     6    1
    10     2     8    2
    11     2    15    1
    12     6     5   ar
    13     8    39   ar
    14    16    15    1
    15    16    17    2
    16    15    40    2
    17    21    20    2
    18     5    39   ar
    19     5     1    2
    20    39    43    1
    21    17    20    1
    22    17    18    1
    23    40    18    1
    24    40    43    1
    25     1    32    1
    26    18     3    2
    27    43    42    1
    28    43    41    1
    29    32    42    2
    30    32    31    1
    31    35    34    1
    32    35    36    1
    33     3    22    1
    34    38    36   ar
    35    42    29    1
    36    34    31    1
    37    36    37   ar
    38    31    30    2
    39    41    22   ar
    40    41    25   ar
    41    22    23   ar
    42    29    30    1
    43    29     4    2
    44    30    33    1
    45    25     4    1
    46    25    24   ar
    47    23    26    1
    48    23    24   ar
    49    24    27    1
    50    27    28    2
