@<TRIPOS>MOLECULE
3hcp_FDE_A_1.pdb
 39 46 0 0 0
SMALL
GASTEIGER

@<TRIPOS>ATOM
      1  CHA      -38.0200   12.6900   72.8880 C.2   425  FDE425      0.0000
      2  C1A      -37.6850   12.5790   74.3230 C.2   425  FDE425      0.0000
      3  C2A      -37.9730   11.3800   75.1170 C.2   425  FDE425      0.0000
      4  CAA      -38.6290   10.1070   74.6220 C.3   425  FDE425      0.0000
      5  CBA      -40.1290   10.1390   74.6970 C.3   425  FDE425      0.0000
      6  CGA      -40.6100    8.7210   74.4520 C.2   425  FDE425      0.0000
      7  O1A      -40.1980    8.0590   73.4260 O.co2 425  FDE425      0.0000
      8  O2A      -41.3820    8.2690   75.3370 O.co2 425  FDE425      0.0000
      9  C3A      -37.4510   11.7060   76.4740 C.2   425  FDE425      0.0000
     10  CMA      -37.4970   10.8280   77.6880 C.3   425  FDE425      0.0000
     11  C4A      -36.9120   13.0850   76.2750 C.2   425  FDE425      0.0000
     12  NA       -37.0740   13.5570   75.0170 N.2   425  FDE425      0.0000
     13  CHB      -36.3020   13.9700   77.0800 C.2   425  FDE425      0.0000
     14  C1B      -35.6870   15.1670   77.2850 C.ar  425  FDE425      0.0000
     15  C2B      -35.0540   15.7220   78.4090 C.ar  425  FDE425      0.0000
     16  C3B      -34.6100   16.9490   77.9010 C.ar  425  FDE425      0.0000
     17  CME      -33.8480   17.9210   78.7640 C.3   425  FDE425      0.0000
     18  C4B      -35.0320   17.0160   76.5140 C.ar  425  FDE425      0.0000
     19  NB       -35.6730   15.8970   76.1760 N.ar  425  FDE425      0.0000
     20  CHC      -34.8030   18.1410   75.5850 C.2   425  FDE425      0.0000
     21  C1C      -35.2110   18.2190   74.1630 C.2   425  FDE425      0.0000
     22  C2C      -34.9360   19.3340   73.3650 C.2   425  FDE425      0.0000
     23  C3C      -35.4840   18.9660   72.1200 C.2   425  FDE425      0.0000
     24  CMF      -35.3850   19.9240   70.9630 C.3   425  FDE425      0.0000
     25  C4C      -35.9850   17.7040   72.2880 C.2   425  FDE425      0.0000
     26  NC       -35.8350   17.2280   73.5410 N.2   425  FDE425      0.0000
     27  CHD      -36.5830   16.8720   71.4700 C.2   425  FDE425      0.0000
     28  C1D      -37.1430   15.6900   71.2480 C.ar  425  FDE425      0.0000
     29  C2D      -37.6870   15.1330   70.0950 C.ar  425  FDE425      0.0000
     30  CMD      -37.8170   15.7190   68.7080 C.3   425  FDE425      0.0000
     31  C3D      -38.1550   13.8180   70.6030 C.ar  425  FDE425      0.0000
     32  CAD      -38.8300   12.6960   69.8430 C.3   425  FDE425      0.0000
     33  CBD      -37.6480   11.7950   69.4730 C.3   425  FDE425      0.0000
     34  CGD      -38.0580   10.7570   68.4670 C.2   425  FDE425      0.0000
     35  O1D      -37.3650    9.7210   68.3800 O.co2 425  FDE425      0.0000
     36  O2D      -39.0740   10.9830   67.7710 O.co2 425  FDE425      0.0000
     37  C4D      -37.7880   13.8080   71.9510 C.ar  425  FDE425      0.0000
     38  ND       -37.1850   14.9260   72.3600 N.ar  425  FDE425      0.0000
     39 FE        -36.4470   15.3910   74.2750 Fe    425  FDE425      0.0000
@<TRIPOS>BOND
     1    36    34   ar
     2    35    34   ar
     3    34    33    1
     4    30    29    1
     5    33    32    1
     6    32    31    1
     7    29    31   ar
     8    29    28   ar
     9    31    37   ar
    10    24    23    1
    11    28    27    2
    12    28    38   ar
    13    27    25    1
    14    37    38   ar
    15    37     1    2
    16    23    25    1
    17    23    22    2
    18    25    26    2
    19    38    39    1
    20     1     2    1
    21    22    21    1
    22     7     6   ar
    23    26    21    1
    24    26    39    1
    25    21    20    2
    26    39    12    1
    27    39    19    1
    28     2    12    2
    29     2     3    1
    30     6     5    1
    31     6     8   ar
    32     4     5    1
    33     4     3    1
    34    12    11    1
    35     3     9    2
    36    20    18    1
    37    19    18   ar
    38    19    14   ar
    39    11     9    1
    40    11    13    2
    41     9    10    1
    42    18    16   ar
    43    13    14    1
    44    14    15   ar
    45    16    15   ar
    46    16    17    1
