@<TRIPOS>MOLECULE
3hcr_FDE_A_1.pdb
 39 46 0 0 0
SMALL
GASTEIGER

@<TRIPOS>ATOM
      1  CHA       39.0210   13.4920   36.2320 C.2   426  FDE426      0.0000
      2  C1A       38.5350   13.5570   34.9820 C.ar  426  FDE426      0.0000
      3  C2A       39.0740   12.5830   34.0000 C.ar  426  FDE426      0.0000
      4  CAA       39.6800   11.2310   34.5740 C.3   426  FDE426      0.0000
      5  CBA       38.4200   10.4780   34.6470 C.3   426  FDE426      0.0000
      6  CGA       37.8230    9.5480   33.9470 C.2   426  FDE426      0.0000
      7  O1A       36.6240    9.4630   34.3030 O.co2 426  FDE426      0.0000
      8  O2A       38.3960    8.8680   33.0930 O.co2 426  FDE426      0.0000
      9  C3A       37.9740   12.7210   32.9450 C.ar  426  FDE426      0.0000
     10  CMA       38.2040   12.3130   31.4560 C.3   426  FDE426      0.0000
     11  C4A       37.4760   14.1350   33.1410 C.ar  426  FDE426      0.0000
     12  NA        37.7060   14.4780   34.4280 N.ar  426  FDE426      0.0000
     13  CHB       36.7730   14.9510   32.4060 C.2   426  FDE426      0.0000
     14  C1B       36.0770   16.0710   32.2950 C.2   426  FDE426      0.0000
     15  C2B       35.3250   16.6950   31.3020 C.2   426  FDE426      0.0000
     16  C3B       34.8140   17.7830   31.9990 C.2   426  FDE426      0.0000
     17  CME       33.9850   18.8920   31.3750 C.3   426  FDE426      0.0000
     18  C4B       35.2900   17.7540   33.3740 C.2   426  FDE426      0.0000
     19  NB        36.0260   16.6620   33.5030 N.2   426  FDE426      0.0000
     20  CHC       34.9780   18.8890   34.3090 C.2   426  FDE426      0.0000
     21  C1C       35.4570   18.7310   35.7100 C.ar  426  FDE426      0.0000
     22  C2C       35.1780   19.6720   36.7150 C.ar  426  FDE426      0.0000
     23  C3C       35.7480   19.1690   37.8750 C.ar  426  FDE426      0.0000
     24  CMF       35.5880   19.9660   39.1380 C.3   426  FDE426      0.0000
     25  C4C       36.2910   17.9660   37.5390 C.ar  426  FDE426      0.0000
     26  NC        36.1550   17.6880   36.2110 N.ar  426  FDE426      0.0000
     27  CHD       36.9910   17.0700   38.2290 C.2   426  FDE426      0.0000
     28  C1D       37.7540   15.9720   38.3210 C.2   426  FDE426      0.0000
     29  C2D       38.4510   15.3480   39.4010 C.2   426  FDE426      0.0000
     30  CMD       38.4600   15.7340   40.8530 C.3   426  FDE426      0.0000
     31  C3D       39.0830   14.1780   38.7400 C.2   426  FDE426      0.0000
     32  CAD       40.0220   13.0600   39.1980 C.3   426  FDE426      0.0000
     33  CBD       39.2060   11.7740   39.4800 C.3   426  FDE426      0.0000
     34  CGD       38.8520   11.8310   40.9460 C.2   426  FDE426      0.0000
     35  O1D       37.8760   11.2420   41.3870 O.co2 426  FDE426      0.0000
     36  O2D       39.5590   12.4730   41.7340 O.co2 426  FDE426      0.0000
     37  C4D       38.6820   14.3840   37.3230 C.2   426  FDE426      0.0000
     38  ND        37.8620   15.4360   37.1100 N.2   426  FDE426      0.0000
     39 FE         36.9690   16.0250   35.2770 Fe    426  FDE426      0.0000
@<TRIPOS>BOND
     1    15    16    2
     2    15    14    1
     3    17    16    1
     4    10     9    1
     5    16    18    1
     6    14    13    1
     7    14    19    2
     8    13    11    2
     9     9    11   ar
    10     9     3   ar
    11     8     6   ar
    12    11    12   ar
    13    18    19    1
    14    18    20    2
    15    19    39    1
    16     6     7   ar
    17     6     5    1
    18     3     4    1
    19     3     2   ar
    20    20    21    1
    21    12     2   ar
    22    12    39    1
    23     4     5    1
    24     2     1    2
    25    39    26    1
    26    39    38    1
    27    21    26   ar
    28    21    22   ar
    29    26    25   ar
    30     1    37    1
    31    22    23   ar
    32    38    37    2
    33    38    28    1
    34    37    31    1
    35    25    23   ar
    36    25    27    1
    37    23    24    1
    38    27    28    2
    39    28    29    1
    40    31    32    1
    41    31    29    2
    42    32    33    1
    43    29    30    1
    44    33    34    1
    45    34    35   ar
    46    34    36   ar
