@<TRIPOS>MOLECULE
3hd2_APC_A_1.pdb
 31 33 0 0 0
SMALL
GASTEIGER

@<TRIPOS>ATOM
      1  PG        15.5090    8.5530    7.4540 P.3   171  APC171      0.5389
      2  O1G       16.9520    8.9580    7.2770 O.2   171  APC171     -0.2220
      3  O2G       14.5900    9.6220    7.9920 O.3   171  APC171     -0.1143
      4  O3G       15.3690    7.2810    8.2360 O.3   171  APC171     -0.1143
      5  PB        15.4790    7.2990    4.8460 P.3   171  APC171      0.3895
      6  O1B       16.1890    6.1980    5.5960 O.3   171  APC171     -0.1388
      7  O2B       14.3660    6.9190    3.9230 O.2   171  APC171     -0.2544
      8  O3B       14.9120    8.2970    5.9440 O.3   171  APC171     -0.2026
      9  PA        17.3920    7.3790    2.5960 P.3   171  APC171      0.3820
     10  O1A       17.4220    5.9260    2.9370 O.3   171  APC171     -0.1392
     11  O2A       16.6960    7.7720    1.3330 O.2   171  APC171     -0.2548
     12  C3A       16.6860    8.2820    3.9710 C.3   171  APC171      0.2357
     13  O5'       18.9260    7.8070    2.5460 O.3   171  APC171     -0.2896
     14  C5'       19.2130    9.1870    2.2120 C.3   171  APC171      0.1836
     15  C4'       20.6590    9.4600    2.5150 C.3   171  APC171      0.1822
     16  O4'       20.8960    9.2660    3.9190 O.3   171  APC171     -0.3135
     17  C3'       21.7060    8.5830    1.8320 C.3   171  APC171      0.2184
     18  O3'       22.0510    9.0450    0.5600 O.3   171  APC171     -0.2174
     19  C2'       22.8460    8.4860    2.8260 C.3   171  APC171      0.2570
     20  O2'       24.0200    9.1360    2.3090 O.3   171  APC171     -0.2130
     21  C1'       22.3220    9.2730    4.0160 C.3   171  APC171      0.3186
     22  N9        22.6960    8.8310    5.3460 N.pl3 171  APC171     -0.1439
     23  C8        23.1730    9.6570    6.3270 C.3   171  APC171      0.3377
     24  N7        23.3810    9.0190    7.4610 N.2   171  APC171     -0.2095
     25  C5        22.9920    7.7040    7.2030 C.2   171  APC171      0.2526
     26  C6        22.9800    6.5710    8.0380 C.2   171  APC171      0.4393
     27  N6        23.3400    6.6190    9.3310 N.pl3 171  APC171      0.2180
     28  N1        22.5390    5.4120    7.5010 N.2   171  APC171      0.0021
     29  C2        22.1630    5.4100    6.2160 C.3   171  APC171      0.5254
     30  N3        22.1380    6.4120    5.3340 N.2   171  APC171     -0.0055
     31  C4        22.5630    7.5570    5.8930 C.2   171  APC171      0.3518
@<TRIPOS>BOND
     1    18    17    1
     2    11     9    2
     3    17    15    1
     4    17    19    1
     5    14    15    1
     6    14    13    1
     7    20    19    1
     8    15    16    1
     9    13     9    1
    10     9    10    1
    11     9    12    1
    12    19    21    1
    13    16    21    1
    14     7     5    2
    15    12     5    1
    16    21    22    1
    17     5     6    1
    18     5     8    1
    19    30    31    2
    20    30    29    1
    21    22    31    1
    22    22    23    1
    23    31    25    1
    24     8     1    1
    25    29    28    1
    26    23    24    1
    27    25    24    2
    28    25    26    1
    29     2     1    2
    30     1     3    1
    31     1     4    1
    32    28    26    2
    33    26    27    1
