@<TRIPOS>MOLECULE
3hd2_PE0_A_1.pdb
 12 13 0 0 0
SMALL
GASTEIGER

@<TRIPOS>ATOM
      1  C1        10.2380    4.0810    9.0580 C.2   181  PE0181      0.2510
      2  C4        10.4640    2.7970    9.7350 C.1   181  PE0181      0.2445
      3  O4        11.4730    2.1160    9.6910 O.2   181  PE0181     -0.2063
      4  N2         9.3200    2.3890   10.4540 N.2   181  PE0181     -0.2474
      5  C3         8.1370    3.0980   10.5150 C.1   181  PE0181      0.2608
      6  N6         7.1230    2.5810   11.2800 N.pl3 181  PE0181     -0.0220
      7  N1         7.9420    4.2310    9.9050 N.2   181  PE0181     -0.2679
      8  C2         8.9900    4.7310    9.1780 C.1   181  PE0181      0.1318
      9  N3         8.7800    5.9100    8.5450 N.2   181  PE0181     -0.1781
     10  C6         9.7820    6.4010    7.8400 C.2   181  PE0181      0.1312
     11  C5        11.0260    5.7490    7.7290 C.2   181  PE0181      0.1220
     12  N4        11.2420    4.5960    8.3400 N.2   181  PE0181     -0.2195
@<TRIPOS>BOND
     1    11    10    2
     2    11    12    1
     3    10     9    1
     4    12     1    2
     5     9     8    2
     6     1     8    1
     7     1     2    1
     8     8     7    2
     9     3     2    2
    10     2     4    2
    11     7     5    2
    12     4     5    2
    13     5     6    1
