@<TRIPOS>MOLECULE
3hd3_25B_A_1.pdb
 34 36 0 0 0
SMALL
GASTEIGER

@<TRIPOS>ATOM
      1  O38       11.8830    9.8610   -1.1400 O.2   216  25B216     -0.1686
      2  S29       11.8640   10.0990   -2.5040 S.O2  216  25B216      0.0087
      3  O37       12.6370   11.2050   -3.0040 O.2   216  25B216     -0.1686
      4  C29       10.2770   10.4000   -2.9020 C.ar  216  25B216      0.1057
      5  C30        9.7730   11.6850   -3.0470 C.ar  216  25B216      0.0183
      6  C31        8.4080   11.9150   -3.3560 C.ar  216  25B216      0.0013
      7  C32        7.5130   10.8540   -3.5240 C.ar  216  25B216      0.0001
      8  C33        8.0060    9.5920   -3.3830 C.ar  216  25B216      0.0013
      9  C34        9.3510    9.3850   -3.0340 C.ar  216  25B216      0.0183
     10  C37       12.2800    8.6390   -3.2920 C.3   216  25B216      0.1577
     11  C10       13.7760    8.4370   -3.4830 C.3   216  25B216      0.0474
     12  C11       14.2770    8.5070   -4.9360 C.3   216  25B216      0.0971
     13  C20       13.8030    9.7730   -5.7090 C.3   216  25B216      0.0217
     14  C21       14.5880    9.8870   -7.0000 C.3   216  25B216      0.0018
     15  C23       14.2070   11.0790   -7.9180 C.3   216  25B216      0.0001
     16  C24       14.0810   12.3430   -7.1400 C.3   216  25B216      0.0000
     17  N12       13.8070    7.2450   -5.5640 N.am  216  25B216     -0.2071
     18  C13       14.5920    6.2590   -6.0350 C.2   216  25B216      0.2413
     19  O39       15.8950    6.3690   -6.0580 O.2   216  25B216     -0.2733
     20  C14       13.9520    4.9830   -6.5790 C.3   216  25B216      0.0854
     21  C15       14.0920    3.8990   -5.4990 C.3   216  25B216      0.0096
     22  C16       13.5000    2.5650   -5.9530 C.3   216  25B216      0.0005
     23  C17       13.9850    2.1510   -7.3280 C.3   216  25B216      0.0005
     24  C18       13.8590    3.2590   -8.3500 C.3   216  25B216      0.0082
     25  C19       14.5860    4.5670   -7.8820 C.3   216  25B216      0.0706
     26  C39       14.5000    5.6630   -8.8880 C.2   216  25B216      0.1731
     27  O41       13.4190    6.3100   -9.0420 O.2   216  25B216     -0.2913
     28  C40       15.7190    6.0180   -9.6900 C.ar  216  25B216      0.0348
     29  C41       16.8360    5.1640   -9.7890 C.ar  216  25B216      0.0037
     30  C45       15.7050    7.2060  -10.3630 C.ar  216  25B216      0.0037
     31  C44       16.8140    7.5530  -11.1340 C.ar  216  25B216      0.0115
     32  C43       17.8720    6.7070  -11.2250 C.ar  216  25B216      0.0577
     33 CL22       19.2520    7.2880  -12.1850 Cl    216  25B216     -0.0822
     34  C42       17.9290    5.5080  -10.5660 C.ar  216  25B216      0.0115
@<TRIPOS>BOND
     1    33    32    1
     2    32    31   ar
     3    32    34   ar
     4    31    30   ar
     5    34    29   ar
     6    30    28   ar
     7    29    28   ar
     8    28    26    1
     9    27    26    2
    10    26    25    1
    11    24    25    1
    12    24    23    1
    13    15    16    1
    14    15    14    1
    15    25    20    1
    16    23    22    1
    17    14    13    1
    18    20    18    1
    19    20    21    1
    20    19    18    2
    21    18    17   am
    22    22    21    1
    23    13    12    1
    24    17    12    1
    25    12    11    1
    26     7     8   ar
    27     7     6   ar
    28    11    10    1
    29     8     9   ar
    30     6     5   ar
    31    10     2    1
    32     5     4   ar
    33     9     4   ar
    34     3     2    2
    35     4     2    1
    36     2     1    2
