@<TRIPOS>MOLECULE
3hd7_GGG_A_1.pdb
 13 12 0 0 0
SMALL
GASTEIGER

@<TRIPOS>ATOM
      1  N1       141.9150   13.7840   83.2430 N.3     1  GGG1       -0.1210
      2  CA1      140.7640   14.6070   83.5710 C.3     1  GGG1        0.1956
      3  C1       141.1320   15.5810   84.6670 C.2     1  GGG1        0.2612
      4  O1       142.3040   15.6870   85.0160 O.2     1  GGG1       -0.2717
      5  N2       140.1550   16.2980   85.2160 N.am    1  GGG1       -0.1942
      6  CA2      138.7660   16.2040   84.8100 C.3     1  GGG1        0.2014
      7  C2       137.9390   17.1900   85.6180 C.2     1  GGG1        0.2640
      8  O2       137.7910   17.0380   86.8320 O.2     1  GGG1       -0.2714
      9  N3       137.4080   18.2080   84.9460 N.am    1  GGG1       -0.1917
     10  CA3      136.6320   19.2430   85.6080 C.3     1  GGG1        0.2285
     11  C3       135.6360   19.9250   84.6880 C.2     1  GGG1        0.3865
     12  O3       135.2180   19.3660   83.6730 O.co2   1  GGG1       -0.2437
     13  O        135.2140   21.0560   84.9340 O.co2   1  GGG1       -0.2437
@<TRIPOS>BOND
     1     1     2    1
     2     2     3    1
     3    12    11   ar
     4     3     4    2
     5     3     5   am
     6    11    13   ar
     7    11    10    1
     8     6     5    1
     9     6     7    1
    10     9    10    1
    11     9     7   am
    12     7     8    2
