@<TRIPOS>MOLECULE
3hda_III_Z_1.pdb
 38 37 0 0 0
SMALL
GASTEIGER

@<TRIPOS>ATOM
      1  N         35.4720   55.5700   54.6970 N.3     1  ALA1       -0.1231
      2  CA        34.4640   55.7780   53.6610 C.3     1  ALA1        0.1694
      3  C         34.4530   54.6340   52.6450 C.2     1  ALA1        0.2592
      4  O         35.5010   54.1140   52.2600 O.2     1  ALA1       -0.2718
      5  CB        34.6720   57.1180   52.9670 C.3     1  ALA1        0.0304
      6  N         33.2530   54.2560   52.2160 N.am    2  GLU2       -0.1966
      7  CA        33.0710   53.0720   51.3870 C.3     2  GLU2        0.1733
      8  C         32.8500   53.4090   49.9180 C.2     2  GLU2        0.2616
      9  O         32.1650   54.3770   49.5830 O.2     2  GLU2       -0.2715
     10  CB        31.8850   52.2510   51.8940 C.3     2  GLU2        0.0429
     11  CG        31.8320   50.8500   51.3280 C.3     2  GLU2        0.1163
     12  CD        30.4180   50.3400   51.1730 C.2     2  GLU2        0.3649
     13  OE1       29.6360   50.9810   50.4410 O.co2   2  GLU2       -0.2457
     14  OE2       30.0910   49.2930   51.7720 O.co2   2  GLU2       -0.2457
     15  N         33.4400   52.6020   49.0460 N.am    3  ALA3       -0.1963
     16  CA        33.1500   52.6630   47.6230 C.3     3  ALA3        0.1728
     17  C         32.6260   51.2990   47.2230 C.2     3  ALA3        0.2616
     18  O         33.2270   50.2880   47.5640 O.2     3  ALA3       -0.2715
     19  CB        34.4000   53.0080   46.8260 C.3     3  ALA3        0.0334
     20  N         31.4960   51.2700   46.5230 N.am    4  ALA4       -0.1963
     21  CA        30.9360   50.0170   46.0240 C.3     4  ALA4        0.1728
     22  C         31.2360   49.8310   44.5320 C.2     4  ALA4        0.2616
     23  O         31.4020   50.8050   43.7980 O.2     4  ALA4       -0.2715
     24  CB        29.4280   49.9570   46.2920 C.3     4  ALA4        0.0334
     25  N         31.3160   48.5770   44.0930 N.am    5  GLN5       -0.1963
     26  CA        31.4970   48.2580   42.6760 C.3     5  GLN5        0.1733
     27  C         30.1760   47.8870   42.0030 C.2     5  GLN5        0.2616
     28  O         29.3880   47.1150   42.5480 O.2     5  GLN5       -0.2715
     29  CB        32.5090   47.1230   42.5030 C.3     5  GLN5        0.0408
     30  CG        33.7570   47.5130   41.7360 C.3     5  GLN5        0.0908
     31  CD        33.6500   47.1850   40.2590 C.2     5  GLN5        0.2608
     32  OE1       32.9710   46.2330   39.8730 O.2     5  GLN5       -0.2717
     33  NE2       34.3250   47.9660   39.4250 N.am    5  GLN5       -0.0878
     34  N         29.9470   48.4390   40.8150 N.am    6  ALA6       -0.1977
     35  CA        28.7220   48.1840   40.0580 C.3     6  ALA6        0.1597
     36  C         28.5140   46.7000   39.7260 C.2     6  ALA6        0.2287
     37  O         29.4490   45.9880   39.3500 O.2     6  ALA6       -0.2864
     38  CB        28.7040   49.0270   38.7880 C.3     6  ALA6        0.0319
@<TRIPOS>BOND
     1    38    35    1
     2    37    36    2
     3    33    31   am
     4    36    35    1
     5    32    31    2
     6    35    34    1
     7    31    30    1
     8    34    27   am
     9    30    29    1
    10    27    28    2
    11    27    26    1
    12    29    26    1
    13    26    25    1
    14    23    22    2
    15    25    22   am
    16    22    21    1
    17    21    24    1
    18    21    20    1
    19    20    17   am
    20    19    16    1
    21    17    18    2
    22    17    16    1
    23    16    15    1
    24    15     8   am
    25     9     8    2
    26     8     7    1
    27    13    12   ar
    28    12    11    1
    29    12    14   ar
    30    11    10    1
    31     7    10    1
    32     7     6    1
    33     6     3   am
    34     4     3    2
    35     3     2    1
    36     5     2    1
    37     2     1    1
