@<TRIPOS>MOLECULE
3hdb_III_L_1.pdb
 26 25 0 0 0
SMALL
GASTEIGER

@<TRIPOS>ATOM
      1  N         -5.4140   39.5840   59.0140 N.3     1  LYS1       -0.1231
      2  CA        -4.1920   40.2820   58.5090 C.3     1  LYS1        0.1693
      3  C         -3.9850   40.0050   57.0210 C.2     1  LYS1        0.2592
      4  O         -4.1270   38.8680   56.5690 O.2     1  LYS1       -0.2718
      5  CB        -2.9620   39.8750   59.3290 C.3     1  LYS1        0.0285
      6  CG        -3.0850   40.1940   60.8270 C.3     1  LYS1        0.0035
      7  CD        -2.7590   41.6610   61.1500 C.3     1  LYS1        0.0206
      8  CE        -1.2710   41.8340   61.4680 C.3     1  LYS1        0.1093
      9  NZ        -0.9320   43.2280   61.8700 N.3     1  LYS1       -0.1314
     10  N         -3.6540   41.0480   56.2620 N.am    2  ASN2       -0.1960
     11  CA        -3.6460   40.9580   54.8020 C.3     2  ASN2        0.1819
     12  C         -2.3290   41.3280   54.1060 C.2     2  ASN2        0.2622
     13  O         -1.4310   41.9200   54.7040 O.2     2  ASN2       -0.2715
     14  CB        -4.8270   41.7490   54.2120 C.3     2  ASN2        0.1195
     15  CG        -4.6810   43.2560   54.3850 C.2     2  ASN2        0.2630
     16  OD1       -4.2290   43.7400   55.4240 O.2     2  ASN2       -0.2716
     17  ND2       -5.0780   44.0050   53.3620 N.am    2  ASN2       -0.0877
     18  N         -2.2470   40.9890   52.8230 N.am    3  LEU3       -0.1941
     19  CA        -1.0450   41.1690   52.0240 C.3     3  LEU3        0.1978
     20  C         -1.4210   41.7890   50.6780 C.2     3  LEU3        0.3842
     21  O         -2.2410   41.2380   49.9430 O.co2   3  LEU3       -0.2437
     22  CB        -0.3560   39.8160   51.7950 C.3     3  LEU3        0.0333
     23  CG        -0.6070   38.5870   52.6790 C.3     3  LEU3        0.0023
     24  CD1       -1.9490   37.9290   52.3870 C.3     3  LEU3        0.0001
     25  CD2        0.4840   37.5800   52.4520 C.3     3  LEU3        0.0001
     26  OXT       -0.9360   42.8500   50.2760 O.co2   3  LEU3       -0.2437
@<TRIPOS>BOND
     1    21    20   ar
     2    26    20   ar
     3    20    19    1
     4    22    19    1
     5    22    23    1
     6    19    18    1
     7    24    23    1
     8    25    23    1
     9    18    12   am
    10    17    15   am
    11    12    13    2
    12    12    11    1
    13    14    15    1
    14    14    11    1
    15    15    16    2
    16    11    10    1
    17    10     3   am
    18     4     3    2
    19     3     2    1
    20     2     1    1
    21     2     5    1
    22     5     6    1
    23     6     7    1
    24     7     8    1
    25     8     9    1
