@<TRIPOS>MOLECULE
3hdh_NAD_A_1.pdb
 44 48 0 0 0
SMALL
GASTEIGER

@<TRIPOS>ATOM
      1  PA        53.0290  -19.4710    9.9610 P.3   350  NAD350      0.2189
      2  O1A       52.0860  -19.2330    8.8750 O.2   350  NAD350     -0.5170
      3  O2A       53.2520  -18.4220   11.0580 O.3   350  NAD350     -0.4371
      4  O5B       54.5290  -19.7020    9.4480 O.3   350  NAD350     -0.3112
      5  C5B       54.9110  -20.8140    8.5770 C.3   350  NAD350      0.1813
      6  C4B       56.3600  -20.5570    8.2450 C.3   350  NAD350      0.1821
      7  O4B       56.7180  -21.7000    7.3740 O.3   350  NAD350     -0.3135
      8  C3B       56.6400  -19.3130    7.3320 C.3   350  NAD350      0.2184
      9  O3B       57.6550  -18.4480    8.0440 O.3   350  NAD350     -0.2174
     10  C2B       57.1400  -19.7890    5.9970 C.3   350  NAD350      0.2570
     11  O2B       58.0280  -19.0890    5.2750 O.3   350  NAD350     -0.2130
     12  C1B       57.5950  -21.2270    6.3810 C.3   350  NAD350      0.3186
     13  N9A       57.4390  -22.1510    5.3000 N.pl3 350  NAD350     -0.1439
     14  C8A       56.4310  -22.5090    4.4630 C.3   350  NAD350      0.3377
     15  N7A       56.7070  -23.4450    3.5820 N.2   350  NAD350     -0.2095
     16  C5A       57.9790  -23.7800    3.8080 C.2   350  NAD350      0.2526
     17  C6A       58.8710  -24.7880    3.1390 C.2   350  NAD350      0.4393
     18  N6A       58.4850  -25.5470    2.1440 N.pl3 350  NAD350      0.2180
     19  N1A       60.1190  -24.8060    3.6960 N.2   350  NAD350      0.0021
     20  C2A       60.6220  -24.0730    4.7050 C.3   350  NAD350      0.5254
     21  N3A       59.8080  -23.1040    5.3770 N.2   350  NAD350     -0.0055
     22  C4A       58.4970  -23.0030    4.8710 C.2   350  NAD350      0.3518
     23  O3        52.6870  -20.8010   10.6670 O.3   350  NAD350     -0.2703
     24  PN        52.4240  -21.4500   12.0590 P.3   350  NAD350      0.2189
     25  O1N       51.3090  -20.7520   12.7480 O.2   350  NAD350     -0.5170
     26  O2N       53.7510  -21.4770   12.7900 O.3   350  NAD350     -0.4371
     27  O5D       51.8590  -22.9420   11.8370 O.3   350  NAD350     -0.3112
     28  C5D       52.8360  -23.8060   11.1540 C.3   350  NAD350      0.1813
     29  C4D       52.4800  -25.2070   11.4990 C.3   350  NAD350      0.1799
     30  O4D       52.1660  -25.3050   12.9640 O.3   350  NAD350     -0.3327
     31  C3D       51.1950  -25.8130   10.8250 C.3   350  NAD350      0.2158
     32  O3D       51.4540  -27.1610   10.3570 O.3   350  NAD350     -0.2175
     33  C2D       50.0680  -25.8020   11.8660 C.3   350  NAD350      0.2309
     34  O2D       49.1050  -26.8130   11.7210 O.3   350  NAD350     -0.2158
     35  C1D       50.8530  -25.9280   13.2060 C.3   350  NAD350      0.2263
     36  N1N       50.2930  -25.2920   14.4280 N.pl3 350  NAD350     -0.2787
     37  C2N       49.7770  -24.0080   14.4280 C.3   350  NAD350      0.1244
     38  C3N       49.2820  -23.5240   15.5980 C.2   350  NAD350      0.0544
     39  C7N       48.7090  -22.1310   15.6380 C.2   350  NAD350      0.2818
     40  O7N       47.6280  -21.8030   16.0990 O.2   350  NAD350     -0.2670
     41  N7N       49.5930  -21.1830   15.0580 N.am  350  NAD350     -0.0839
     42  C4N       49.2650  -24.2890   16.8620 C.2   350  NAD350      0.0033
     43  C5N       49.8170  -25.5820   16.7380 C.2   350  NAD350      0.0157
     44  C6N       50.3200  -26.1090   15.6120 C.2   350  NAD350      0.0633
@<TRIPOS>BOND
     1    18    17    1
     2    17    19    2
     3    17    16    1
     4    15    16    2
     5    15    14    1
     6    19    20    1
     7    16    22    1
     8    14    13    1
     9    20    21    1
    10    22    13    1
    11    22    21    2
    12    11    10    1
    13    13    12    1
    14    10    12    1
    15    10     8    1
    16    12     7    1
    17     8     9    1
    18     8     6    1
    19     7     6    1
    20     6     5    1
    21     5     4    1
    22     2     1    2
    23     4     1    1
    24     1    23    1
    25     1     3    1
    26    32    31    1
    27    23    24    1
    28    31    29    1
    29    31    33    1
    30    28    29    1
    31    28    27    1
    32    29    30    1
    33    34    33    1
    34    27    24    1
    35    33    35    1
    36    24    25    2
    37    24    26    1
    38    30    35    1
    39    35    36    1
    40    36    37    1
    41    36    44    1
    42    37    38    1
    43    41    39   am
    44    38    39    1
    45    38    42    2
    46    44    43    2
    47    39    40    2
    48    43    42    1
