@<TRIPOS>MOLECULE
3hdl_MES_A_1.pdb
 12 12 0 0 0
SMALL
GASTEIGER

@<TRIPOS>ATOM
      1  O1       -13.4180   54.1760    1.7150 O.3   319  MES319     -0.3508
      2  C2       -12.9250   55.1420    2.6430 C.3   319  MES319      0.1595
      3  C3       -13.3970   56.5510    2.3120 C.3   319  MES319      0.1047
      4  N4       -14.8470   56.5260    2.2200 N.3   319  MES319     -0.2670
      5  C5       -15.5430   55.4710    1.4970 C.3   319  MES319      0.1047
      6  C6       -14.8420   54.1180    1.6320 C.3   319  MES319      0.1595
      7  C7       -15.6440   57.5970    2.8220 C.3   319  MES319      0.0940
      8  C8       -15.0090   58.9110    2.3810 C.3   319  MES319      0.1225
      9  S        -16.1320   60.1430    2.3010 S.3   319  MES319     -0.1946
     10  O1S      -17.4940   59.6310    2.5560 O.3   319  MES319     -0.3074
     11  O2S      -15.8660   61.1720    3.3220 O.3   319  MES319     -0.3074
     12  O3S      -16.0550   60.6950    0.9310 O.3   319  MES319     -0.3074
@<TRIPOS>BOND
     1    12     9    1
     2     5     6    1
     3     5     4    1
     4     6     1    1
     5     1     2    1
     6     4     3    1
     7     4     7    1
     8     9     8    1
     9     9    10    1
    10     9    11    1
    11     3     2    1
    12     8     7    1
