@<TRIPOS>MOLECULE
3hdl_HEM_A_1.pdb
 43 50 0 0 0
SMALL
GASTEIGER

@<TRIPOS>ATOM
      1  CHA       -9.5590   50.4950   10.9280 C.2   305  HEM305      0.0000
      2  CHB       -9.1040   49.6090    6.1770 C.2   305  HEM305      0.0000
      3  CHC       -5.2630   46.7940    7.1450 C.2   305  HEM305      0.0000
      4  CHD       -5.2140   48.4000   11.7060 C.2   305  HEM305      0.0000
      5  C1A       -9.7630   50.5040    9.5660 C.ar  305  HEM305      0.0000
      6  C2A      -10.7860   51.2560    8.8730 C.ar  305  HEM305      0.0000
      7  C3A      -10.6710   51.0160    7.5630 C.ar  305  HEM305      0.0000
      8  C4A       -9.5630   50.1050    7.3790 C.ar  305  HEM305      0.0000
      9  CMA      -11.5550   51.5970    6.4360 C.3   305  HEM305      0.0000
     10  CAA      -11.8280   52.1570    9.5600 C.3   305  HEM305      0.0000
     11  CBA      -11.3900   53.6130    9.4640 C.3   305  HEM305      0.0000
     12  CGA      -12.5530   54.4720    9.8840 C.2   305  HEM305      0.0000
     13  O1A      -13.5540   54.5270    9.1280 O.co2 305  HEM305      0.0000
     14  O2A      -12.4820   55.1000   10.9710 O.co2 305  HEM305      0.0000
     15  C1B       -8.0810   48.7020    6.0410 C.2   305  HEM305      0.0000
     16  C2B       -7.7470   47.9740    4.8340 C.2   305  HEM305      0.0000
     17  C3B       -6.7050   47.1800    5.0980 C.2   305  HEM305      0.0000
     18  C4B       -6.3130   47.3970    6.4830 C.2   305  HEM305      0.0000
     19  CMB       -8.5100   48.0810    3.4930 C.3   305  HEM305      0.0000
     20  CAB       -6.0280   46.2280    4.0870 C.2   305  HEM305      0.0000
     21  CBB       -5.4870   45.0830    4.5170 C.2   305  HEM305      0.0000
     22  C1C       -4.8300   47.0900    8.4220 C.ar  305  HEM305      0.0000
     23  C2C       -3.5330   46.7820    9.0050 C.ar  305  HEM305      0.0000
     24  C3C       -3.5200   47.2500   10.2630 C.ar  305  HEM305      0.0000
     25  C4C       -4.8190   47.8370   10.5180 C.ar  305  HEM305      0.0000
     26  CMC       -2.3690   46.0780    8.2690 C.3   305  HEM305      0.0000
     27  CAC       -2.3990   47.1810   11.3320 C.2   305  HEM305      0.0000
     28  CBC       -1.4750   46.2120   11.3740 C.2   305  HEM305      0.0000
     29  C1D       -6.4190   49.0110   11.9540 C.2   305  HEM305      0.0000
     30  C2D       -6.9050   49.3740   13.2660 C.2   305  HEM305      0.0000
     31  C3D       -8.2710   50.0110   13.0240 C.2   305  HEM305      0.0000
     32  C4D       -8.4600   50.0020   11.5890 C.2   305  HEM305      0.0000
     33  CMD       -6.2120   49.1370   14.6260 C.3   305  HEM305      0.0000
     34  CAD       -9.2060   50.6210   14.0920 C.3   305  HEM305      0.0000
     35  CBD       -8.5910   52.0090   14.2940 C.3   305  HEM305      0.0000
     36  CGD       -9.2140   52.7910   15.4250 C.2   305  HEM305      0.0000
     37  O1D       -8.7690   53.9470   15.6540 O.co2 305  HEM305      0.0000
     38  O2D      -10.1370   52.2660   16.0940 O.co2 305  HEM305      0.0000
     39  NA        -9.0250   49.8200    8.6220 N.ar  305  HEM305      0.0000
     40  NB        -7.1840   48.3280    7.0220 N.2   305  HEM305      0.0000
     41  NC        -5.5890   47.7400    9.3800 N.ar  305  HEM305      0.0000
     42  ND        -7.3590   49.3950   11.0020 N.2   305  HEM305      0.0000
     43 FE         -7.2890   48.8210    9.0130 Fe    305  HEM305      0.0000
@<TRIPOS>BOND
     1    19    16    1
     2    20    21    2
     3    20    17    1
     4    16    17    2
     5    16    15    1
     6    17    18    1
     7    15     2    1
     8    15    40    2
     9     2     8    2
    10     9     7    1
    11    18    40    1
    12    18     3    2
    13    40    43    1
    14     3    22    1
    15     8     7   ar
    16     8    39   ar
    17     7     6   ar
    18    26    23    1
    19    22    23   ar
    20    22    41   ar
    21    39    43    1
    22    39     5   ar
    23     6    10    1
    24     6     5   ar
    25    23    24   ar
    26    43    41    1
    27    43    42    1
    28    13    12   ar
    29    41    25   ar
    30    11    10    1
    31    11    12    1
    32     5     1    2
    33    12    14   ar
    34    24    25   ar
    35    24    27    1
    36    25     4    1
    37     1    32    1
    38    42    32    2
    39    42    29    1
    40    27    28    2
    41    32    31    1
    42     4    29    2
    43    29    30    1
    44    31    30    2
    45    31    34    1
    46    30    33    1
    47    34    35    1
    48    35    36    1
    49    36    37   ar
    50    36    38   ar
