@<TRIPOS>MOLECULE
3hdm_MMG_A_1.pdb
 24 27 0 0 0
SMALL
GASTEIGER

@<TRIPOS>ATOM
      1  C4        39.0200   29.8990   66.5850 C.ar  500  MMG500      0.0000
      2  C5        36.6620   30.0730   66.5510 C.ar  500  MMG500      0.0000
      3  C6        34.2760   35.7290   70.3390 C.ar  500  MMG500      0.0003
      4  C7        34.0840   34.0980   68.6180 C.ar  500  MMG500      0.0003
      5  C8        33.0440   36.2450   70.0060 C.ar  500  MMG500      0.0066
      6  C10       36.8460   32.2620   68.4080 C.2   500  MMG500      0.0116
      7  C13       37.8680   30.4540   67.1030 C.ar  500  MMG500      0.0015
      8  C15       32.3410   35.6750   68.9710 C.ar  500  MMG500      0.0798
      9  C17       36.9310   33.1240   69.4870 C.2   500  MMG500      0.0640
     10  C20       31.0330   36.2380   68.6240 C.2   500  MMG500      0.3878
     11  C1        37.7680   28.6270   65.0120 C.ar  500  MMG500      0.0000
     12  C2        38.9780   28.9930   65.5500 C.ar  500  MMG500      0.0000
     13  C3        36.6060   29.1700   65.5130 C.ar  500  MMG500      0.0000
     14  C9        32.8490   34.6050   68.2700 C.ar  500  MMG500      0.0066
     15  C11       36.7560   34.6360   71.1520 C.2   500  MMG500      0.1102
     16  C12       38.9790   31.4450   69.0670 C.2   500  MMG500      0.1095
     17  C14       34.8060   34.6560   69.6540 C.ar  500  MMG500      0.0022
     18  C16       37.9060   31.4020   68.2000 C.2   500  MMG500      0.0206
     19  C18       36.0990   34.1360   70.0480 C.2   500  MMG500      0.0293
     20  C19       38.0660   33.0500   70.2730 C.1   500  MMG500      0.0353
     21  N21       37.9410   33.9670   71.2710 N.2   500  MMG500     -0.1922
     22  N22       39.1210   32.2490   70.1290 N.2   500  MMG500     -0.1922
     23  O23       30.7070   35.8220   67.3760 O.co2 500  MMG500     -0.2406
     24  O24       30.3780   36.9660   69.3570 O.co2 500  MMG500     -0.2406
@<TRIPOS>BOND
     1    11    13   ar
     2    11    12   ar
     3    13     2   ar
     4    12     1   ar
     5     2     7   ar
     6     1     7   ar
     7     7    18    1
     8    23    10   ar
     9    18     6    1
    10    18    16    2
    11    14     4   ar
    12    14     8   ar
    13     6     9    2
    14     4    17   ar
    15    10     8    1
    16    10    24   ar
    17     8     5   ar
    18    16    22    1
    19     9    19    1
    20     9    20    1
    21    17    19    1
    22    17     3   ar
    23     5     3   ar
    24    19    15    2
    25    22    20    2
    26    20    21    2
    27    15    21    1
