@<TRIPOS>MOLECULE
3hdn_GMG_A_1.pdb
 29 33 0 0 0
SMALL
GASTEIGER

@<TRIPOS>ATOM
      1  C4        40.6520   27.1010   66.8400 C.ar    1  GMG1        0.0000
      2  C5        32.4780   33.2090   67.6890 C.ar    1  GMG1       -0.0037
      3  C6        32.3660   35.1410   69.0830 C.ar    1  GMG1       -0.0037
      4  C7        37.6870   28.5700   65.3080 C.ar    1  GMG1        0.0000
      5  C8        33.7510   32.9460   68.1490 C.ar    1  GMG1       -0.0002
      6  C10       37.4210   29.5880   66.1990 C.ar    1  GMG1        0.0000
      7  C13       36.1510   34.2520   70.6560 C.2     1  GMG1        0.1102
      8  C15       30.4110   34.5810   67.6550 C.3     1  GMG1        0.1404
      9  C17       38.7640   27.7360   65.5160 C.ar    1  GMG1        0.0000
     10  C20       38.2190   29.7980   67.3070 C.ar    1  GMG1        0.0015
     11  C21       37.9670   30.8690   68.2560 C.2     1  GMG1        0.0206
     12  C22       36.6610   32.5760   69.2280 C.2     1  GMG1        0.0640
     13  C24       37.7250   32.7790   70.0870 C.1     1  GMG1        0.0353
     14  C1        40.1200   25.8860   64.8570 C.ar    1  GMG1        0.0000
     15  C2        40.9260   26.0790   65.9580 C.ar    1  GMG1        0.0000
     16  C3        39.0390   26.7130   64.6340 C.ar    1  GMG1        0.0000
     17  C9        33.6360   34.8760   69.5430 C.ar    1  GMG1       -0.0002
     18  C11       39.2930   28.9510   67.4980 C.ar    1  GMG1        0.0000
     19  C12       36.7810   31.5790   68.2710 C.2     1  GMG1        0.0116
     20  C14       38.9400   31.1910   69.1790 C.2     1  GMG1        0.1095
     21  C16       31.7840   34.3050   68.1550 C.ar    1  GMG1       -0.0109
     22  C18       34.3360   33.7800   69.0800 C.ar    1  GMG1        0.0021
     23  C19       39.5700   27.9280   66.6190 C.ar    1  GMG1        0.0000
     24  C23       35.6600   33.5200   69.5970 C.2     1  GMG1        0.0293
     25  C25       30.4050   35.7600   66.7370 C.2     1  GMG1        0.3692
     26  N26       37.4020   33.7930   70.9370 N.2     1  GMG1       -0.1922
     27  N27       38.8870   32.1310   70.1220 N.2     1  GMG1       -0.1922
     28  O28       29.2220   36.4160   66.8310 O.co2   1  GMG1       -0.2453
     29  O29       31.3270   36.0910   66.0040 O.co2   1  GMG1       -0.2453
@<TRIPOS>BOND
     1    16    14   ar
     2    16     9   ar
     3    14    15   ar
     4     4     9   ar
     5     4     6   ar
     6     9    23   ar
     7    15     1   ar
     8    29    25   ar
     9     6    10   ar
    10    23     1   ar
    11    23    18   ar
    12    25    28   ar
    13    25     8    1
    14    10    18   ar
    15    10    11    1
    16     8    21    1
    17     2     5   ar
    18     2    21   ar
    19     5    22   ar
    20    21     3   ar
    21    11    19    1
    22    11    20    2
    23    19    12    2
    24    22    17   ar
    25    22    24    1
    26     3    17   ar
    27    20    27    1
    28    12    24    1
    29    12    13    1
    30    24     7    2
    31    13    27    2
    32    13    26    2
    33     7    26    1
