@<TRIPOS>MOLECULE
3hdq_GDU_A_1.pdb
 36 38 0 0 0
SMALL
GASTEIGER

@<TRIPOS>ATOM
      1  N1        19.5900 -105.8230   74.6460 N.am  500  GDU500     -0.1766
      2  C2        18.5230 -105.4550   74.1070 C.1   500  GDU500      0.2845
      3  N3        18.1650 -104.5740   73.2740 N.2   500  GDU500     -0.2452
      4  C4        19.1890 -103.8280   72.8240 C.1   500  GDU500      0.2182
      5  C5        20.5430 -104.1210   73.3510 C.2   500  GDU500      0.1242
      6  C6        20.6880 -105.1210   74.2430 C.2   500  GDU500      0.0929
      7  O2        17.4200 -106.2410   74.5350 O.2   500  GDU500     -0.1918
      8  O4        19.0140 -102.9500   71.9820 O.2   500  GDU500     -0.2085
      9  C1D       19.6970 -106.9160   75.5700 C.3   500  GDU500      0.2401
     10  C2D       19.7640 -108.3540   75.0020 C.3   500  GDU500      0.2319
     11  O2D       19.2690 -109.3250   75.9160 O.3   500  GDU500     -0.2157
     12  C3D       21.2540 -108.4900   74.7660 C.3   500  GDU500      0.2158
     13  C4D       21.7550 -107.9210   76.0920 C.3   500  GDU500      0.1799
     14  O4D       20.8630 -106.8490   76.4130 O.3   500  GDU500     -0.3320
     15  O3D       21.6210 -109.8500   74.5500 O.3   500  GDU500     -0.2175
     16  C5D       23.2480 -107.6440   76.1870 C.3   500  GDU500      0.1813
     17  O5D       23.4760 -106.6240   75.1970 O.3   500  GDU500     -0.3112
     18  PA        24.8560 -106.4940   74.4050 P.3   500  GDU500      0.2189
     19  O1A       24.8660 -105.1710   73.7200 O.2   500  GDU500     -0.5170
     20  O2A       25.9490 -106.5360   75.3900 O.3   500  GDU500     -0.4371
     21  O3A       24.9540 -107.6060   73.2750 O.3   500  GDU500     -0.2703
     22  PB        26.3360 -108.1600   72.7380 P.3   500  GDU500      0.2208
     23  O1B       25.8790 -109.1690   71.7520 O.2   500  GDU500     -0.5170
     24  O2B       27.2040 -108.8650   73.7130 O.3   500  GDU500     -0.4371
     25  O3B       27.1890 -107.0770   71.9140 O.3   500  GDU500     -0.2857
     26  C1'       28.5730 -106.9990   71.5190 C.3   500  GDU500      0.2742
     27  C2'       29.3940 -106.4060   72.6830 C.3   500  GDU500      0.2409
     28  C3'       28.6270 -105.1440   73.1420 C.3   500  GDU500      0.2198
     29  C4'       28.7360 -104.0840   72.0050 C.3   500  GDU500      0.2144
     30  C5'       28.2580 -104.7330   70.6760 C.3   500  GDU500      0.1835
     31  C6'       28.5850 -103.8820   69.4160 C.3   500  GDU500      0.2142
     32  O2'       29.6070 -107.3710   73.7300 O.3   500  GDU500     -0.2149
     33  O3'       29.1860 -104.6830   74.3930 O.3   500  GDU500     -0.2174
     34  O4'       30.1130 -103.6600   71.9220 O.3   500  GDU500     -0.2176
     35  O5'       28.6390 -106.1060   70.3800 O.3   500  GDU500     -0.3254
     36  O6'       27.4520 -103.1060   68.9580 O.3   500  GDU500     -0.2176
@<TRIPOS>BOND
     1    36    31    1
     2    31    30    1
     3    35    30    1
     4    35    26    1
     5    30    29    1
     6    26    25    1
     7    26    27    1
     8    23    22    2
     9    25    22    1
    10    34    29    1
    11     8     4    2
    12    29    28    1
    13    27    28    1
    14    27    32    1
    15    22    21    1
    16    22    24    1
    17     4     3    2
    18     4     5    1
    19    28    33    1
    20     3     2    2
    21    21    18    1
    22     5     6    2
    23    19    18    2
    24     2     7    2
    25     2     1   am
    26     6     1    1
    27    18    17    1
    28    18    20    1
    29    15    12    1
    30     1     9    1
    31    12    10    1
    32    12    13    1
    33    10     9    1
    34    10    11    1
    35    17    16    1
    36     9    14    1
    37    13    16    1
    38    13    14    1
