@<TRIPOS>MOLECULE
3hds_III_E_1.pdb
 36 37 0 0 0
SMALL
GASTEIGER

@<TRIPOS>ATOM
      1  N         22.7620   31.5760   14.0670 N.3     2  ALA2       -0.1231
      2  CA        23.2540   32.9780   14.3820 C.3     2  ALA2        0.1694
      3  C         23.5860   33.0560   15.8490 C.2     2  ALA2        0.2593
      4  O         22.7650   32.6100   16.6430 O.2     2  ALA2       -0.2718
      5  CB        22.1500   34.0320   14.0660 C.3     2  ALA2        0.0304
      6  N         24.7490   33.6260   16.2050 N.am    3  SER3       -0.1938
      7  CA        25.1020   33.8130   17.6280 C.3     3  SER3        0.2055
      8  C         25.9270   35.0790   17.9290 C.2     3  SER3        0.2643
      9  O         26.5800   35.6340   17.0260 O.2     3  SER3       -0.2714
     10  CB        25.8390   32.5840   18.1730 C.3     3  SER3        0.2130
     11  OG        27.1970   32.5710   17.7450 O.3     3  SER3       -0.2179
     12  N         25.8630   35.5300   19.1920 N.am    4  TRP4       -0.1959
     13  CA        26.7990   36.5140   19.7680 C.3     4  TRP4        0.1768
     14  C         27.2020   36.0780   21.1810 C.2     4  TRP4        0.2620
     15  O         26.4710   35.3100   21.8120 O.2     4  TRP4       -0.2715
     16  CB        26.2200   37.9530   19.7880 C.3     4  TRP4        0.0553
     17  CG        24.9590   38.1420   20.6170 C.2     4  TRP4       -0.0136
     18  CD1       23.6660   38.2070   20.1400 C.2     4  TRP4        0.0907
     19  CD2       24.8510   38.2680   22.0530 C.3     4  TRP4        0.0819
     20  NE1       22.7930   38.3730   21.1730 N.2     4  TRP4       -0.2482
     21  CE2       23.4720   38.4030   22.3540 C.2     4  TRP4        0.0665
     22  CE3       25.7850   38.2930   23.1160 C.2     4  TRP4       -0.0164
     23  CZ2       22.9940   38.5860   23.6610 C.2     4  TRP4        0.0153
     24  CZ3       25.3030   38.4390   24.4140 C.2     4  TRP4       -0.0038
     25  CH2       23.9180   38.5850   24.6720 C.2     4  TRP4        0.0009
     26  N         28.3440   36.5610   21.6890 N.am    5  SER5       -0.1936
     27  CA        28.7580   36.2380   23.0780 C.3     5  SER5        0.2055
     28  C         29.7190   37.2610   23.6600 C.2     5  SER5        0.2642
     29  O         30.4370   37.9370   22.9230 O.2     5  SER5       -0.2714
     30  CB        29.3980   34.8500   23.1760 C.3     5  SER5        0.2130
     31  OG        30.5130   34.7520   22.3030 O.3     5  SER5       -0.2179
     32  N         29.7260   37.3580   24.9850 N.am    6  ALA6       -0.1977
     33  CA        30.6980   38.1850   25.7070 C.3     6  ALA6        0.1597
     34  C         31.9540   37.3720   26.0200 C.2     6  ALA6        0.2287
     35  O         32.1120   36.2440   25.5410 O.2     6  ALA6       -0.2864
     36  CB        30.0770   38.7030   26.9930 C.3     6  ALA6        0.0319
@<TRIPOS>BOND
     1     5     2    1
     2     1     2    1
     3     2     3    1
     4     3     6   am
     5     3     4    2
     6     6     7    1
     7     9     8    2
     8     7     8    1
     9     7    10    1
    10    11    10    1
    11     8    12   am
    12    12    13    1
    13    13    16    1
    14    13    14    1
    15    16    17    1
    16    18    17    2
    17    18    20    1
    18    17    19    1
    19    20    21    2
    20    14    26   am
    21    14    15    2
    22    26    27    1
    23    19    21    1
    24    19    22    1
    25    31    30    1
    26    21    23    1
    27    29    28    2
    28    27    30    1
    29    27    28    1
    30    22    24    2
    31    28    32   am
    32    23    25    2
    33    24    25    1
    34    32    33    1
    35    35    34    2
    36    33    34    1
    37    33    36    1
