@<TRIPOS>MOLECULE
3hdy_GDU_A_1.pdb
 36 38 0 0 0
SMALL
GASTEIGER

@<TRIPOS>ATOM
      1  N1        19.4000 -104.6720  -34.6900 N.am  500  GDU500     -0.1766
      2  C2        18.3640 -104.1550  -35.1710 C.1   500  GDU500      0.2845
      3  N3        18.0950 -103.2160  -35.9680 N.2   500  GDU500     -0.2452
      4  C4        19.1870 -102.5920  -36.4350 C.1   500  GDU500      0.2182
      5  C5        20.5000 -103.0650  -35.9770 C.2   500  GDU500      0.1242
      6  C6        20.5480 -104.0920  -35.1190 C.2   500  GDU500      0.0929
      7  O2        17.1720 -104.7960  -34.7080 O.2   500  GDU500     -0.1918
      8  O4        19.1170 -101.6540  -37.2190 O.2   500  GDU500     -0.2085
      9  C1D       19.4310 -105.7970  -33.7780 C.3   500  GDU500      0.2401
     10  C2D       19.6180 -107.2430  -34.3000 C.3   500  GDU500      0.2319
     11  O2D       19.1970 -108.2230  -33.3560 O.3   500  GDU500     -0.2157
     12  C3D       21.1230 -107.2980  -34.4650 C.3   500  GDU500      0.2158
     13  C4D       21.5580 -106.6090  -33.1660 C.3   500  GDU500      0.1799
     14  O4D       20.4980 -105.7110  -32.8070 O.3   500  GDU500     -0.3320
     15  O3D       21.5410 -108.6600  -34.5240 O.3   500  GDU500     -0.2175
     16  C5D       22.9880 -106.0600  -33.1240 C.3   500  GDU500      0.1813
     17  O5D       23.1680 -105.3020  -34.3340 O.3   500  GDU500     -0.3112
     18  PA        24.5950 -105.2790  -35.0380 P.3   500  GDU500      0.2189
     19  O1A       24.6150 -104.2010  -36.0730 O.2   500  GDU500     -0.5170
     20  O2A       25.5460 -104.9410  -33.9430 O.3   500  GDU500     -0.4371
     21  O3A       24.8610 -106.6860  -35.7320 O.3   500  GDU500     -0.2703
     22  PB        26.1660 -107.0950  -36.5380 P.3   500  GDU500      0.2208
     23  O1B       25.6110 -107.8160  -37.7190 O.2   500  GDU500     -0.5170
     24  O2B       27.1150 -108.0350  -35.8770 O.3   500  GDU500     -0.4371
     25  O3B       27.0210 -105.8700  -37.1210 O.3   500  GDU500     -0.2857
     26  C1'       28.3560 -105.7640  -37.6660 C.3   500  GDU500      0.2742
     27  C2'       29.3580 -105.1410  -36.6540 C.3   500  GDU500      0.2409
     28  C3'       28.7030 -103.8600  -36.0850 C.3   500  GDU500      0.2198
     29  C4'       28.6680 -102.8290  -37.2480 C.3   500  GDU500      0.2144
     30  C5'       27.9760 -103.4890  -38.4770 C.3   500  GDU500      0.1835
     31  C6'       28.1450 -102.6610  -39.7790 C.3   500  GDU500      0.2142
     32  O2'       29.7940 -106.0600  -35.6320 O.3   500  GDU500     -0.2149
     33  O3'       29.4620 -103.4050  -34.9430 O.3   500  GDU500     -0.2174
     34  O4'       30.0220 -102.4360  -37.5450 O.3   500  GDU500     -0.2176
     35  O5'       28.2410 -104.8830  -38.8090 O.3   500  GDU500     -0.3254
     36  O6'       27.3590 -101.4540  -39.7200 O.3   500  GDU500     -0.2176
@<TRIPOS>BOND
     1    31    36    1
     2    31    30    1
     3    35    30    1
     4    35    26    1
     5    30    29    1
     6    23    22    2
     7    26    25    1
     8    26    27    1
     9    34    29    1
    10    29    28    1
    11     8     4    2
    12    25    22    1
    13    27    28    1
    14    27    32    1
    15    22    24    1
    16    22    21    1
    17     4     5    1
    18     4     3    2
    19    28    33    1
    20    19    18    2
    21     5     6    2
    22     3     2    2
    23    21    18    1
    24     2     7    2
    25     2     1   am
    26     6     1    1
    27    18    17    1
    28    18    20    1
    29     1     9    1
    30    15    12    1
    31    12    10    1
    32    12    13    1
    33    17    16    1
    34    10     9    1
    35    10    11    1
    36     9    14    1
    37    13    16    1
    38    13    14    1
