@<TRIPOS>MOLECULE
3hdz_PD6_A_1.pdb
 22 24 0 0 0
SMALL
GASTEIGER

@<TRIPOS>ATOM
      1  N3        20.1520   -6.7490   11.9030 N.pl3 400  PD6400     -0.3063
      2  C4        18.2550   -5.2510   11.8590 C.3   400  PD6400      0.1002
      3  C5        18.2170   -5.1720   14.5640 C.2   400  PD6400      0.2227
      4  C6        20.1210   -6.6960   14.6770 C.2   400  PD6400      0.1978
      5  C7        21.0540   -7.4740   12.6100 C.3   400  PD6400      0.1205
      6  C8        20.2890   -6.8680   10.4530 C.3   400  PD6400      0.0908
      7  C15       16.2790   -3.6970   11.7500 C.ar  400  PD6400      0.0258
      8  C17       15.0450   -3.4270   12.3450 C.ar  400  PD6400      0.0022
      9  C20       14.0600   -2.7150   11.6600 C.ar  400  PD6400      0.0001
     10  C21       15.5100   -2.5350    9.7430 C.ar  400  PD6400      0.0001
     11  C22       14.2860   -2.2640   10.3560 C.ar  400  PD6400      0.0000
     12  C1        19.2120   -6.0000   12.5470 C.2   400  PD6400      0.0392
     13  C2        19.1880   -5.9620   13.9420 C.2   400  PD6400      0.0951
     14  C9        17.2990   -4.4750   12.5120 C.2   400  PD6400      0.1163
     15  N10       17.3080   -4.4560   13.8670 N.2   400  PD6400     -0.3877
     16  N11       18.0880   -5.0510   15.8900 N.pl3 400  PD6400     -0.0931
     17  C12       21.0650   -7.4580   13.9970 C.2   400  PD6400      0.0374
     18  O13       20.1900   -6.7330   15.9980 O.2   400  PD6400     -0.2867
     19  C14       21.3220   -5.8810    9.8900 C.3   400  PD6400      0.0214
     20  C16       21.0790   -4.4000   10.2120 C.3   400  PD6400      0.0018
     21  C18       16.4810   -3.2470   10.4430 C.ar  400  PD6400      0.0022
     22  C19       22.1300   -3.4500    9.6190 C.3   400  PD6400      0.0001
@<TRIPOS>BOND
     1    22    20    1
     2    10    11   ar
     3    10    21   ar
     4    19    20    1
     5    19     6    1
     6    11     9   ar
     7    21     7   ar
     8     6     1    1
     9     9     8   ar
    10     7     8   ar
    11     7    14    1
    12     2    14    1
    13     2    12    1
    14     1    12    1
    15     1     5    1
    16    14    15    2
    17    12    13    2
    18     5    17    1
    19    15     3    2
    20    13     3    1
    21    13     4    1
    22    17     4    2
    23     3    16    1
    24     4    18    1
