@<TRIPOS>MOLECULE
3he3_UDP_A_1.pdb
 25 26 0 0 0
SMALL
GASTEIGER

@<TRIPOS>ATOM
      1  N1       -19.1890 -106.3400   36.5030 N.am  400  UDP400     -0.1996
      2  C2       -17.9350 -106.0220   36.9860 C.1   400  UDP400      0.2802
      3  N3       -17.7760 -104.9580   37.8490 N.2   400  UDP400     -0.2497
      4  C4       -18.8700 -104.2070   38.2330 C.1   400  UDP400      0.1941
      5  C5       -20.1280 -104.5360   37.7340 C.3   400  UDP400      0.1579
      6  C6       -20.2300 -105.4800   36.7190 C.3   400  UDP400      0.1249
      7  O2       -16.9590 -106.6880   36.6480 O.2   400  UDP400     -0.1922
      8  O4       -18.7300 -103.2560   39.0100 O.2   400  UDP400     -0.2133
      9  C1'      -19.3350 -107.4750   35.5770 C.3   400  UDP400      0.2361
     10  C2'      -19.5140 -108.7650   36.3560 C.3   400  UDP400      0.2316
     11  O2'      -18.8600 -109.8040   35.6660 O.3   400  UDP400     -0.2157
     12  C3'      -20.9990 -109.0170   36.3000 C.3   400  UDP400      0.2158
     13  C4'      -21.3910 -108.3810   34.9810 C.3   400  UDP400      0.1799
     14  O4'      -20.4990 -107.3030   34.7930 O.3   400  UDP400     -0.3322
     15  O3'      -21.2640 -110.3970   36.2930 O.3   400  UDP400     -0.2175
     16  C5'      -22.8240 -107.8780   34.9870 C.3   400  UDP400      0.1813
     17  O5'      -23.0140 -107.0150   36.0820 O.3   400  UDP400     -0.3111
     18  PA       -24.4950 -106.8630   36.6820 P.3   400  UDP400      0.2231
     19  O1A      -25.4100 -106.3710   35.6330 O.2   400  UDP400     -0.5169
     20  O2A      -24.5040 -105.9780   37.8690 O.3   400  UDP400     -0.4370
     21  O3A      -24.8720 -108.3890   37.0180 O.3   400  UDP400     -0.2261
     22  PB       -26.0850 -108.7730   37.9970 P.3   400  UDP400      0.5373
     23  O1B      -25.5520 -109.3860   39.2340 O.3   400  UDP400     -0.1143
     24  O2B      -26.9710 -109.7100   37.2720 O.2   400  UDP400     -0.2221
     25  O3B      -26.8480 -107.5580   38.3580 O.3   400  UDP400     -0.1143
@<TRIPOS>BOND
     1    14    13    1
     2    14     9    1
     3    13    16    1
     4    13    12    1
     5    16    17    1
     6     9    10    1
     7     9     1    1
     8    19    18    2
     9    11    10    1
    10    17    18    1
    11    15    12    1
    12    12    10    1
    13     1     6    1
    14     1     2   am
    15     7     2    2
    16    18    21    1
    17    18    20    1
    18     6     5    1
    19     2     3    2
    20    21    22    1
    21    24    22    2
    22     5     4    1
    23     3     4    2
    24    22    25    1
    25    22    23    1
    26     4     8    2
