@<TRIPOS>MOLECULE
3hec_STI_A_1.pdb
 37 41 0 0 0
SMALL
GASTEIGER

@<TRIPOS>ATOM
      1  C1        18.8480    4.6550  -24.7430 C.ar    1  STI1        0.0208
      2  C6        18.8750    3.7470  -23.6800 C.ar    1  STI1        0.0057
      3  C5        18.8470    2.3690  -23.9340 C.ar    1  STI1        0.0497
      4  C4        18.7860    1.9450  -25.2700 C.ar    1  STI1        0.1014
      5  N3        18.7590    2.8520  -26.2740 N.ar    1  STI1       -0.2422
      6  C2        18.7860    4.1760  -26.0450 C.ar    1  STI1        0.0989
      7  C7        18.8550    1.3750  -22.7930 C.2     1  STI1        0.1472
      8  C12       18.5300    1.7620  -21.4830 C.2     1  STI1        0.0546
      9  C11       18.5400    0.8440  -20.4390 C.2     1  STI1        0.1144
     10  N10       18.8500   -0.4240  -20.6970 N.2     1  STI1       -0.1683
     11  C9        19.1550   -0.7870  -21.9670 C.1     1  STI1        0.1696
     12  N8        19.1500    0.0720  -23.0060 N.2     1  STI1       -0.3361
     13  N13       19.4620   -2.0470  -22.2580 N.pl3   1  STI1       -0.1360
     14  C14       19.7220   -2.9540  -21.3070 C.ar    1  STI1        0.0799
     15  C19       21.1470   -3.2260  -21.0730 C.ar    1  STI1       -0.0057
     16  C18       21.4410   -4.1780  -20.1210 C.ar    1  STI1       -0.0016
     17  C17       20.4150   -4.8210  -19.4210 C.ar    1  STI1        0.0164
     18  C16       19.0420   -4.5870  -19.6150 C.ar    1  STI1        0.0750
     19  C15       18.7120   -3.6320  -20.5960 C.ar    1  STI1        0.0336
     20  N21       18.1240   -5.3040  -18.8480 N.am    1  STI1       -0.1754
     21  C22       16.8210   -5.4380  -19.1430 C.2     1  STI1        0.2690
     22  C23       15.7970   -6.2940  -18.4300 C.ar    1  STI1        0.0554
     23  C25       15.8410   -6.4990  -17.0460 C.ar    1  STI1        0.0043
     24  C26       14.7940   -7.2450  -16.4810 C.ar    1  STI1       -0.0028
     25  C27       13.7120   -7.7870  -17.2510 C.ar    1  STI1       -0.0061
     26  C28       13.6740   -7.5810  -18.6310 C.ar    1  STI1       -0.0028
     27  C29       14.7180   -6.8240  -19.1900 C.ar    1  STI1        0.0043
     28  C46       12.6320   -8.6050  -16.6020 C.3     1  STI1        0.0992
     29  N48       12.5470   -8.7480  -15.3390 N.3     1  STI1       -0.2665
     30  C53       12.9640   -7.5860  -14.5590 C.3     1  STI1        0.0899
     31  C52       11.8340   -7.2450  -13.5950 C.3     1  STI1        0.0897
     32  N51       11.6980   -8.3900  -12.6710 N.3     1  STI1       -0.2691
     33  C54       11.3590   -8.0920  -11.2850 C.3     1  STI1        0.0897
     34  C50       11.8860   -9.7700  -13.1110 C.3     1  STI1        0.0897
     35  C49       11.9100   -9.8850  -14.6580 C.3     1  STI1        0.0899
     36  O29       16.2940   -4.7560  -20.0070 O.2     1  STI1       -0.2680
     37  C20       22.2080   -2.4870  -21.8600 C.3     1  STI1        0.0324
@<TRIPOS>BOND
     1     5     6   ar
     2     5     4   ar
     3     6     1   ar
     4     4     3   ar
     5     1     2   ar
     6     3     2   ar
     7     3     7    1
     8    12     7    2
     9    12    11    2
    10     7     8    1
    11    13    11    1
    12    13    14    1
    13    11    10    2
    14    37    15    1
    15     8     9    2
    16    14    15   ar
    17    14    19   ar
    18    15    16   ar
    19    10     9    1
    20    19    18   ar
    21    16    17   ar
    22    36    21    2
    23    18    17   ar
    24    18    20    1
    25    27    26   ar
    26    27    22   ar
    27    21    20   am
    28    21    22    1
    29    26    25   ar
    30    22    23   ar
    31    25    28    1
    32    25    24   ar
    33    23    24   ar
    34    28    29    1
    35    29    35    1
    36    29    30    1
    37    35    34    1
    38    30    31    1
    39    31    32    1
    40    34    32    1
    41    32    33    1
