@<TRIPOS>MOLECULE
3hee_R5P_A_1.pdb
 14 13 0 0 0
SMALL
GASTEIGER

@<TRIPOS>ATOM
      1  C1        25.0810   -6.5360   11.4320 C.3   651  R5P651      0.2175
      2  O1        26.3460   -5.9620   11.6520 O.3   651  R5P651     -0.2175
      3  C2        24.1730   -6.0300   12.5750 C.3   651  R5P651      0.2175
      4  O2        24.8420   -6.3550   13.7690 O.3   651  R5P651     -0.2175
      5  C3        22.6760   -6.5040   12.6060 C.3   651  R5P651      0.2174
      6  O3        21.7740   -5.5710   13.3180 O.3   651  R5P651     -0.2175
      7  C4        22.5300   -7.9540   13.1170 C.3   651  R5P651      0.2147
      8  O4        23.3640   -8.8680   12.3330 O.3   651  R5P651     -0.2176
      9  C5        21.1690   -8.5500   12.8930 C.3   651  R5P651      0.1892
     10  O5        21.1020   -9.7590   13.7210 O.3   651  R5P651     -0.2674
     11  P         19.6740  -10.5040   13.8010 P.3   651  R5P651      0.5327
     12  O1P       19.8450  -11.7470   14.7040 O.3   651  R5P651     -0.1145
     13  O2P       18.7640   -9.4650   14.3630 O.3   651  R5P651     -0.1145
     14  O3P       19.2170  -10.8780   12.4230 O.2   651  R5P651     -0.2224
@<TRIPOS>BOND
     1     1     2    1
     2     1     3    1
     3     8     7    1
     4    14    11    2
     5     3     5    1
     6     3     4    1
     7     5     7    1
     8     5     6    1
     9     9     7    1
    10     9    10    1
    11    10    11    1
    12    11    13    1
    13    11    12    1
