@<TRIPOS>MOLECULE
3heg_BAX_A_1.pdb
 32 34 0 0 0
SMALL
GASTEIGER

@<TRIPOS>ATOM
      1  C1        -1.9780    2.2590   25.9480 C.ar    1  BAX1        0.0214
      2  C2        -1.2280    3.4280   25.8570 C.ar    1  BAX1        0.0750
      3  C3        -1.6980    4.5910   26.4520 C.ar    1  BAX1        0.0175
      4  C4        -2.9200    4.6600   27.1000 C.ar    1  BAX1        0.0127
      5  C13        0.4480    2.7040   24.2850 C.2     1  BAX1        0.3477
      6  C16        2.3380    2.3780   22.9000 C.ar    1  BAX1        0.0752
      7  C17        1.6560    2.2710   21.6650 C.ar    1  BAX1        0.0198
      8  C18        2.3330    1.8220   20.5270 C.ar    1  BAX1        0.0388
      9  C19        3.7070    1.4910   20.6340 C.ar    1  BAX1        0.1449
     10  C20        4.3820    1.5940   21.8510 C.ar    1  BAX1        0.0388
     11  C21        3.6920    2.0440   22.9670 C.ar    1  BAX1        0.0198
     12  O22        4.4640    1.0880   19.5620 O.3     1  BAX1       -0.4576
     13  C24        3.7130   -1.0290   18.8880 C.2     1  BAX1        0.0333
     14  C25        3.4170   -1.9280   17.8630 C.3     1  BAX1        0.1542
     15  C27        4.0410   -0.3090   16.2360 C.2     1  BAX1        0.1164
     16  C28        4.3280    0.6230   17.2290 C.3     1  BAX1        0.1142
     17  N30        4.1010   -1.0340   13.8920 N.am    1  BAX1       -0.1988
     18  C31        3.2530   -1.0040   12.7050 C.3     1  BAX1        0.1389
     19  C5        -3.7100    3.5350   27.1680 C.ar    1  BAX1        0.0616
     20  C6        -3.2190    2.2650   26.5840 C.ar    1  BAX1        0.0833
     21  C7        -4.0500    0.9970   26.6980 C.3     1  BAX1        0.4194
     22  F8        -5.2380    1.1420   26.2110 F       1  BAX1       -0.1658
     23  F9        -3.4800    0.0010   26.1220 F       1  BAX1       -0.1658
     24  F10       -4.2250    0.6490   27.9280 F       1  BAX1       -0.1658
     25 CL11       -5.2760    3.5990   28.0420 Cl      1  BAX1       -0.0823
     26  N12       -0.0220    3.4870   25.2640 N.am    1  BAX1       -0.1607
     27  N14        1.7480    2.8090   24.0510 N.am    1  BAX1       -0.1607
     28  O15       -0.2620    1.9460   23.6160 O.2     1  BAX1       -0.2484
     29  C23        4.1550    0.2360   18.5580 C.2     1  BAX1        0.1266
     30  N26        3.5810   -1.5370   16.5780 N.2     1  BAX1       -0.2648
     31  C29        4.1310    0.0000   14.7620 C.2     1  BAX1        0.2785
     32  O32        4.1550    1.1730   14.3910 O.2     1  BAX1       -0.2671
@<TRIPOS>BOND
     1    18    17    1
     2    17    31   am
     3    32    31    2
     4    31    15    1
     5    15    30    2
     6    15    16    1
     7    30    14    1
     8    16    29    1
     9    14    13    1
    10    29    13    2
    11    29    12    1
    12    12     9    1
    13     8     9   ar
    14     8     7   ar
    15     9    10   ar
    16     7     6   ar
    17    10    11   ar
    18     6    11   ar
    19     6    27    1
    20    28     5    2
    21    27     5   am
    22     5    26   am
    23    26     2    1
    24     2     1   ar
    25     2     3   ar
    26     1    20   ar
    27    23    21    1
    28    22    21    1
    29     3     4   ar
    30    20    21    1
    31    20    19   ar
    32    21    24    1
    33     4    19   ar
    34    19    25    1
