@<TRIPOS>MOLECULE
3hej_THP_A_1.pdb
 25 26 0 0 0
SMALL
GASTEIGER

@<TRIPOS>ATOM
      1  P2        34.0510    2.9250   16.5610 P.3   150  THP150      0.5327
      2  O4P       34.4180    2.7910   17.9940 O.3   150  THP150     -0.1145
      3  O5P       32.9450    4.0490   16.3560 O.3   150  THP150     -0.1145
      4  O6P       33.5140    1.5190   16.0630 O.2   150  THP150     -0.2224
      5  P1        40.2870    5.5500   17.9000 P.3   150  THP150      0.5326
      6  O1P       41.2280    4.6020   18.5490 O.3   150  THP150     -0.1145
      7  O2P       41.1250    6.7580   17.2530 O.2   150  THP150     -0.2224
      8  O3P       39.2170    6.1620   18.9060 O.3   150  THP150     -0.1145
      9  O5'       35.3340    3.2020   15.6430 O.3   150  THP150     -0.2675
     10  C5'       36.0070    4.4280   15.9420 C.3   150  THP150      0.1857
     11  C4'       37.4990    4.0630   15.9260 C.3   150  THP150      0.1748
     12  O4'       37.9160    3.4460   14.6760 O.3   150  THP150     -0.3340
     13  C3'       38.4450    5.2600   16.1380 C.3   150  THP150      0.1600
     14  O3'       39.6250    4.6830   16.6940 O.3   150  THP150     -0.2700
     15  C2'       38.7340    5.6410   14.6570 C.3   150  THP150      0.0847
     16  C1'       38.8390    4.2700   13.9700 C.3   150  THP150      0.2089
     17  N1        38.4170    4.4010   12.5540 N.am  150  THP150     -0.1794
     18  C2        39.3450    4.6230   11.6050 C.1   150  THP150      0.2844
     19  O2        40.5480    4.6160   11.8820 O.2   150  THP150     -0.1918
     20  N3        38.9710    4.8680   10.3240 N.2   150  THP150     -0.2455
     21  C4        37.6640    4.8640    9.9380 C.1   150  THP150      0.2134
     22  O4        37.3750    5.1580    8.7640 O.2   150  THP150     -0.2088
     23  C5        36.6770    4.6580   10.9310 C.2   150  THP150      0.0891
     24  C5M       35.1980    4.6440   10.5770 C.3   150  THP150      0.0462
     25  C6        37.0750    4.4860   12.2300 C.2   150  THP150      0.0877
@<TRIPOS>BOND
     1    22    21    2
     2    21    20    2
     3    21    23    1
     4    20    18    2
     5    24    23    1
     6    23    25    2
     7    18    19    2
     8    18    17   am
     9    25    17    1
    10    17    16    1
    11    16    15    1
    12    16    12    1
    13    15    13    1
    14    12    11    1
    15     9    10    1
    16     9     1    1
    17    11    10    1
    18    11    13    1
    19     4     1    2
    20    13    14    1
    21     3     1    1
    22     1     2    1
    23    14     5    1
    24     7     5    2
    25     5     6    1
    26     5     8    1
