@<TRIPOS>MOLECULE
3hek_BD0_A_1.pdb
 30 33 0 0 0
SMALL
GASTEIGER

@<TRIPOS>ATOM
      1  C4        16.9690   -0.4100   48.8480 C.ar  901  BD0901      0.2033
      2  C6        16.1420   -1.4760   49.3160 C.ar  901  BD0901      0.0935
      3  C7        14.7780   -1.2440   49.6580 C.ar  901  BD0901      0.0224
      4  C8        14.2410    0.0590   49.5400 C.ar  901  BD0901      0.0968
      5  C10       16.7140   -2.8390   49.4510 C.2   901  BD0901      0.2523
      6  N12       17.0310   -3.3320   50.7390 N.am  901  BD0901     -0.2739
      7  C13       17.6240   -4.6650   50.8180 C.3   901  BD0901      0.0940
      8  C15       17.8800   -3.5970   52.9560 C.3   901  BD0901      0.0261
      9  C17       15.7410   -2.4550   52.8050 C.ar  901  BD0901     -0.0043
     10  C20       13.3210   -2.0780   54.3040 C.ar  901  BD0901     -0.0062
     11  C21       12.0600   -1.9040   55.1180 C.3   901  BD0901      0.0993
     12  C24        9.0440   -0.9360   53.2160 C.3   901  BD0901      0.0853
     13  C28        9.8710   -1.0440   55.4910 C.3   901  BD0901      0.1397
     14  O1        14.5870    2.3950   48.9580 O.3   901  BD0901     -0.2856
     15  C2        15.0620    1.1230   49.0810 C.ar  901  BD0901      0.2093
     16  C3        16.4250    0.8980   48.7300 C.ar  901  BD0901      0.0850
     17  O5        18.2870   -0.6460   48.5160 O.3   901  BD0901     -0.2863
     18 CL9        12.5950    0.3110   49.9670 Cl    901  BD0901     -0.0789
     19  O11       16.9110   -3.4590   48.4080 O.2   901  BD0901     -0.2698
     20  C14       17.8450   -4.9660   52.2860 C.3   901  BD0901      0.0236
     21  C16       17.0730   -2.6250   52.0540 C.3   901  BD0901      0.0982
     22  C18       14.6870   -3.4280   52.7600 C.ar  901  BD0901     -0.0030
     23  C19       13.4970   -3.2420   53.4990 C.ar  901  BD0901     -0.0032
     24  N22       10.9750   -1.1050   54.5460 N.3   901  BD0901     -0.2642
     25  C23       10.3990   -1.6160   53.2880 C.3   901  BD0901      0.0782
     26  C25        8.7320   -0.5690   54.6530 C.3   901  BD0901      0.2797
     27  F26        7.5690   -1.1170   55.0700 F     901  BD0901     -0.2028
     28  F27        8.6170    0.7660   54.7720 F     901  BD0901     -0.2028
     29  C29       14.3540   -1.0980   54.3500 C.ar  901  BD0901     -0.0032
     30  C30       15.5520   -1.2810   53.6100 C.ar  901  BD0901     -0.0030
@<TRIPOS>BOND
     1    19     5    2
     2    17     1    1
     3    16     1   ar
     4    16    15   ar
     5     1     2   ar
     6    14    15    1
     7    15     4   ar
     8     2     5    1
     9     2     3   ar
    10     5     6   am
    11     4     3   ar
    12     4    18    1
    13     6     7    1
    14     6    21    1
    15     7    20    1
    16    21     9    1
    17    21     8    1
    18    20     8    1
    19    22     9   ar
    20    22    23   ar
    21     9    30   ar
    22    12    25    1
    23    12    26    1
    24    25    24    1
    25    23    10   ar
    26    30    29   ar
    27    10    29   ar
    28    10    11    1
    29    24    11    1
    30    24    13    1
    31    26    28    1
    32    26    27    1
    33    26    13    1
