@<TRIPOS>MOLECULE
3hem_D22_A_1.pdb
 17 16 0 0 0
SMALL
GASTEIGER

@<TRIPOS>ATOM
      1  C2        93.8990   32.8140   19.2980 C.3   303  D22303      0.0000
      2  C3        95.2790   33.2600   18.8410 C.3   303  D22303      0.0000
      3  C4        95.1840   34.6010   18.1440 C.3   303  D22303      0.0000
      4  C5        94.6890   34.4040   16.7220 C.3   303  D22303      0.0000
      5  C6        95.8030   34.6940   15.7260 C.3   303  D22303      0.0015
      6  C7        95.3400   34.3370   14.3200 C.3   303  D22303      0.0188
      7  C8        95.8920   35.3400   13.3200 C.3   303  D22303      0.0887
      8  C10       96.2310   34.3150   11.0440 C.3   303  D22303      0.0887
      9  C17       92.2880   29.8050   15.9990 C.3   303  D22303      0.0000
     10  C16       92.3260   29.6940   14.4880 C.3   303  D22303      0.0000
     11  C15       93.4740   30.5120   13.9040 C.3   303  D22303      0.0000
     12  C14       93.6420   30.2470   12.4120 C.3   303  D22303      0.0000
     13  C13       94.9860   30.7720   11.9060 C.3   303  D22303      0.0000
     14  C12       94.9000   32.2350   11.4870 C.3   303  D22303      0.0015
     15  C11       96.2970   32.8340   11.3970 C.3   303  D22303      0.0188
     16  N9        95.4130   35.0760   11.9740 N.3   303  D22303     -0.2181
     17  C1        94.0080   32.0130   20.5840 C.3   303  D22303      0.0000
@<TRIPOS>BOND
     1     8    15    1
     2     8    16    1
     3    15    14    1
     4    14    13    1
     5    13    12    1
     6    16     7    1
     7    12    11    1
     8     7     6    1
     9    11    10    1
    10     6     5    1
    11    10     9    1
    12     5     4    1
    13     4     3    1
    14     3     2    1
    15     2     1    1
    16     1    17    1
