@<TRIPOS>MOLECULE
3hen_HEM_A_1.pdb
 43 50 0 0 0
SMALL
GASTEIGER

@<TRIPOS>ATOM
      1  CHA      -17.8880   19.3650  -10.8350 C.2   154  HEM154      0.0000
      2  CHB      -15.2010   23.0690  -12.5190 C.2   154  HEM154      0.0000
      3  CHC      -11.4210   21.1980  -10.1930 C.2   154  HEM154      0.0000
      4  CHD      -14.1730   17.7750   -8.0260 C.2   154  HEM154      0.0000
      5  C1A      -17.4660   20.5180  -11.4790 C.ar  154  HEM154      0.0000
      6  C2A      -18.2850   21.2830  -12.4000 C.ar  154  HEM154      0.0000
      7  C3A      -17.5450   22.2640  -12.8890 C.ar  154  HEM154      0.0000
      8  C4A      -16.2360   22.1960  -12.2490 C.ar  154  HEM154      0.0000
      9  CMA      -17.9870   23.3280  -13.9100 C.3   154  HEM154      0.0000
     10  CAA      -19.7740   21.0200  -12.7940 C.3   154  HEM154      0.0000
     11  CBA      -20.6500   22.0770  -12.0480 C.3   154  HEM154      0.0000
     12  CGA      -20.3670   22.2790  -10.5530 C.2   154  HEM154      0.0000
     13  O1A      -20.6140   21.3730   -9.6930 O.co2 154  HEM154      0.0000
     14  O2A      -19.8890   23.3920  -10.1560 O.co2 154  HEM154      0.0000
     15  C1B      -13.8810   22.8840  -12.1090 C.2   154  HEM154      0.0000
     16  C2B      -12.7360   23.6870  -12.5360 C.2   154  HEM154      0.0000
     17  C3B      -11.6610   23.1640  -11.8890 C.2   154  HEM154      0.0000
     18  C4B      -12.1290   22.0190  -11.0570 C.2   154  HEM154      0.0000
     19  CMB      -12.9240   24.9040  -13.5500 C.3   154  HEM154      0.0000
     20  CAB      -10.1540   23.6040  -11.9080 C.2   154  HEM154      0.0000
     21  CBB       -9.5370   23.8590  -13.0770 C.2   154  HEM154      0.0000
     22  C1C      -11.8240   20.0880   -9.4340 C.ar  154  HEM154      0.0000
     23  C2C      -10.9570   19.2170   -8.6360 C.ar  154  HEM154      0.0000
     24  C3C      -11.7330   18.2520   -8.0530 C.ar  154  HEM154      0.0000
     25  C4C      -13.0840   18.5140   -8.4380 C.ar  154  HEM154      0.0000
     26  CMC       -9.4110   19.3990   -8.5640 C.3   154  HEM154      0.0000
     27  CAC      -11.3750   17.0690   -7.1360 C.2   154  HEM154      0.0000
     28  CBC      -10.0760   16.7010   -6.9450 C.2   154  HEM154      0.0000
     29  C1D      -15.4300   17.8950   -8.6080 C.2   154  HEM154      0.0000
     30  C2D      -16.5130   16.9850   -8.3210 C.2   154  HEM154      0.0000
     31  C3D      -17.6900   17.4770   -9.1970 C.2   154  HEM154      0.0000
     32  C4D      -17.1590   18.6030   -9.9690 C.2   154  HEM154      0.0000
     33  CMD      -16.4760   15.8560   -7.3030 C.3   154  HEM154      0.0000
     34  CAD      -19.1020   16.8420   -9.3450 C.3   154  HEM154      0.0000
     35  CBD      -18.8360   15.6420  -10.2900 C.3   154  HEM154      0.0000
     36  CGD      -20.0640   14.8800  -10.8040 C.2   154  HEM154      0.0000
     37  O1D      -21.1010   15.4930  -11.1400 O.co2 154  HEM154      0.0000
     38  O2D      -19.9550   13.6200  -10.9330 O.co2 154  HEM154      0.0000
     39  NA       -16.1980   21.1040  -11.4090 N.ar  154  HEM154      0.0000
     40  NB       -13.4900   21.8860  -11.2280 N.2   154  HEM154      0.0000
     41  NC       -13.1190   19.6230   -9.2660 N.ar  154  HEM154      0.0000
     42  ND       -15.8450   18.8050   -9.5760 N.2   154  HEM154      0.0000
     43 FE        -14.7860   20.5520  -10.1270 Fe    154  HEM154      0.0000
@<TRIPOS>BOND
     1     9     7    1
     2    19    16    1
     3    21    20    2
     4     7     6   ar
     5     7     8   ar
     6    10     6    1
     7    10    11    1
     8    16    15    1
     9    16    17    2
    10     2     8    2
    11     2    15    1
    12     6     5   ar
    13     8    39   ar
    14    15    40    2
    15    11    12    1
    16    20    17    1
    17    17    18    1
    18     5    39   ar
    19     5     1    2
    20    39    43    1
    21    40    18    1
    22    40    43    1
    23    37    36   ar
    24    18     3    2
    25    38    36   ar
    26     1    32    1
    27    36    35    1
    28    12    14   ar
    29    12    13   ar
    30    35    34    1
    31     3    22    1
    32    43    42    1
    33    43    41    1
    34    32    42    2
    35    32    31    1
    36    42    29    1
    37    22    41   ar
    38    22    23   ar
    39    34    31    1
    40    41    25   ar
    41    31    30    2
    42    23    26    1
    43    23    24   ar
    44    29    30    1
    45    29     4    2
    46    25    24   ar
    47    25     4    1
    48    30    33    1
    49    24    27    1
    50    27    28    2
