@<TRIPOS>MOLECULE
3heo_HEM_A_1.pdb
 43 50 0 0 0
SMALL
GASTEIGER

@<TRIPOS>ATOM
      1  CHA      -17.6850   20.2270   -9.7870 C.2   154  HEM154      0.0000
      2  CHB      -14.7140   23.0750  -12.4010 C.2   154  HEM154      0.0000
      3  CHC      -11.0560   21.0680  -10.0090 C.2   154  HEM154      0.0000
      4  CHD      -13.9640   17.8150   -7.8710 C.2   154  HEM154      0.0000
      5  C1A      -17.1990   21.1330  -10.7340 C.ar  154  HEM154      0.0000
      6  C2A      -18.0190   21.8490  -11.6860 C.ar  154  HEM154      0.0000
      7  C3A      -17.2250   22.6580  -12.4110 C.ar  154  HEM154      0.0000
      8  C4A      -15.8520   22.4530  -11.9670 C.ar  154  HEM154      0.0000
      9  CMA      -17.7220   23.5760  -13.5310 C.3   154  HEM154      0.0000
     10  CAA      -19.5540   21.7310  -11.7810 C.3   154  HEM154      0.0000
     11  CBA      -20.1180   22.7620  -10.7930 C.3   154  HEM154      0.0000
     12  CGA      -21.4380   22.2710  -10.2520 C.2   154  HEM154      0.0000
     13  O1A      -21.5030   21.0480   -9.9040 O.co2 154  HEM154      0.0000
     14  O2A      -22.4240   23.0860  -10.1390 O.co2 154  HEM154      0.0000
     15  C1B      -13.4560   22.8170  -11.9190 C.2   154  HEM154      0.0000
     16  C2B      -12.2910   23.5040  -12.3420 C.2   154  HEM154      0.0000
     17  C3B      -11.2440   22.9450  -11.7010 C.2   154  HEM154      0.0000
     18  C4B      -11.7520   21.8870  -10.8660 C.2   154  HEM154      0.0000
     19  CMB      -12.4350   24.6760  -13.3910 C.3   154  HEM154      0.0000
     20  CAB       -9.7240   23.2650  -11.7670 C.2   154  HEM154      0.0000
     21  CBB       -9.1400   23.7290  -12.8900 C.2   154  HEM154      0.0000
     22  C1C      -11.4950   20.0070   -9.2740 C.ar  154  HEM154      0.0000
     23  C2C      -10.6700   19.0400   -8.6070 C.ar  154  HEM154      0.0000
     24  C3C      -11.5090   18.1430   -8.0200 C.ar  154  HEM154      0.0000
     25  C4C      -12.8580   18.5190   -8.3050 C.ar  154  HEM154      0.0000
     26  CMC       -9.1070   19.0970   -8.6110 C.3   154  HEM154      0.0000
     27  CAC      -11.2030   16.9370   -7.1640 C.2   154  HEM154      0.0000
     28  CBC       -9.9240   16.6620   -6.9130 C.2   154  HEM154      0.0000
     29  C1D      -15.2600   18.1470   -8.0770 C.2   154  HEM154      0.0000
     30  C2D      -16.4490   17.5900   -7.4350 C.2   154  HEM154      0.0000
     31  C3D      -17.6110   18.3770   -8.0370 C.2   154  HEM154      0.0000
     32  C4D      -17.0080   19.3290   -8.9780 C.2   154  HEM154      0.0000
     33  CMD      -16.5430   16.4910   -6.3670 C.3   154  HEM154      0.0000
     34  CAD      -19.1160   18.2210   -7.7210 C.3   154  HEM154      0.0000
     35  CBD      -19.4330   19.4170   -6.8230 C.3   154  HEM154      0.0000
     36  CGD      -20.9560   19.6890   -6.8310 C.2   154  HEM154      0.0000
     37  O1D      -21.8260   18.7440   -6.6860 O.co2 154  HEM154      0.0000
     38  O2D      -21.3500   20.8890   -6.9920 O.co2 154  HEM154      0.0000
     39  NA       -15.8640   21.5100  -10.9500 N.ar  154  HEM154      0.0000
     40  NB       -13.0940   21.8500  -11.0460 N.2   154  HEM154      0.0000
     41  NC       -12.7910   19.6600   -9.0530 N.ar  154  HEM154      0.0000
     42  ND       -15.6330   19.1740   -8.9450 N.2   154  HEM154      0.0000
     43 FE        -14.4450   20.6020   -9.9580 Fe    154  HEM154      0.0000
@<TRIPOS>BOND
     1     9     7    1
     2    19    16    1
     3    21    20    2
     4     7     8   ar
     5     7     6   ar
     6     2     8    2
     7     2    15    1
     8    16    15    1
     9    16    17    2
    10     8    39   ar
    11    15    40    2
    12    10     6    1
    13    10    11    1
    14    20    17    1
    15    17    18    1
    16     6     5   ar
    17    40    18    1
    18    40    43    1
    19    39     5   ar
    20    39    43    1
    21    18     3    2
    22    11    12    1
    23     5     1    2
    24    12    14   ar
    25    12    13   ar
    26     3    22    1
    27    43    41    1
    28    43    42    1
    29     1    32    1
    30    22    41   ar
    31    22    23   ar
    32    41    25   ar
    33    32    42    2
    34    32    31    1
    35    42    29    1
    36    26    23    1
    37    23    24   ar
    38    25    24   ar
    39    25     4    1
    40    29     4    2
    41    29    30    1
    42    31    34    1
    43    31    30    2
    44    24    27    1
    45    34    35    1
    46    30    33    1
    47    27    28    2
    48    38    36   ar
    49    36    35    1
    50    36    37   ar
