@<TRIPOS>MOLECULE
3hep_HEM_A_1.pdb
 43 50 0 0 0
SMALL
GASTEIGER

@<TRIPOS>ATOM
      1  CHA      -18.0380   19.7600  -10.7060 C.2   154  HEM154      0.0000
      2  CHB      -15.2970   23.3630  -12.4780 C.2   154  HEM154      0.0000
      3  CHC      -11.4590   21.4960  -10.0550 C.2   154  HEM154      0.0000
      4  CHD      -14.3240   18.0390   -7.9870 C.2   154  HEM154      0.0000
      5  C1A      -17.6280   20.8940  -11.3740 C.ar  154  HEM154      0.0000
      6  C2A      -18.4700   21.6540  -12.2260 C.ar  154  HEM154      0.0000
      7  C3A      -17.7200   22.6510  -12.6750 C.ar  154  HEM154      0.0000
      8  C4A      -16.3840   22.5360  -12.1820 C.ar  154  HEM154      0.0000
      9  CMA      -18.1280   23.7700  -13.6510 C.3   154  HEM154      0.0000
     10  CAA      -19.9910   21.3930  -12.4500 C.3   154  HEM154      0.0000
     11  CBA      -20.8860   22.4490  -11.7430 C.3   154  HEM154      0.0000
     12  CGA      -20.5320   22.5950  -10.2770 C.2   154  HEM154      0.0000
     13  O1A      -20.6310   21.5970   -9.5060 O.co2 154  HEM154      0.0000
     14  O2A      -20.1250   23.7250   -9.8830 O.co2 154  HEM154      0.0000
     15  C1B      -14.0020   23.1830  -11.9900 C.2   154  HEM154      0.0000
     16  C2B      -12.8090   23.9390  -12.3880 C.2   154  HEM154      0.0000
     17  C3B      -11.7620   23.3750  -11.7290 C.2   154  HEM154      0.0000
     18  C4B      -12.2390   22.3070  -10.8730 C.2   154  HEM154      0.0000
     19  CMB      -12.8810   25.1280  -13.4250 C.3   154  HEM154      0.0000
     20  CAB      -10.2660   23.7710  -11.7030 C.2   154  HEM154      0.0000
     21  CBB       -9.7150   24.1170  -12.8550 C.2   154  HEM154      0.0000
     22  C1C      -11.8450   20.3620   -9.3440 C.ar  154  HEM154      0.0000
     23  C2C      -11.0060   19.4250   -8.6000 C.ar  154  HEM154      0.0000
     24  C3C      -11.8090   18.4430   -8.0410 C.ar  154  HEM154      0.0000
     25  C4C      -13.1860   18.7700   -8.3860 C.ar  154  HEM154      0.0000
     26  CMC       -9.4800   19.5670   -8.5510 C.3   154  HEM154      0.0000
     27  CAC      -11.5410   17.2190   -7.1630 C.2   154  HEM154      0.0000
     28  CBC      -10.3060   16.7500   -6.8430 C.2   154  HEM154      0.0000
     29  C1D      -15.5570   18.1860   -8.5940 C.2   154  HEM154      0.0000
     30  C2D      -16.6330   17.2850   -8.3880 C.2   154  HEM154      0.0000
     31  C3D      -17.7710   17.7720   -9.2350 C.2   154  HEM154      0.0000
     32  C4D      -17.2650   18.9450   -9.9010 C.2   154  HEM154      0.0000
     33  CMD      -16.5850   16.0230   -7.4830 C.3   154  HEM154      0.0000
     34  CAD      -19.1780   17.0380   -9.3640 C.3   154  HEM154      0.0000
     35  CBD      -18.8470   16.1060  -10.5590 C.3   154  HEM154      0.0000
     36  CGD      -20.0140   15.4210  -11.2360 C.2   154  HEM154      0.0000
     37  O1D      -20.9230   16.0340  -11.8900 O.co2 154  HEM154      0.0000
     38  O2D      -19.9690   14.1860  -11.1790 O.co2 154  HEM154      0.0000
     39  NA       -16.3470   21.4360  -11.4280 N.ar  154  HEM154      0.0000
     40  NB       -13.5950   22.2060  -11.1370 N.2   154  HEM154      0.0000
     41  NC       -13.1590   19.9030   -9.1610 N.ar  154  HEM154      0.0000
     42  ND       -15.9580   19.1960   -9.4870 N.2   154  HEM154      0.0000
     43 FE        -14.8390   20.8130  -10.1630 Fe    154  HEM154      0.0000
@<TRIPOS>BOND
     1     9     7    1
     2    19    16    1
     3    21    20    2
     4     7     6   ar
     5     7     8   ar
     6     2     8    2
     7     2    15    1
     8    10     6    1
     9    10    11    1
    10    16    15    1
    11    16    17    2
    12     6     5   ar
    13     8    39   ar
    14    15    40    2
    15    37    36   ar
    16    11    12    1
    17    17    20    1
    18    17    18    1
    19    39     5   ar
    20    39    43    1
    21     5     1    2
    22    36    38   ar
    23    36    35    1
    24    40    18    1
    25    40    43    1
    26    18     3    2
    27     1    32    1
    28    35    34    1
    29    12    14   ar
    30    12    13   ar
    31    43    42    1
    32    43    41    1
    33     3    22    1
    34    32    42    2
    35    32    31    1
    36    42    29    1
    37    34    31    1
    38    22    41   ar
    39    22    23   ar
    40    31    30    2
    41    41    25   ar
    42    23    26    1
    43    23    24   ar
    44    29    30    1
    45    29     4    2
    46    30    33    1
    47    25    24   ar
    48    25     4    1
    49    24    27    1
    50    27    28    2
