@<TRIPOS>MOLECULE
3hf2_HEM_A_1.pdb
 43 50 0 0 0
SMALL
GASTEIGER

@<TRIPOS>ATOM
      1  CHA       23.5710    3.2590   12.2930 C.2   482  HEM482      0.0000
      2  CHB       18.7650    3.1690   11.7700 C.2   482  HEM482      0.0000
      3  CHC       19.0910   -1.1250    9.5990 C.2   482  HEM482      0.0000
      4  CHD       23.8830   -1.2290   10.4110 C.2   482  HEM482      0.0000
      5  C1A       22.2410    3.6390   12.3480 C.2   482  HEM482      0.0000
      6  C2A       21.6950    4.8790   12.8670 C.2   482  HEM482      0.0000
      7  C3A       20.3580    4.8420   12.7160 C.2   482  HEM482      0.0000
      8  C4A       20.0260    3.5890   12.0990 C.2   482  HEM482      0.0000
      9  CMA       19.3410    5.9610   13.1250 C.3   482  HEM482      0.0000
     10  CAA       22.4840    6.0760   13.4950 C.3   482  HEM482      0.0000
     11  CBA       22.6680    5.7750   14.9770 C.3   482  HEM482      0.0000
     12  CGA       23.4060    6.9220   15.6840 C.2   482  HEM482      0.0000
     13  O1A       23.8270    6.7220   16.8600 O.co2 482  HEM482      0.0000
     14  O2A       23.5710    8.0580   15.1280 O.co2 482  HEM482      0.0000
     15  C1B       18.4230    1.9940   11.1630 C.ar  482  HEM482      0.0000
     16  C2B       17.0660    1.5590   10.8530 C.ar  482  HEM482      0.0000
     17  C3B       17.1550    0.3490   10.2580 C.ar  482  HEM482      0.0000
     18  C4B       18.5690    0.0050   10.1690 C.ar  482  HEM482      0.0000
     19  CMB       15.7830    2.3640   11.2050 C.3   482  HEM482      0.0000
     20  CAB       16.0160   -0.5450    9.7660 C.2   482  HEM482      0.0000
     21  CBB       14.9550   -0.0130    9.1740 C.2   482  HEM482      0.0000
     22  C1C       20.4110   -1.5060    9.5780 C.2   482  HEM482      0.0000
     23  C2C       20.9550   -2.7090    8.9500 C.2   482  HEM482      0.0000
     24  C3C       22.2850   -2.7190    9.1850 C.2   482  HEM482      0.0000
     25  C4C       22.6140   -1.5560    9.9720 C.2   482  HEM482      0.0000
     26  CMC       20.1480   -3.7550    8.1300 C.3   482  HEM482      0.0000
     27  CAC       23.3320   -3.7690    8.7340 C.2   482  HEM482      0.0000
     28  CBC       23.2840   -4.3640    7.5420 C.2   482  HEM482      0.0000
     29  C1D       24.2650   -0.0450   10.9960 C.ar  482  HEM482      0.0000
     30  C2D       25.6230    0.2850   11.4200 C.ar  482  HEM482      0.0000
     31  C3D       25.5210    1.6720   12.0000 C.ar  482  HEM482      0.0000
     32  C4D       24.1110    2.0540   11.8770 C.ar  482  HEM482      0.0000
     33  CMD       26.8850   -0.5780   11.2720 C.3   482  HEM482      0.0000
     34  CAD       26.6680    2.5120   12.5480 C.3   482  HEM482      0.0000
     35  CBD       27.1640    3.3100   11.3320 C.3   482  HEM482      0.0000
     36  CGD       28.4060    4.1400   11.6570 C.2   482  HEM482      0.0000
     37  O1D       29.4640    3.9400   11.0010 O.co2 482  HEM482      0.0000
     38  O2D       28.3430    5.0050   12.5700 O.co2 482  HEM482      0.0000
     39  NA        21.1830    2.8650   11.9180 N.2   482  HEM482      0.0000
     40  NB        19.2990    1.0420   10.7120 N.ar  482  HEM482      0.0000
     41  NC        21.4500   -0.8380   10.1870 N.2   482  HEM482      0.0000
     42  ND        23.4270    1.0030   11.3070 N.ar  482  HEM482      0.0000
     43 FE         21.3410    1.1200   10.8010 Fe    482  HEM482      0.0000
@<TRIPOS>BOND
     1    28    27    2
     2    26    23    1
     3    27    24    1
     4    23    24    2
     5    23    22    1
     6    21    20    2
     7    24    25    1
     8    22     3    2
     9    22    41    1
    10     3    18    1
    11    20    17    1
    12    25    41    2
    13    25     4    1
    14    18    17   ar
    15    18    40   ar
    16    41    43    1
    17    17    16   ar
    18     4    29    2
    19    40    43    1
    20    40    15   ar
    21    43    42    1
    22    43    39    1
    23    16    15   ar
    24    16    19    1
    25    29    42   ar
    26    29    30   ar
    27    37    36   ar
    28    15     2    1
    29    33    30    1
    30    42    32   ar
    31    35    36    1
    32    35    34    1
    33    30    31   ar
    34    36    38   ar
    35     2     8    2
    36    32    31   ar
    37    32     1    2
    38    39     8    1
    39    39     5    2
    40    31    34    1
    41     8     7    1
    42     1     5    1
    43     5     6    1
    44     7     6    2
    45     7     9    1
    46     6    10    1
    47    10    11    1
    48    11    12    1
    49    14    12   ar
    50    12    13   ar
