@<TRIPOS>MOLECULE
3hf3_FMN_A_1.pdb
 31 33 0 0 0
SMALL
GASTEIGER

@<TRIPOS>ATOM
      1  N1        42.2500  -32.7480   17.1040 N.2   1001  FMN1001    -0.2887
      2  C2        41.9530  -31.7070   17.9430 C.1   1001  FMN1001     0.3669
      3  O2        41.6140  -31.9950   19.1000 O.2   1001  FMN1001    -0.1744
      4  N3        42.1340  -30.3960   17.5090 N.2   1001  FMN1001    -0.2300
      5  C4        42.5090  -30.1680   16.1800 C.1   1001  FMN1001     0.2513
      6  O4        42.4410  -29.0280   15.6690 O.2   1001  FMN1001    -0.2057
      7  C4A       42.8540  -31.2480   15.3550 C.2   1001  FMN1001     0.2703
      8  N5        43.2720  -31.0240   14.0510 N.2   1001  FMN1001    -0.3882
      9  C5A       43.3340  -32.0700   13.1500 C.2   1001  FMN1001     0.1277
     10  C6        43.7340  -31.8480   11.8280 C.3   1001  FMN1001     0.0820
     11  C7        43.8390  -32.9420   10.9580 C.2   1001  FMN1001    -0.0408
     12  C7M       44.1540  -32.7450    9.5050 C.3   1001  FMN1001     0.0265
     13  C8        43.6470  -34.2360   11.4520 C.2   1001  FMN1001    -0.0280
     14  C8M       43.7580  -35.4390   10.5560 C.3   1001  FMN1001     0.0304
     15  C9        43.3200  -34.4370   12.7830 C.2   1001  FMN1001     0.0123
     16  C9A       43.1730  -33.3650   13.6290 C.2   1001  FMN1001     0.0793
     17  N10       42.8060  -33.6050   14.9430 N.pl3 1001  FMN1001    -0.2545
     18  C10       42.6590  -32.5410   15.8070 C.2   1001  FMN1001     0.2449
     19  C1'       42.4100  -34.9920   15.3400 C.3   1001  FMN1001     0.1336
     20  C2'       40.9800  -35.2840   14.8890 C.3   1001  FMN1001     0.2048
     21  O2'       40.1290  -34.3410   15.4930 O.3   1001  FMN1001    -0.2185
     22  C3'       40.5020  -36.6460   15.3790 C.3   1001  FMN1001     0.2165
     23  O3'       40.4510  -36.6050   16.7940 O.3   1001  FMN1001    -0.2175
     24  C4'       41.4630  -37.7460   14.9490 C.3   1001  FMN1001     0.2147
     25  O4'       41.8050  -37.5160   13.5950 O.3   1001  FMN1001    -0.2176
     26  C5'       40.8480  -39.1310   15.1530 C.3   1001  FMN1001     0.1892
     27  O5'       39.5990  -39.1990   14.5000 O.3   1001  FMN1001    -0.2674
     28  P         39.4350  -39.7800   12.9860 P.3   1001  FMN1001     0.5327
     29  O1P       40.0130  -41.1700   12.8180 O.3   1001  FMN1001    -0.1145
     30  O2P       40.0440  -38.8270   12.0200 O.2   1001  FMN1001    -0.2224
     31  O3P       37.9160  -39.8920   12.8490 O.3   1001  FMN1001    -0.1145
@<TRIPOS>BOND
     1    12    11    1
     2    14    13    1
     3    11    13    2
     4    11    10    1
     5    13    15    1
     6    10     9    1
     7    30    28    2
     8    15    16    2
     9    29    28    1
    10    31    28    1
    11    28    27    1
    12     9    16    1
    13     9     8    2
    14    25    24    1
    15    16    17    1
    16     8     7    2
    17    27    26    1
    18    20    19    1
    19    20    22    1
    20    20    21    1
    21    17    19    1
    22    17    18    1
    23    24    26    1
    24    24    22    1
    25     7    18    1
    26     7     5    1
    27    22    23    1
    28     6     5    2
    29    18     1    2
    30     5     4    2
    31     1     2    2
    32     4     2    2
    33     2     3    2
