@<TRIPOS>MOLECULE
3hf4_HEM_A_1.pdb
 43 50 0 0 0
SMALL
GASTEIGER

@<TRIPOS>ATOM
      1  CHA       13.6530   19.3660   39.7390 C.2   142  HEM142      0.0000
      2  CHB       11.9960   14.8400   40.1940 C.2   142  HEM142      0.0000
      3  CHC       16.2390   13.0850   38.6900 C.2   142  HEM142      0.0000
      4  CHD       18.0000   17.5970   38.3040 C.2   142  HEM142      0.0000
      5  C1A       12.8560   18.2910   40.0740 C.2   142  HEM142      0.0000
      6  C2A       11.5930   18.3420   40.7870 C.2   142  HEM142      0.0000
      7  C3A       11.1360   17.0870   40.9100 C.2   142  HEM142      0.0000
      8  C4A       12.0990   16.2060   40.2840 C.2   142  HEM142      0.0000
      9  CMA        9.8230   16.6320   41.5940 C.3   142  HEM142      0.0000
     10  CAA       10.8970   19.6230   41.2960 C.3   142  HEM142      0.0000
     11  CBA        9.8760   20.0320   40.2390 C.3   142  HEM142      0.0000
     12  CGA        9.5500   21.4930   40.3840 C.2   142  HEM142      0.0000
     13  O1A        8.6290   21.8230   41.1810 O.co2 142  HEM142      0.0000
     14  O2A       10.2160   22.3170   39.6980 O.co2 142  HEM142      0.0000
     15  C1B       13.0120   13.9690   39.8880 C.ar  142  HEM142      0.0000
     16  C2B       12.9820   12.5340   40.0880 C.ar  142  HEM142      0.0000
     17  C3B       14.1550   12.0410   39.6720 C.ar  142  HEM142      0.0000
     18  C4B       14.9610   13.1550   39.1990 C.ar  142  HEM142      0.0000
     19  CMB       11.7900   11.7450   40.6790 C.3   142  HEM142      0.0000
     20  CAB       14.5940   10.5540   39.6990 C.2   142  HEM142      0.0000
     21  CBB       13.9410    9.6130   39.0060 C.2   142  HEM142      0.0000
     22  C1C       17.1070   14.1390   38.5050 C.2   142  HEM142      0.0000
     23  C2C       18.5230   14.0400   38.2120 C.2   142  HEM142      0.0000
     24  C3C       19.0110   15.2830   38.1070 C.2   142  HEM142      0.0000
     25  C4C       17.9200   16.2170   38.3310 C.2   142  HEM142      0.0000
     26  CMC       19.3170   12.7230   38.0500 C.3   142  HEM142      0.0000
     27  CAC       20.4760   15.6680   37.7980 C.2   142  HEM142      0.0000
     28  CBC       21.4130   15.5920   38.7510 C.2   142  HEM142      0.0000
     29  C1D       17.0190   18.5010   38.6690 C.ar  142  HEM142      0.0000
     30  C2D       17.1880   19.9380   38.7500 C.ar  142  HEM142      0.0000
     31  C3D       15.8290   20.4900   39.1960 C.ar  142  HEM142      0.0000
     32  C4D       14.9760   19.3310   39.3460 C.ar  142  HEM142      0.0000
     33  CMD       18.4610   20.7580   38.4500 C.3   142  HEM142      0.0000
     34  CAD       15.4610   21.9700   39.4480 C.3   142  HEM142      0.0000
     35  CBD       15.6680   22.2560   40.9350 C.3   142  HEM142      0.0000
     36  CGD       15.1910   23.6440   41.2770 C.2   142  HEM142      0.0000
     37  O1D       15.9260   24.6190   40.9740 O.co2 142  HEM142      0.0000
     38  O2D       14.0770   23.7810   41.8500 O.co2 142  HEM142      0.0000
     39  NA        13.1330   16.9710   39.7880 N.2   142  HEM142      0.0000
     40  NB        14.2310   14.3170   39.3460 N.ar  142  HEM142      0.0000
     41  NC        16.7740   15.4790   38.5700 N.2   142  HEM142      0.0000
     42  ND        15.7080   18.1900   39.0260 N.ar  142  HEM142      0.0000
     43 FE         14.9740   16.2710   39.2210 Fe    142  HEM142      0.0000
@<TRIPOS>BOND
     1    27    24    1
     2    27    28    2
     3    26    23    1
     4    24    23    2
     5    24    25    1
     6    23    22    1
     7     4    25    1
     8     4    29    2
     9    25    41    2
    10    33    30    1
    11    22    41    1
    12    22     3    2
    13    41    43    1
    14    29    30   ar
    15    29    42   ar
    16     3    18    1
    17    30    31   ar
    18    21    20    2
    19    42    43    1
    20    42    32   ar
    21    31    32   ar
    22    31    34    1
    23    18    40   ar
    24    18    17   ar
    25    43    40    1
    26    43    39    1
    27    40    15   ar
    28    32     1    2
    29    34    35    1
    30    17    20    1
    31    17    16   ar
    32    14    12   ar
    33     1     5    1
    34    39     5    2
    35    39     8    1
    36    15    16   ar
    37    15     2    1
    38     5     6    1
    39    16    19    1
    40     2     8    2
    41    11    12    1
    42    11    10    1
    43     8     7    1
    44    12    13   ar
    45     6     7    2
    46     6    10    1
    47     7     9    1
    48    35    36    1
    49    37    36   ar
    50    36    38   ar
