@<TRIPOS>MOLECULE
3hf5_3ML_A_1.pdb
 11 11 0 0 0
SMALL
GASTEIGER

@<TRIPOS>ATOM
      1  CAA       27.1700   11.2940   16.7780 C.3   201  3ML201      0.0302
      2  CAI       26.9550   11.0960   18.2700 C.2   201  3ML201      0.0024
      3  CAE       26.5740   11.9790   19.1870 C.2   201  3ML201      0.0768
      4  CAJ       26.5380   11.3100   20.3870 C.2   201  3ML201      0.3411
      5  OAC       26.1870   11.7780   21.4720 O.2   201  3ML201     -0.2449
      6  OAG       26.9550   10.0090   20.3150 O.3   201  3ML201     -0.4444
      7  CAK       27.2460    9.7400   18.8840 C.3   201  3ML201      0.1990
      8  CAF       26.1750    8.7220   18.3830 C.3   201  3ML201      0.1618
      9  CAH       26.3740    7.2730   18.8870 C.2   201  3ML201      0.3689
     10  OAD       25.5490    6.3990   18.4620 O.co2 201  3ML201     -0.2455
     11  OAB       27.3720    7.0510   19.5780 O.co2 201  3ML201     -0.2455
@<TRIPOS>BOND
     1     1     2    1
     2     2     7    1
     3     2     3    2
     4     8     7    1
     5     8     9    1
     6    10     9   ar
     7     7     6    1
     8     9    11   ar
     9     3     4    1
    10     6     4    1
    11     4     5    2
