@<TRIPOS>MOLECULE
3hf6_LX0_A_1.pdb
 32 35 0 0 0
SMALL
GASTEIGER

@<TRIPOS>ATOM
      1  O3        15.7660    5.8280   19.3850 O.co2 401  LX0401     -0.2440
      2  C1        15.2430    5.1580   18.4630 C.2   401  LX0401      0.3822
      3  O2        15.4650    5.3890   17.2530 O.co2 401  LX0401     -0.2440
      4  C4        14.2970    4.0460   18.8170 C.3   401  LX0401      0.1986
      5  N5        14.4200    3.7060   20.2280 N.3   401  LX0401     -0.1205
      6  C6        12.8890    4.5660   18.5400 C.3   401  LX0401      0.0569
      7  C7        11.8000    3.5370   18.7530 C.ar  401  LX0401     -0.0201
      8  C12       10.8560    3.7370   19.7670 C.ar  401  LX0401     -0.0035
      9  C11        9.8390    2.8030   19.9610 C.ar  401  LX0401      0.0118
     10  C10        9.7600    1.6670   19.1480 C.ar  401  LX0401      0.0873
     11  C9        10.6960    1.4780   18.1290 C.ar  401  LX0401      0.0118
     12  C8        11.7110    2.4150   17.9330 C.ar  401  LX0401     -0.0035
     13  C13        8.6600    0.6830   19.3470 C.1   401  LX0401      0.1631
     14  N18        7.6950    0.9280   20.2640 N.2   401  LX0401     -0.2588
     15  C17        6.6770    0.0520   20.4350 C.1   401  LX0401      0.2412
     16  N16        6.6160   -1.0690   19.6780 N.2   401  LX0401     -0.2426
     17  C15        7.5790   -1.3140   18.7530 C.1   401  LX0401      0.2622
     18  N19        7.5430   -2.4350   17.9930 N.pl3 401  LX0401     -0.0220
     19  N14        8.5910   -0.4340   18.5890 N.2   401  LX0401     -0.2576
     20  N20        5.7140    0.3000   21.3590 N.pl3 401  LX0401     -0.1479
     21  C21        5.6300    1.5680   22.0790 C.3   401  LX0401      0.1279
     22  C22        4.7050    1.3810   23.2870 C.3   401  LX0401      0.0291
     23  C23        5.1680    2.7030   21.2220 C.ar  401  LX0401     -0.0018
     24  C28        4.7550    2.4880   19.8990 C.ar  401  LX0401     -0.0026
     25  C27        4.3230    3.5190   19.0650 C.ar  401  LX0401     -0.0003
     26  C26        4.2940    4.8190   19.5540 C.ar  401  LX0401     -0.0000
     27  C32        3.8710    5.8840   18.7630 C.ar  401  LX0401     -0.0000
     28  C31        3.8610    7.1700   19.3020 C.ar  401  LX0401     -0.0000
     29  C30        4.2730    7.4030   20.6220 C.ar  401  LX0401     -0.0000
     30  C29        4.7080    6.3660   21.4490 C.ar  401  LX0401     -0.0000
     31  C25        4.7330    5.0680   20.9550 C.ar  401  LX0401     -0.0003
     32  C24        5.1610    4.0000   21.7420 C.ar  401  LX0401     -0.0026
@<TRIPOS>BOND
     1     3     2   ar
     2    12    11   ar
     3    12     7   ar
     4    18    17    1
     5    11    10   ar
     6     2     4    1
     7     2     1   ar
     8     6     7    1
     9     6     4    1
    10    19    17    2
    11    19    13    2
    12    17    16    2
    13     7     8   ar
    14    27    28   ar
    15    27    26   ar
    16     4     5    1
    17    25    26   ar
    18    25    24   ar
    19    10    13    1
    20    10     9   ar
    21    28    29   ar
    22    13    14    2
    23    26    31   ar
    24    16    15    2
    25     8     9   ar
    26    24    23   ar
    27    14    15    2
    28    15    20    1
    29    29    30   ar
    30    31    30   ar
    31    31    32   ar
    32    23    32   ar
    33    23    21    1
    34    20    21    1
    35    21    22    1
