@<TRIPOS>MOLECULE
3hf7_AMP_A_1.pdb
 23 25 0 0 0
SMALL
GASTEIGER

@<TRIPOS>ATOM
      1  P         34.4260   10.0380   15.8980 P.3     1  AMP1        0.5327
      2  O1P       34.9740   10.9810   14.8400 O.2     1  AMP1       -0.2224
      3  O2P       34.1100   10.6680   17.2340 O.3     1  AMP1       -0.1145
      4  O3P       33.3520    9.0890   15.4400 O.3     1  AMP1       -0.1145
      5  O5'       35.6520    9.0230   16.2080 O.3     1  AMP1       -0.2675
      6  C5'       36.5210    8.5270   15.1780 C.3     1  AMP1        0.1860
      7  C4'       37.9510    8.3630   15.6930 C.3     1  AMP1        0.1823
      8  O4'       38.6460    9.6100   15.6640 O.3     1  AMP1       -0.3135
      9  C3'       38.0440    7.8540   17.1340 C.3     1  AMP1        0.2184
     10  O3'       38.1430    6.4190   17.2430 O.3     1  AMP1       -0.2174
     11  C2'       39.2920    8.5220   17.6660 C.3     1  AMP1        0.2570
     12  O2'       40.4280    7.6920   17.4700 O.3     1  AMP1       -0.2130
     13  C1'       39.4690    9.7710   16.8300 C.3     1  AMP1        0.3186
     14  N9        39.0310   10.8890   17.7080 N.pl3   1  AMP1       -0.1439
     15  C8        37.8800   10.8750   18.3980 C.3     1  AMP1        0.3377
     16  N7        37.7300   12.0010   19.1290 N.2     1  AMP1       -0.2095
     17  C5        38.8030   12.7650   18.9250 C.2     1  AMP1        0.2526
     18  C6        39.2450   14.0790   19.4220 C.2     1  AMP1        0.4393
     19  N6        38.4670   14.7850   20.2810 N.pl3   1  AMP1        0.2180
     20  N1        40.4380   14.5380   18.9740 N.2     1  AMP1        0.0021
     21  C2        41.2080   13.8300   18.1140 C.3     1  AMP1        0.5254
     22  N3        40.8590   12.6160   17.6360 N.2     1  AMP1       -0.0055
     23  C4        39.6760   12.0340   17.9920 C.2     1  AMP1        0.3518
@<TRIPOS>BOND
     1     2     1    2
     2     6     7    1
     3     6     5    1
     4     4     1    1
     5     8     7    1
     6     8    13    1
     7     7     9    1
     8     1     5    1
     9     1     3    1
    10    13    11    1
    11    13    14    1
    12     9    10    1
    13     9    11    1
    14    12    11    1
    15    22    23    2
    16    22    21    1
    17    14    23    1
    18    14    15    1
    19    23    17    1
    20    21    20    1
    21    15    16    1
    22    17    16    2
    23    17    18    1
    24    20    18    2
    25    18    19    1
