@<TRIPOS>MOLECULE
3hf8_ML0_A_1.pdb
 38 41 0 0 0
SMALL
GASTEIGER

@<TRIPOS>ATOM
      1  O38       15.9710    7.0860   19.1490 O.co2 401  ML0401     -0.2440
      2  C36       15.4020    6.3880   18.2740 C.2   401  ML0401      0.3822
      3  O37       15.5420    6.5980   17.0400 O.co2 401  ML0401     -0.2440
      4  C34       14.4860    5.2750   18.7000 C.3   401  ML0401      0.1986
      5  N35       14.6090    4.9720   20.1190 N.3   401  ML0401     -0.1205
      6  C33       13.0770    5.7580   18.3920 C.3   401  ML0401      0.0569
      7  C30       12.0180    4.7020   18.6070 C.ar  401  ML0401     -0.0202
      8  C29       11.0900    4.8950   19.6280 C.ar  401  ML0401     -0.0041
      9  C28       10.0940    3.9470   19.8430 C.ar  401  ML0401      0.0019
     10  C31       11.9450    3.5670   17.7970 C.ar  401  ML0401     -0.0041
     11  C32       10.9460    2.6190   18.0180 C.ar  401  ML0401      0.0019
     12  C27       10.0190    2.8060   19.0480 C.ar  401  ML0401      0.0269
     13  C22        8.9210    1.8260   19.2940 C.2   401  ML0401      0.1331
     14  C21        8.3210    1.7340   20.5500 C.3   401  ML0401      0.1596
     15  N23        8.4590    1.0460   18.2820 N.2   401  ML0401     -0.3297
     16  C24        7.4460    0.1670   18.4820 C.1   401  ML0401      0.2437
     17  N26        7.0080   -0.6080   17.4650 N.pl3 401  ML0401     -0.0232
     18  N25        6.8630    0.0570   19.6970 N.2   401  ML0401     -0.2923
     19  C20        7.2810    0.8250   20.7340 C.2   401  ML0401      0.2724
     20  O16        6.6910    0.7180   21.9700 O.2   401  ML0401     -0.4442
     21  C14        5.7920   -0.3540   22.2590 C.3   401  ML0401      0.2845
     22  C15        6.1290   -0.9110   23.6350 C.3   401  ML0401      0.4383
     23  F19        7.4210   -1.1560   23.7170 F     401  ML0401     -0.1661
     24  F18        5.8130   -0.0300   24.5640 F     401  ML0401     -0.1661
     25  F17        5.4540   -2.0310   23.8060 F     401  ML0401     -0.1661
     26  C11        4.3750    0.0960   22.2050 C.ar  401  ML0401      0.0258
     27  C10        4.0260    1.4270   22.4460 C.ar  401  ML0401     -0.0005
     28  C9         2.6880    1.8230   22.3940 C.ar  401  ML0401     -0.0002
     29  C12        3.3770   -0.8340   21.9130 C.ar  401  ML0401     -0.0005
     30  C13        2.0430   -0.4380   21.8620 C.ar  401  ML0401     -0.0002
     31  C8         1.6890    0.8920   22.0980 C.ar  401  ML0401      0.0001
     32  C3         0.2520    1.2990   22.0370 C.ar  401  ML0401      0.0022
     33  C2        -0.1080    2.5620   21.5650 C.ar  401  ML0401      0.0001
     34  C4        -0.7500    0.4170   22.4560 C.ar  401  ML0401      0.0296
     35  C5        -2.0940    0.7970   22.3980 C.ar  401  ML0401      0.1401
     36  F7        -3.0530   -0.0590   22.7990 F     401  ML0401     -0.2042
     37  C6        -2.4420    2.0620   21.9230 C.ar  401  ML0401      0.0296
     38  C1        -1.4480    2.9440   21.5050 C.ar  401  ML0401      0.0023
@<TRIPOS>BOND
     1     3     2   ar
     2    17    16    1
     3    10    11   ar
     4    10     7   ar
     5    11    12   ar
     6     2     4    1
     7     2     1   ar
     8    15    16    2
     9    15    13    2
    10     6     7    1
    11     6     4    1
    12    16    18    2
    13     7     8   ar
    14     4     5    1
    15    12    13    1
    16    12     9   ar
    17    13    14    1
    18     8     9   ar
    19    18    19    2
    20    14    19    1
    21    19    20    1
    22    38    33   ar
    23    38    37   ar
    24    33    32   ar
    25    30    29   ar
    26    30    31   ar
    27    29    26   ar
    28    37    35   ar
    29    20    21    1
    30    32    31    1
    31    32    34   ar
    32    31    28   ar
    33    26    21    1
    34    26    27   ar
    35    21    22    1
    36    28    27   ar
    37    35    34   ar
    38    35    36    1
    39    22    23    1
    40    22    25    1
    41    22    24    1
