@<TRIPOS>MOLECULE
3hfb_ML4_A_1.pdb
 33 36 0 0 0
SMALL
GASTEIGER

@<TRIPOS>ATOM
      1  O3        16.0630    5.9860   19.2230 O.co2 401  ML4401     -0.2440
      2  C2        15.4590    5.2980   18.3710 C.2   401  ML4401      0.3822
      3  O1        15.6400    5.4490   17.1480 O.co2 401  ML4401     -0.2440
      4  C4        14.4830    4.2540   18.8360 C.3   401  ML4401      0.1986
      5  N5        14.6730    3.9930   20.2560 N.3   401  ML4401     -0.1205
      6  C6        13.0670    4.7470   18.5610 C.3   401  ML4401      0.0569
      7  C7        12.0220    3.6870   18.8300 C.ar  401  ML4401     -0.0202
      8  C12       11.8420    2.6290   17.9430 C.ar  401  ML4401     -0.0042
      9  C11       10.8710    1.6600   18.2030 C.ar  401  ML4401      0.0010
     10  C10       10.0710    1.7510   19.3470 C.ar  401  ML4401      0.0174
     11  C9        10.2620    2.8060   20.2390 C.ar  401  ML4401      0.0010
     12  C8        11.2330    3.7700   19.9810 C.ar  401  ML4401     -0.0042
     13  C13        9.0410    0.7130   19.6260 C.2   401  ML4401      0.1076
     14  N18        8.8310   -0.3130   18.7630 N.2   401  ML4401     -0.2574
     15  C17        7.9100   -1.2530   19.0050 C.3   401  ML4401      0.2452
     16  C16        7.1540   -1.1840   20.1670 C.2   401  ML4401      0.3576
     17  N15        7.3640   -0.1650   21.0310 N.2   401  ML4401     -0.0575
     18  C14        8.2840    0.7780   20.7890 C.3   401  ML4401      0.3079
     19  N19        6.2210   -2.1260   20.4420 N.pl3 401  ML4401     -0.0288
     20  C20        5.8650   -2.4200   21.8260 C.3   401  ML4401      0.2775
     21  C21        5.1650   -3.7610   21.9390 C.ar  401  ML4401      0.0285
     22  C26        3.7380   -3.8550   22.3810 C.ar  401  ML4401     -0.0003
     23  C25        3.1370   -5.1110   22.4740 C.ar  401  ML4401     -0.0002
     24  C24        3.8690   -6.2550   22.1600 C.ar  401  ML4401     -0.0000
     25  C23        5.1990   -6.1710   21.7430 C.ar  401  ML4401     -0.0002
     26  C22        5.8450   -4.9400   21.6360 C.ar  401  ML4401     -0.0002
     27  C27        2.9570   -2.6340   22.7240 C.ar  401  ML4401     -0.0041
     28  C32        2.3090   -1.9230   21.7170 C.ar  401  ML4401     -0.0003
     29  C31        1.5760   -0.7780   22.0300 C.ar  401  ML4401     -0.0000
     30  C30        1.4790   -0.3290   23.3470 C.ar  401  ML4401     -0.0003
     31  C29        2.1110   -1.0070   24.3920 C.ar  401  ML4401     -0.0043
     32  C28        2.8560   -2.1560   24.1350 C.ar  401  ML4401     -0.0218
     33  C33        3.5380   -2.8860   25.2730 C.3   401  ML4401      0.0310
@<TRIPOS>BOND
     1     3     2   ar
     2     8     9   ar
     3     8     7   ar
     4     9    10   ar
     5     2     4    1
     6     2     1   ar
     7     6     7    1
     8     6     4    1
     9    14    15    1
    10    14    13    2
    11     7    12   ar
    12     4     5    1
    13    15    16    1
    14    10    13    1
    15    10    11   ar
    16    13    18    1
    17    12    11   ar
    18    16    19    1
    19    16    17    2
    20    19    20    1
    21    18    17    1
    22    26    25   ar
    23    26    21   ar
    24    28    29   ar
    25    28    27   ar
    26    25    24   ar
    27    20    21    1
    28    21    22   ar
    29    29    30   ar
    30    24    23   ar
    31    22    23   ar
    32    22    27    1
    33    27    32   ar
    34    30    31   ar
    35    32    31   ar
    36    32    33    1
