@<TRIPOS>MOLECULE
3hfg_NAP_A_1.pdb
 48 52 0 0 0
SMALL
GASTEIGER

@<TRIPOS>ATOM
      1  PA        10.0800   -5.0230   22.3970 P.3   293  NAP293      0.2189
      2  O1A       11.2770   -4.2520   22.8030 O.3   293  NAP293     -0.4371
      3  O2A       10.5640   -6.2230   21.4480 O.2   293  NAP293     -0.5170
      4  O5B        9.3840   -5.5860   23.7390 O.3   293  NAP293     -0.3112
      5  C5B        8.2510   -6.4130   23.4310 C.3   293  NAP293      0.1813
      6  C4B        7.7810   -6.9860   24.7810 C.3   293  NAP293      0.1820
      7  O4B        6.6180   -7.8330   24.6700 O.3   293  NAP293     -0.3136
      8  C3B        8.9180   -7.8410   25.3570 C.3   293  NAP293      0.2157
      9  O3B        9.0580   -7.5680   26.7530 O.3   293  NAP293     -0.2175
     10  C2B        8.4370   -9.2970   25.1240 C.3   293  NAP293      0.2314
     11  O2B        9.0370  -10.0960   26.1510 O.3   293  NAP293     -0.2630
     12  C1B        6.9040   -9.0940   25.3060 C.3   293  NAP293      0.3158
     13  N9A        6.1310  -10.1600   24.6670 N.pl3 293  NAP293     -0.1439
     14  C8A        6.3780  -10.7140   23.4460 C.3   293  NAP293      0.3377
     15  N7A        5.4950  -11.6380   23.1870 N.2   293  NAP293     -0.2095
     16  C5A        4.6290  -11.7310   24.2240 C.2   293  NAP293      0.2526
     17  C6A        3.5050  -12.5250   24.5070 C.2   293  NAP293      0.4393
     18  N6A        3.0700  -13.4710   23.6010 N.pl3 293  NAP293      0.2180
     19  N1A        2.8690  -12.3440   25.6620 N.2   293  NAP293      0.0021
     20  C2A        3.2810  -11.4430   26.5290 C.3   293  NAP293      0.5254
     21  N3A        4.3280  -10.6770   26.3070 N.2   293  NAP293     -0.0055
     22  C4A        5.0270  -10.7850   25.1850 C.2   293  NAP293      0.3518
     23  O3         9.0170   -4.1170   21.5810 O.3   293  NAP293     -0.2703
     24  PN         9.1290   -2.5210   21.8490 P.3   293  NAP293      0.2189
     25  O1N       10.1510   -1.9060   20.8670 O.2   293  NAP293     -0.5170
     26  O2N        9.5770   -2.1840   23.2880 O.3   293  NAP293     -0.4371
     27  O5D        7.6820   -1.8730   21.5640 O.3   293  NAP293     -0.3112
     28  C5D        6.9500   -1.8180   22.7860 C.3   293  NAP293      0.1813
     29  C4D        5.6490   -1.0650   22.5030 C.3   293  NAP293      0.1799
     30  O4D        5.9510    0.1630   21.7840 O.3   293  NAP293     -0.3327
     31  C3D        4.7440   -1.9200   21.5870 C.3   293  NAP293      0.2158
     32  O3D        3.3670   -1.7190   21.8960 O.3   293  NAP293     -0.2175
     33  C2D        5.0440   -1.3470   20.1970 C.3   293  NAP293      0.2309
     34  O2D        3.9340   -1.5430   19.3320 O.3   293  NAP293     -0.2158
     35  C1D        5.2400    0.1490   20.5250 C.3   293  NAP293      0.2263
     36  N1N        6.0050    0.7660   19.4380 N.pl3 293  NAP293     -0.2787
     37  C2N        7.2830    0.4750   19.2740 C.3   293  NAP293      0.1244
     38  C3N        8.0140    1.0610   18.2340 C.2   293  NAP293      0.0544
     39  C7N        9.4480    0.7620   18.0130 C.2   293  NAP293      0.2818
     40  O7N        9.9280    0.9550   16.9120 O.2   293  NAP293     -0.2670
     41  N7N       10.2240    0.2740   19.0030 N.am  293  NAP293     -0.0839
     42  C4N        7.3650    1.9510   17.3710 C.2   293  NAP293      0.0033
     43  C5N        6.0250    2.2180   17.5850 C.2   293  NAP293      0.0157
     44  C6N        5.3710    1.6000   18.6370 C.2   293  NAP293      0.0633
     45  P2B        9.0530  -11.6890   25.8770 P.3   293  NAP293      0.5328
     46  O1X        9.4610  -12.0390   24.4970 O.2   293  NAP293     -0.2224
     47  O2X        7.5930  -12.2880   26.1830 O.3   293  NAP293     -0.1145
     48  O3X       10.1200  -12.3410   26.8920 O.3   293  NAP293     -0.1145
@<TRIPOS>BOND
     1    40    39    2
     2    42    43    1
     3    42    38    2
     4    43    44    2
     5    39    38    1
     6    39    41   am
     7    38    37    1
     8    44    36    1
     9    37    36    1
    10    34    33    1
    11    36    35    1
    12    33    35    1
    13    33    31    1
    14    35    30    1
    15    25    24    2
    16     3     1    2
    17    27    24    1
    18    27    28    1
    19    23    24    1
    20    23     1    1
    21    31    32    1
    22    31    29    1
    23    30    29    1
    24    24    26    1
    25     1     2    1
    26     1     4    1
    27    29    28    1
    28    15    14    1
    29    15    16    2
    30     5     4    1
    31     5     6    1
    32    14    13    1
    33    18    17    1
    34    16    17    1
    35    16    22    1
    36    46    45    2
    37    17    19    2
    38    13    22    1
    39    13    12    1
    40     7     6    1
    41     7    12    1
    42     6     8    1
    43    10    12    1
    44    10     8    1
    45    10    11    1
    46    22    21    2
    47     8     9    1
    48    19    20    1
    49    45    11    1
    50    45    47    1
    51    45    48    1
    52    21    20    1
