@<TRIPOS>MOLECULE
3hfg_17R_A_1.pdb
 32 35 0 0 0
SMALL
GASTEIGER

@<TRIPOS>ATOM
      1  C1         8.4890    0.6460   11.8100 C.3     1  17R1        0.0210
      2  C2         8.2180    1.0800   13.2450 C.3     1  17R1        0.0993
      3  C3         8.6120   -0.0300   14.2500 C.3     1  17R1        0.1084
      4  N1         7.6420   -1.1490   14.2640 N.pl3   1  17R1       -0.3046
      5  C4         6.2090   -0.8130   14.2840 C.3     1  17R1        0.1099
      6  C5         5.8690    0.2020   13.1980 C.3     1  17R1        0.1172
      7  N2         6.7580    1.3830   13.3890 N.3     1  17R1       -0.1535
      8  S1         6.0650    2.9230   13.4020 S.O2    1  17R1        0.0634
      9  O1         4.6320    2.7510   13.3890 O.2     1  17R1       -0.1528
     10  O2         6.7090    3.6950   14.4390 O.2     1  17R1       -0.1528
     11  C6         6.5280    3.5920   11.8220 C.ar    1  17R1        0.1237
     12  C7         6.8870    4.9400   11.7500 C.ar    1  17R1        0.0200
     13  C8         7.2520    5.4800   10.5190 C.ar    1  17R1        0.0029
     14  C9         7.2620    4.6800    9.3730 C.ar    1  17R1        0.0193
     15  C10        6.9010    3.3250    9.4530 C.ar    1  17R1        0.0859
     16  C11        6.5310    2.7770   10.6840 C.ar    1  17R1        0.0391
     17  N3         6.9240    2.5390    8.2700 N.ar    1  17R1       -0.2079
     18  C12        6.8600    1.1730    8.1100 C.ar    1  17R1        0.2016
     19  N4         6.9080    0.8450    6.8360 N.ar    1  17R1       -0.2004
     20  C13        7.0050    2.0500    6.2170 C.ar    1  17R1        0.2214
     21  N5         7.0190    3.1050    7.0400 N.ar    1  17R1       -0.1409
     22  C14        7.9520   -2.2280   15.0840 C.ar    1  17R1        0.0519
     23  C15        7.8970   -2.1360   16.4790 C.ar    1  17R1        0.0168
     24  C16        8.2090   -3.2250   17.2860 C.ar    1  17R1        0.0309
     25  C17        8.5780   -4.4130   16.6910 C.ar    1  17R1        0.1402
     26  C18        8.6380   -4.5360   15.3100 C.ar    1  17R1        0.0347
     27  C19        8.3230   -3.4350   14.5000 C.ar    1  17R1        0.0869
     28  C20        8.3730   -3.5020   13.0030 C.3     1  17R1        0.4198
     29  F1         9.2820   -2.6270   12.4970 F       1  17R1       -0.1658
     30  F2         8.7220   -4.7230   12.4890 F       1  17R1       -0.1658
     31  F3         7.1870   -3.1830   12.4120 F       1  17R1       -0.1658
     32  F4         8.8730   -5.4640   17.4630 F       1  17R1       -0.2042
@<TRIPOS>BOND
     1    20    19   ar
     2    20    21   ar
     3    19    18   ar
     4    21    17   ar
     5    18    17   ar
     6    17    15    1
     7    14    15   ar
     8    14    13   ar
     9    15    16   ar
    10    13    12   ar
    11    16    11   ar
    12    12    11   ar
    13     1     2    1
    14    11     8    1
    15    31    28    1
    16    30    28    1
    17    29    28    1
    18    28    27    1
    19     6     7    1
    20     6     5    1
    21     2     7    1
    22     2     3    1
    23     9     8    2
    24     7     8    1
    25     8    10    2
    26     3     4    1
    27     4     5    1
    28     4    22    1
    29    27    22   ar
    30    27    26   ar
    31    22    23   ar
    32    26    25   ar
    33    23    24   ar
    34    25    24   ar
    35    25    32    1
