@<TRIPOS>MOLECULE
3hfj_DZ9_A_1.pdb
 25 28 0 0 0
SMALL
GASTEIGER

@<TRIPOS>ATOM
      1  CAL       13.6590  -18.3420   -9.1010 C.ar  202  DZ9202      0.0462
      2  CAR       12.6090  -19.1360   -9.5640 C.ar  202  DZ9202      0.1414
      3  FAC       12.6710  -20.4740   -9.4420 F     202  DZ9202     -0.2041
      4  CAG       11.4870  -18.5560  -10.1510 C.ar  202  DZ9202      0.0297
      5  CAE       11.4150  -17.1720  -10.2810 C.ar  202  DZ9202      0.0036
      6  CAH       12.4670  -16.3780   -9.8190 C.ar  202  DZ9202      0.0167
      7  CAS       13.5910  -16.9500   -9.2190 C.ar  202  DZ9202      0.0756
      8  NAN       14.5750  -16.1270   -8.8170 N.am  202  DZ9202     -0.1781
      9  CAQ       15.8240  -16.4530   -8.4380 C.2   202  DZ9202      0.2611
     10  OAB       16.2830  -17.5940   -8.3710 O.2   202  DZ9202     -0.2717
     11  CAW       16.7070  -15.2440   -8.0760 C.3   202  DZ9202      0.1702
     12  CAT       18.0970  -15.2440   -7.9610 C.2   202  DZ9202      0.0881
     13  NAA       18.8290  -16.3400   -8.1380 N.2   202  DZ9202     -0.1552
     14  SAP       16.1730  -13.6700   -7.7810 S.3   202  DZ9202     -0.0717
     15  CAY       17.7000  -12.9690   -7.4910 C.2   202  DZ9202      0.1441
     16  NAM       18.0620  -11.7050   -7.1770 N.2   202  DZ9202     -0.3989
     17  CAX       18.6640  -13.9910   -7.6350 C.3   202  DZ9202      0.1194
     18  CAK       20.0030  -13.6540   -7.4380 C.2   202  DZ9202     -0.0105
     19  CAJ       20.3520  -12.3440   -7.1160 C.2   202  DZ9202      0.0288
     20  CAU       19.3570  -11.3670   -6.9970 C.2   202  DZ9202      0.1373
     21  CAV       19.7060  -10.0610   -6.6430 C.ar  202  DZ9202      0.0590
     22  CAI       20.8880   -9.4390   -6.7070 C.ar  202  DZ9202      0.0096
     23  CAD       20.8850   -8.1610   -6.2500 C.ar  202  DZ9202      0.0076
     24  CAF       19.7290   -7.6880   -5.7780 C.ar  202  DZ9202      0.0355
     25  SAO       18.6310   -8.9600   -5.9410 S.2   202  DZ9202     -0.0839
@<TRIPOS>BOND
     1     5     4   ar
     2     5     6   ar
     3     4     2   ar
     4     6     7   ar
     5     2     3    1
     6     2     1   ar
     7     7     1   ar
     8     7     8    1
     9     8     9   am
    10     9    10    2
    11     9    11    1
    12    13    12    2
    13    11    12    1
    14    11    14    1
    15    12    17    1
    16    14    15    1
    17    17    15    1
    18    17    18    1
    19    15    16    2
    20    18    19    2
    21    16    20    2
    22    19    20    1
    23    20    21    1
    24    22    21   ar
    25    22    23   ar
    26    21    25   ar
    27    23    24   ar
    28    25    24   ar
