@<TRIPOS>MOLECULE
3hfk_4ML_A_1.pdb
 11 11 0 0 0
SMALL
GASTEIGER

@<TRIPOS>ATOM
      1  CAF       25.7140   10.2110   18.7080 C.3   201  4ML201      0.0523
      2  CAE       25.2660   10.8770   19.7850 C.3   201  4ML201      0.1132
      3  CAJ       26.3270   11.1920   20.5500 C.2   201  4ML201      0.3169
      4  OAC       26.2430   11.7470   21.6390 O.2   201  4ML201     -0.2501
      5  OAH       27.5140   10.7410   20.0760 O.3   201  4ML201     -0.4552
      6  CAK       27.2480   10.2510   18.7750 C.3   201  4ML201      0.1473
      7  CAA       27.6980   11.2450   17.6820 C.3   201  4ML201      0.0443
      8  CAG       27.9170    8.9130   18.5820 C.3   201  4ML201      0.1539
      9  CAI       27.0100    7.8860   19.2370 C.2   201  4ML201      0.3684
     10  OAD       25.7900    8.1510   19.2450 O.co2 201  4ML201     -0.2455
     11  OAB       27.5540    6.9230   19.7870 O.co2 201  4ML201     -0.2455
@<TRIPOS>BOND
     1     7     6    1
     2     8     6    1
     3     8     9    1
     4     1     6    1
     5     1     2    1
     6     6     5    1
     7     9    10   ar
     8     9    11   ar
     9     2     3    1
    10     5     3    1
    11     3     4    2
