@<TRIPOS>MOLECULE
3hfp_MIZ_A_1.pdb
 16 17 0 0 0
SMALL
GASTEIGER

@<TRIPOS>ATOM
      1  CAA       -1.1680    4.7570   14.4150 C.3   264  MIZ264      0.0263
      2  CAE       -2.6640    4.4640   14.3240 C.3   264  MIZ264      0.0945
      3  CAD       -3.0740    3.1660   14.5870 C.2   264  MIZ264     -0.0110
      4  CAC       -4.4060    2.8010   14.5230 C.2   264  MIZ264     -0.0236
      5  CAB       -4.7610    1.3510   14.8240 C.3   264  MIZ264      0.0308
      6  CAF       -5.3710    3.7440   14.1950 C.2   264  MIZ264      0.0056
      7  CAG       -4.9920    5.0620   13.9290 C.2   264  MIZ264      0.0251
      8  CAN       -6.0880    6.0690   13.5710 C.3   264  MIZ264      0.0471
      9  NAH       -3.6260    5.4490   13.9960 N.pl3 264  MIZ264     -0.3082
     10  CAI       -3.2040    6.8550   13.6970 C.3   264  MIZ264      0.0967
     11  CAJ       -2.6090    7.5620   14.9230 C.3   264  MIZ264      0.0648
     12  CAK       -1.6570    8.7030   14.5340 C.2   264  MIZ264      0.0647
     13  CAO       -0.4470    8.9110   15.0460 C.3   264  MIZ264      0.1683
     14  NAP        0.0680    9.9940   14.4660 N.2   264  MIZ264     -0.2440
     15  CAM       -0.8290   10.4620   13.5980 C.2   264  MIZ264      0.1939
     16  NAL       -1.8920    9.6650   13.6400 N.2   264  MIZ264     -0.2310
@<TRIPOS>BOND
     1     8     7    1
     2    15    16    1
     3    15    14    2
     4    16    12    2
     5    10     9    1
     6    10    11    1
     7     7     9    1
     8     7     6    2
     9     9     2    1
    10     6     4    1
    11     2     1    1
    12     2     3    1
    13    14    13    1
    14     4     3    2
    15     4     5    1
    16    12    11    1
    17    12    13    1
