@<TRIPOS>MOLECULE
3hfv_MTY_A_1.pdb
 13 13 0 0 0
SMALL
GASTEIGER

@<TRIPOS>ATOM
      1  N          5.0510   18.9500   13.1590 N.3   416  MTY416     -0.1205
      2  CA         4.7980   19.2920   11.7310 C.3   416  MTY416      0.1986
      3  CB         3.5820   18.5390   11.2100 C.3   416  MTY416      0.0570
      4  CG         3.7320   17.0590   11.3980 C.ar  416  MTY416     -0.0170
      5  CD1        4.3090   16.3090   10.3800 C.ar  416  MTY416     -0.0040
      6  CE1        4.4680   14.9300   10.5050 C.ar  416  MTY416      0.0030
      7  CD2        3.3220   16.4120   12.5560 C.ar  416  MTY416      0.0378
      8  CE2        3.4770   15.0270   12.6740 C.ar  416  MTY416      0.1954
      9  CZ         4.0500   14.2920   11.6540 C.ar  416  MTY416      0.0420
     10  OH         3.0790   14.3510   13.7870 O.3   416  MTY416     -0.2866
     11  C          4.5290   20.7530   11.5860 C.2   416  MTY416      0.3822
     12  O          4.2520   21.4720   12.5250 O.co2 416  MTY416     -0.2440
     13  OXT        4.5710   21.2960   10.5190 O.co2 416  MTY416     -0.2440
@<TRIPOS>BOND
     1     5     6   ar
     2     5     4   ar
     3     6     9   ar
     4    13    11   ar
     5     3     4    1
     6     3     2    1
     7     4     7   ar
     8    11     2    1
     9    11    12   ar
    10     9     8   ar
    11     2     1    1
    12     7     8   ar
    13     8    10    1
