@<TRIPOS>MOLECULE
3hfw_ADP_A_1.pdb
 27 29 0 0 0
SMALL
GASTEIGER

@<TRIPOS>ATOM
      1  PB        20.2480   13.6920    7.5330 P.3   358  ADP358      0.5373
      2  O1B       20.0350   12.2600    7.8550 O.3   358  ADP358     -0.1143
      3  O2B       21.3540   13.8400    6.4570 O.2   358  ADP358     -0.2221
      4  O3B       20.4390   14.5010    8.7900 O.3   358  ADP358     -0.1143
      5  PA        17.7390   12.8010    7.2490 P.3   358  ADP358      0.2231
      6  O1A       16.8000   12.4960    6.1160 O.2   358  ADP358     -0.5169
      7  O2A       18.1870   11.5220    7.9500 O.3   358  ADP358     -0.4370
      8  O3A       18.7930   14.0070    6.8720 O.3   358  ADP358     -0.2261
      9  O5'       17.0620   13.6000    8.4830 O.3   358  ADP358     -0.3111
     10  C5'       15.7330   13.2340    8.6990 C.3   358  ADP358      0.1813
     11  C4'       15.3470   13.7720   10.0310 C.3   358  ADP358      0.1821
     12  O4'       15.6560   15.1710   10.1210 O.3   358  ADP358     -0.3135
     13  C3'       13.8430   13.6060   10.1430 C.3   358  ADP358      0.2184
     14  O3'       13.5550   12.5130   11.0170 O.3   358  ADP358     -0.2174
     15  C2'       13.3960   14.9170   10.7570 C.3   358  ADP358      0.2570
     16  O2'       12.8020   14.6540   12.0200 O.3   358  ADP358     -0.2130
     17  C1'       14.6880   15.6970   10.9910 C.3   358  ADP358      0.3186
     18  N9        14.4770   17.1020   10.7140 N.pl3 358  ADP358     -0.1439
     19  C8        14.2220   17.6790    9.5180 C.3   358  ADP358      0.3377
     20  N7        14.0890   19.0150    9.6800 N.2   358  ADP358     -0.2095
     21  C5        14.2590   19.2770   10.9880 C.2   358  ADP358      0.2526
     22  C6        14.2460   20.4600   11.8580 C.2   358  ADP358      0.4393
     23  N6        13.9960   21.7040   11.3970 N.pl3 358  ADP358      0.2180
     24  N1        14.4720   20.2610   13.1510 N.2   358  ADP358      0.0021
     25  C2        14.7020   19.0430   13.7030 C.3   358  ADP358      0.5254
     26  N3        14.7380   17.9310   12.9750 N.2   358  ADP358     -0.0055
     27  C4        14.5160   17.9980   11.6590 C.2   358  ADP358      0.3518
@<TRIPOS>BOND
     1     6     5    2
     2     3     1    2
     3     8     5    1
     4     8     1    1
     5     5     7    1
     6     5     9    1
     7     1     2    1
     8     1     4    1
     9     9    10    1
    10    10    11    1
    11    19    20    1
    12    19    18    1
    13    20    21    2
    14    11    12    1
    15    11    13    1
    16    12    17    1
    17    13    15    1
    18    13    14    1
    19    18    17    1
    20    18    27    1
    21    15    17    1
    22    15    16    1
    23    21    27    1
    24    21    22    1
    25    23    22    1
    26    27    26    2
    27    22    24    2
    28    26    25    1
    29    24    25    1
