@<TRIPOS>MOLECULE
3hfx_152_A_1.pdb
 11 10 0 0 0
SMALL
GASTEIGER

@<TRIPOS>ATOM
      1  C1        43.8920   25.7920   26.6260 C.2   601  152601      0.3674
      2  O1A       43.7430   25.4820   27.8310 O.co2 601  152601     -0.2456
      3  O1B       44.7990   26.5640   26.2910 O.co2 601  152601     -0.2456
      4  C2        42.9810   25.2180   25.5290 C.3   601  152601      0.1446
      5  C3        42.5210   26.3410   24.5900 C.3   601  152601      0.1433
      6  O3        43.5730   27.2550   24.4730 O.3   601  152601     -0.2248
      7  C4        42.1450   25.8830   23.1760 C.3   601  152601     -0.0392
      8  N5        42.2850   24.4480   22.9310 N.4   601  152601      0.3874
      9  C5A       41.0360   23.7520   23.2030 C.3   601  152601     -0.0959
     10  C5B       42.6220   24.2770   21.5300 C.3   601  152601     -0.0959
     11  C5C       43.3180   23.8230   23.7350 C.3   601  152601     -0.0959
@<TRIPOS>BOND
     1    10     8    1
     2     8     7    1
     3     8     9    1
     4     8    11    1
     5     7     5    1
     6     6     5    1
     7     5     4    1
     8     4     1    1
     9     3     1   ar
    10     1     2   ar
