@<TRIPOS>MOLECULE
3hfz_MTY_A_1.pdb
 13 13 0 0 0
SMALL
GASTEIGER

@<TRIPOS>ATOM
      1  N         19.8840   62.7180   19.5950 N.3   351  MTY351     -0.1205
      2  CA        18.8820   63.5880   18.9670 C.3   351  MTY351      0.1986
      3  CB        19.1460   63.6650   17.4630 C.3   351  MTY351      0.0570
      4  CG        20.5220   64.2290   17.2220 C.ar  351  MTY351     -0.0170
      5  CD1       20.6930   65.5940   17.0880 C.ar  351  MTY351     -0.0040
      6  CE1       21.9550   66.1140   16.8680 C.ar  351  MTY351      0.0030
      7  CD2       21.6100   63.3840   17.1400 C.ar  351  MTY351      0.0378
      8  CE2       22.8750   63.9030   16.9140 C.ar  351  MTY351      0.1954
      9  CZ        23.0450   65.2730   16.7810 C.ar  351  MTY351      0.0420
     10  OH        23.9480   63.0720   16.8290 O.3   351  MTY351     -0.2866
     11  C         17.5060   63.0230   19.2070 C.2   351  MTY351      0.3822
     12  O         17.3520   61.8330   19.3230 O.co2 351  MTY351     -0.2440
     13  OXT       16.4490   63.8470   19.2920 O.co2 351  MTY351     -0.2440
@<TRIPOS>BOND
     1     9     6   ar
     2     9     8   ar
     3    10     8    1
     4     6     5   ar
     5     8     7   ar
     6     5     4   ar
     7     7     4   ar
     8     4     3    1
     9     3     2    1
    10     2    11    1
    11     2     1    1
    12    11    13   ar
    13    11    12   ar
