@<TRIPOS>MOLECULE
3hg2_GAL_B_1.pdb
 12 12 0 0 0
SMALL
GASTEIGER

@<TRIPOS>ATOM
      1  C1        -4.4870   72.3020   71.6970 C.3   803  GAL803      0.3024
      2  C2        -5.7760   71.8300   71.0270 C.3   803  GAL803      0.2434
      3  C3        -5.5300   70.5470   70.2240 C.3   803  GAL803      0.2199
      4  C4        -4.2140   70.5390   69.4140 C.3   803  GAL803      0.2144
      5  C5        -3.0620   71.2960   70.1080 C.3   803  GAL803      0.1836
      6  C6        -1.8710   71.5570   69.1900 C.3   803  GAL803      0.2142
      7  O1        -4.6900   73.4760   72.4930 O.3   803  GAL803     -0.1869
      8  O2        -6.7810   71.5940   72.0210 O.3   803  GAL803     -0.2148
      9  O3        -6.6510   70.2780   69.3670 O.3   803  GAL803     -0.2174
     10  O4        -4.4280   70.9940   68.0700 O.3   803  GAL803     -0.2176
     11  O5        -3.5100   72.5320   70.6790 O.3   803  GAL803     -0.3236
     12  O6        -0.7310   71.9460   69.9640 O.3   803  GAL803     -0.2176
@<TRIPOS>BOND
     1    10     4    1
     2     6    12    1
     3     6     5    1
     4     9     3    1
     5     4     5    1
     6     4     3    1
     7     5    11    1
     8     3     2    1
     9    11     1    1
    10     2     1    1
    11     2     8    1
    12     1     7    1
