@<TRIPOS>MOLECULE
3hg3_GLA_A_1.pdb
 11 11 0 0 0
SMALL
GASTEIGER

@<TRIPOS>ATOM
      1  C1         7.3860    5.6840   21.5670 C.3   801  GLA801      0.1777
      2  C2         7.0540    4.2750   22.0520 C.3   801  GLA801      0.2141
      3  C3         8.3090    3.5910   22.5970 C.3   801  GLA801      0.2173
      4  C4         9.4120    3.5830   21.5360 C.3   801  GLA801      0.2142
      5  C5         9.6300    4.9900   20.9700 C.3   801  GLA801      0.1810
      6  C6        10.6210    4.9820   19.8140 C.3   801  GLA801      0.2141
      7  O2         6.0180    4.3020   23.0450 O.3   801  GLA801     -0.2176
      8  O3         7.9920    2.2520   22.9960 O.3   801  GLA801     -0.2175
      9  O4         9.0550    2.6740   20.4850 O.3   801  GLA801     -0.2176
     10  O5         8.3870    5.5870   20.5390 O.3   801  GLA801     -0.3481
     11  O6        10.9410    6.3280   19.4350 O.3   801  GLA801     -0.2176
@<TRIPOS>BOND
     1    11     6    1
     2     6     5    1
     3     9     4    1
     4    10     5    1
     5    10     1    1
     6     5     4    1
     7     4     3    1
     8     1     2    1
     9     2     3    1
    10     2     7    1
    11     3     8    1
