@<TRIPOS>MOLECULE
3hg3_GLC_A_1.pdb
 12 12 0 0 0
SMALL
GASTEIGER

@<TRIPOS>ATOM
      1  C1         7.9280    8.9000   25.9520 C.3   811  GLC811      0.3024
      2  C2         9.3570    8.5160   26.3410 C.3   811  GLC811      0.2434
      3  C3        10.3530    8.7890   25.2100 C.3   811  GLC811      0.2199
      4  C4         9.8460    8.3360   23.8370 C.3   811  GLC811      0.2144
      5  C5         8.3540    8.6190   23.6070 C.3   811  GLC811      0.1836
      6  C6         7.8200    7.8560   22.3980 C.3   811  GLC811      0.2142
      7  O1         7.8020   10.3060   25.8440 O.3   811  GLC811     -0.1869
      8  O2         9.7380    9.2280   27.4960 O.3   811  GLC811     -0.2148
      9  O3        11.5700    8.1260   25.4870 O.3   811  GLC811     -0.2174
     10  O4        10.6040    9.0010   22.8510 O.3   811  GLC811     -0.2176
     11  O5         7.5710    8.2620   24.7360 O.3   811  GLC811     -0.3236
     12  O6         7.7750    6.4780   22.7020 O.3   811  GLC811     -0.2176
@<TRIPOS>BOND
     1     6    12    1
     2     6     5    1
     3    10     4    1
     4     5     4    1
     5     5    11    1
     6     4     3    1
     7    11     1    1
     8     3     9    1
     9     3     2    1
    10     7     1    1
    11     1     2    1
    12     2     8    1
