@<TRIPOS>MOLECULE
3hg4_GAL_B_1.pdb
 12 12 0 0 0
SMALL
GASTEIGER

@<TRIPOS>ATOM
      1  C1        -1.9450   71.1860   69.1760 C.3   803  GAL803      0.3024
      2  C2        -1.6690   70.2000   68.0390 C.3   803  GAL803      0.2434
      3  C3        -2.9170   70.1150   67.1640 C.3   803  GAL803      0.2199
      4  C4        -4.1510   69.7520   67.9980 C.3   803  GAL803      0.2144
      5  C5        -4.3030   70.5860   69.2800 C.3   803  GAL803      0.1836
      6  C6        -5.3670   69.9490   70.1820 C.3   803  GAL803      0.2142
      7  O1        -0.7730   71.3580   69.9840 O.3   803  GAL803     -0.1869
      8  O2        -0.5330   70.6050   67.2580 O.3   803  GAL803     -0.2148
      9  O3        -2.7180   69.1570   66.1130 O.3   803  GAL803     -0.2174
     10  O4        -5.3230   69.9200   67.1910 O.3   803  GAL803     -0.2176
     11  O5        -3.0500   70.7290   69.9800 O.3   803  GAL803     -0.3236
     12  O6        -5.5980   70.7150   71.3690 O.3   803  GAL803     -0.2176
@<TRIPOS>BOND
     1     9     3    1
     2     3     4    1
     3     3     2    1
     4    10     4    1
     5     8     2    1
     6     4     5    1
     7     2     1    1
     8     1    11    1
     9     1     7    1
    10     5    11    1
    11     5     6    1
    12     6    12    1
