@<TRIPOS>MOLECULE
3hg4_7JZ_A_1.pdb
 12 12 0 0 0
SMALL
GASTEIGER

@<TRIPOS>ATOM
      1  F2A      -16.9740   59.5740  107.8130 F     801  7JZ801     -0.1988
      2  C2       -16.9370   60.4180  106.7950 C.3   801  7JZ801      0.3206
      3  F2B      -16.1630   61.4610  107.1050 F     801  7JZ801     -0.1988
      4  C1       -18.3730   60.8900  106.5210 C.3   801  7JZ801      0.2112
      5  C3       -16.3600   59.6860  105.5780 C.3   801  7JZ801      0.2476
      6  O3       -15.3650   58.7400  105.9890 O.3   801  7JZ801     -0.2143
      7  C4       -17.4670   59.0080  104.7550 C.3   801  7JZ801      0.2172
      8  O4       -18.1390   58.0060  105.5370 O.3   801  7JZ801     -0.2175
      9  C5       -18.4850   60.0310  104.2380 C.3   801  7JZ801      0.1812
     10  O5       -18.6160   61.1540  105.1310 O.3   801  7JZ801     -0.3451
     11  C6       -19.8520   59.3950  103.9850 C.3   801  7JZ801      0.2141
     12  O6       -20.6650   60.2420  103.1580 O.3   801  7JZ801     -0.2176
@<TRIPOS>BOND
     1    12    11    1
     2    11     9    1
     3     9     7    1
     4     9    10    1
     5     7     8    1
     6     7     5    1
     7    10     4    1
     8     5     6    1
     9     5     2    1
    10     4     2    1
    11     2     3    1
    12     2     1    1
