@<TRIPOS>MOLECULE
3hg5_GLA_A_1.pdb
 12 12 0 0 0
SMALL
GASTEIGER

@<TRIPOS>ATOM
      1  C1       -17.7630   61.6800  105.8170 C.3   801  GLA801      0.3024
      2  C2       -16.9030   60.6050  106.4930 C.3   801  GLA801      0.2434
      3  C3       -16.3920   59.6230  105.4430 C.3   801  GLA801      0.2199
      4  C4       -17.6100   58.9580  104.8010 C.3   801  GLA801      0.2144
      5  C5       -18.5680   60.0120  104.2150 C.3   801  GLA801      0.1836
      6  C6       -19.9040   59.3750  103.8600 C.3   801  GLA801      0.2142
      7  O1       -17.0160   62.4410  104.8600 O.3   801  GLA801     -0.1869
      8  O2       -15.8260   61.1660  107.2540 O.3   801  GLA801     -0.2148
      9  O3       -15.5160   58.6520  106.0300 O.3   801  GLA801     -0.2174
     10  O4       -18.2770   58.1750  105.7960 O.3   801  GLA801     -0.2176
     11  O5       -18.8600   61.0700  105.1320 O.3   801  GLA801     -0.3236
     12  O6       -20.7290   60.2950  103.1430 O.3   801  GLA801     -0.2176
@<TRIPOS>BOND
     1    12     6    1
     2     6     5    1
     3     5     4    1
     4     5    11    1
     5     4     3    1
     6     4    10    1
     7     7     1    1
     8    11     1    1
     9     3     9    1
    10     3     2    1
    11     1     2    1
    12     2     8    1
