@<TRIPOS>MOLECULE
3hg5_GAL_B_1.pdb
 12 12 0 0 0
SMALL
GASTEIGER

@<TRIPOS>ATOM
      1  C1        -3.3040   70.2950   68.1020 C.3   803  GAL803      0.3024
      2  C2        -2.3780   70.4040   66.8810 C.3   803  GAL803      0.2434
      3  C3        -0.9070   70.3550   67.3120 C.3   803  GAL803      0.2199
      4  C4        -0.6280   71.3950   68.3970 C.3   803  GAL803      0.2144
      5  C5        -1.6400   71.2310   69.5440 C.3   803  GAL803      0.1836
      6  C6        -1.4270   72.2210   70.6890 C.3   803  GAL803      0.2142
      7  O1        -4.6860   70.4220   67.7400 O.3   803  GAL803     -0.1869
      8  O2        -2.6270   69.3530   65.9430 O.3   803  GAL803     -0.2148
      9  O3        -0.0380   70.5760   66.1930 O.3   803  GAL803     -0.2174
     10  O4        -0.6900   72.7030   67.8090 O.3   803  GAL803     -0.2176
     11  O5        -2.9810   71.3260   69.0410 O.3   803  GAL803     -0.3236
     12  O6        -2.6840   72.5730   71.2870 O.3   803  GAL803     -0.2176
@<TRIPOS>BOND
     1     8     2    1
     2     9     3    1
     3     2     3    1
     4     2     1    1
     5     3     4    1
     6     7     1    1
     7    10     4    1
     8     1    11    1
     9     4     5    1
    10    11     5    1
    11     5     6    1
    12     6    12    1
