@<TRIPOS>MOLECULE
3hgg_CHD_A_1.pdb
 29 32 0 0 0
SMALL
GASTEIGER

@<TRIPOS>ATOM
      1  C1       -11.5580   -1.9730  -12.1250 C.3   211  CHD211      0.0026
      2  C2       -12.2380   -0.6100  -12.1210 C.3   211  CHD211      0.0329
      3  C3       -11.6220    0.2170  -10.9950 C.3   211  CHD211      0.1520
      4  O3       -12.5890    1.1230  -10.4950 O.3   211  CHD211     -0.2232
      5  C4       -11.0700   -0.7000   -9.8980 C.3   211  CHD211      0.0330
      6  C5        -9.7800   -1.2190  -10.4950 C.3   211  CHD211      0.0050
      7  C6        -8.9070   -2.1600   -9.6760 C.3   211  CHD211      0.0330
      8  C7        -7.6310   -2.1550  -10.5080 C.3   211  CHD211      0.1519
      9  O7        -6.4630   -2.4700   -9.7510 O.3   211  CHD211     -0.2232
     10  C8        -7.9260   -2.8410  -11.8620 C.3   211  CHD211      0.0306
     11  C9        -9.3970   -3.2110  -11.8270 C.3   211  CHD211      0.0050
     12  C10      -10.0700   -1.8610  -11.8270 C.3   211  CHD211      0.0004
     13  C11       -9.9440   -4.0340  -12.9890 C.3   211  CHD211      0.0330
     14  C12       -8.9480   -4.9510  -13.6700 C.3   211  CHD211      0.1519
     15  O12       -8.4910   -6.0460  -12.8830 O.3   211  CHD211     -0.2232
     16  C13       -7.7330   -4.1320  -13.8640 C.3   211  CHD211      0.0282
     17  C14       -7.0500   -3.8800  -12.5420 C.3   211  CHD211      0.0048
     18  C15       -5.7930   -3.2950  -13.1050 C.3   211  CHD211      0.0002
     19  C16       -5.6030   -3.8420  -14.5200 C.3   211  CHD211      0.0001
     20  C17       -6.7700   -4.7460  -14.8320 C.3   211  CHD211      0.0024
     21  C18       -8.1280   -2.8060  -14.4600 C.3   211  CHD211      0.0025
     22  C19       -9.4030   -0.9520  -12.8410 C.3   211  CHD211      0.0000
     23  C20       -7.2510   -4.7760  -16.3090 C.3   211  CHD211      0.0006
     24  C21       -6.5890   -3.7660  -17.2320 C.3   211  CHD211      0.0000
     25  C22       -8.7530   -4.6390  -16.5350 C.3   211  CHD211      0.0118
     26  C23       -9.0770   -3.7100  -17.7150 C.3   211  CHD211      0.1141
     27  O25       -9.4420   -1.5580  -16.7950 O.co2 211  CHD211     -0.2457
     28  C24       -9.9870   -2.5490  -17.3220 C.2   211  CHD211      0.3649
     29  O26      -11.2370   -2.6200  -17.5030 O.co2 211  CHD211     -0.2457
@<TRIPOS>BOND
     1    26    28    1
     2    26    25    1
     3    29    28   ar
     4    28    27   ar
     5    24    23    1
     6    25    23    1
     7    23    20    1
     8    20    19    1
     9    20    16    1
    10    19    18    1
    11    21    16    1
    12    16    14    1
    13    16    17    1
    14    14    13    1
    15    14    15    1
    16    18    17    1
    17    13    11    1
    18    22    12    1
    19    17    10    1
    20     1     2    1
    21     1    12    1
    22     2     3    1
    23    10    11    1
    24    10     8    1
    25    12    11    1
    26    12     6    1
    27     3     4    1
    28     3     5    1
    29     8     9    1
    30     8     7    1
    31     6     5    1
    32     6     7    1
