@<TRIPOS>MOLECULE
3hgj_FMN_A_1.pdb
 31 33 0 0 0
SMALL
GASTEIGER

@<TRIPOS>ATOM
      1  N1         2.1460  -42.3230   36.5250 N.2   1001  FMN1001    -0.2887
      2  C2         3.3210  -42.0810   35.8830 C.1   1001  FMN1001     0.3669
      3  O2         4.2890  -41.7060   36.5660 O.2   1001  FMN1001    -0.1744
      4  N3         3.3800  -42.2000   34.4890 N.2   1001  FMN1001    -0.2300
      5  C4         2.2560  -42.5290   33.7490 C.1   1001  FMN1001     0.2513
      6  O4         2.1730  -42.1200   32.5890 O.2   1001  FMN1001    -0.2057
      7  C4A        1.0680  -42.8260   34.4110 C.2   1001  FMN1001     0.2703
      8  N5        -0.0480  -43.1910   33.6840 N.2   1001  FMN1001    -0.3882
      9  C5A       -1.2450  -43.3960   34.3590 C.2   1001  FMN1001     0.1277
     10  C6        -2.3920  -43.7810   33.6400 C.3   1001  FMN1001     0.0820
     11  C7        -3.5890  -43.9650   34.3200 C.2   1001  FMN1001    -0.0408
     12  C7M       -4.8340  -44.3820   33.5720 C.3   1001  FMN1001     0.0265
     13  C8        -3.6400  -43.7740   35.7160 C.2   1001  FMN1001    -0.0280
     14  C8M       -4.9770  -43.6770   36.4000 C.3   1001  FMN1001     0.0304
     15  C9        -2.4920  -43.4560   36.4240 C.2   1001  FMN1001     0.0123
     16  C9A       -1.2980  -43.2160   35.7560 C.2   1001  FMN1001     0.0793
     17  N10       -0.1520  -42.8440   36.4810 N.pl3 1001  FMN1001    -0.2545
     18  C10        1.0120  -42.6640   35.7980 C.2   1001  FMN1001     0.2449
     19  C1'       -0.1970  -42.3880   37.9280 C.3   1001  FMN1001     0.1336
     20  C2'       -0.7830  -40.9860   38.0280 C.3   1001  FMN1001     0.2048
     21  O2'        0.0630  -40.0900   37.2860 O.3   1001  FMN1001    -0.2185
     22  C3'       -0.9210  -40.5520   39.5020 C.3   1001  FMN1001     0.2165
     23  O3'        0.3800  -40.5040   40.0970 O.3   1001  FMN1001    -0.2175
     24  C4'       -1.7970  -41.5240   40.3310 C.3   1001  FMN1001     0.2147
     25  O4'       -2.9330  -41.9580   39.5930 O.3   1001  FMN1001    -0.2176
     26  C5'       -2.2460  -40.9710   41.6920 C.3   1001  FMN1001     0.1892
     27  O5'       -2.6970  -39.6440   41.5640 O.3   1001  FMN1001    -0.2674
     28  P         -4.2790  -39.3870   41.3850 P.3   1001  FMN1001     0.5327
     29  O1P       -4.9400  -39.9770   42.6150 O.3   1001  FMN1001    -0.1145
     30  O2P       -4.8840  -40.0650   40.2050 O.2   1001  FMN1001    -0.2224
     31  O3P       -4.5540  -37.9160   41.2990 O.3   1001  FMN1001    -0.1145
@<TRIPOS>BOND
     1     6     5    2
     2    12    11    1
     3    10    11    1
     4    10     9    1
     5     8     9    2
     6     8     7    2
     7     5     7    1
     8     5     4    2
     9    11    13    2
    10     9    16    1
    11     7    18    1
    12     4     2    2
    13    13    14    1
    14    13    15    1
    15    16    15    2
    16    16    17    1
    17    18    17    1
    18    18     1    2
    19     2     1    2
    20     2     3    2
    21    17    19    1
    22    21    20    1
    23    19    20    1
    24    20    22    1
    25    22    23    1
    26    22    24    1
    27    25    24    1
    28    30    28    2
    29    24    26    1
    30    31    28    1
    31    28    27    1
    32    28    29    1
    33    27    26    1
