@<TRIPOS>MOLECULE
3hgm_ATP_A_1.pdb
 31 33 0 0 0
SMALL
GASTEIGER

@<TRIPOS>ATOM
      1  PG        36.3020    1.3260   11.5060 P.3   148  ATP148      0.5373
      2  O1G       35.0630    0.8600   12.2360 O.3   148  ATP148     -0.1143
      3  O2G       37.5870    1.1530   12.2840 O.3   148  ATP148     -0.1143
      4  O3G       36.4040    0.8650   10.0750 O.2   148  ATP148     -0.2221
      5  PB        35.2310    3.8480   12.2650 P.3   148  ATP148      0.2277
      6  O1B       35.9620    5.1300   12.5440 O.2   148  ATP148     -0.5168
      7  O2B       34.6290    3.0650   13.4080 O.3   148  ATP148     -0.4368
      8  O3B       36.1820    2.9230   11.3520 O.3   148  ATP148     -0.2258
      9  PA        32.6420    3.5230   11.0320 P.3   148  ATP148      0.2189
     10  O1A       32.3950    2.4130   12.0100 O.3   148  ATP148     -0.4371
     11  O2A       32.4540    3.2450    9.5650 O.2   148  ATP148     -0.5170
     12  O3A       34.0810    4.2230   11.1940 O.3   148  ATP148     -0.2700
     13  O5'       31.6400    4.7210   11.4420 O.3   148  ATP148     -0.3112
     14  C5'       31.1220    5.6550   10.5010 C.3   148  ATP148      0.1813
     15  C4'       29.6810    5.9890   10.8760 C.3   148  ATP148      0.1821
     16  O4'       28.8780    4.8140   10.7530 O.3   148  ATP148     -0.3135
     17  C3'       29.4830    6.4600   12.3070 C.3   148  ATP148      0.2184
     18  O3'       29.7640    7.8460   12.5010 O.3   148  ATP148     -0.2174
     19  C2'       28.0280    6.1250   12.5220 C.3   148  ATP148      0.2570
     20  O2'       27.2200    7.1490   11.9390 O.3   148  ATP148     -0.2130
     21  C1'       27.8630    4.8210   11.7570 C.3   148  ATP148      0.3186
     22  N9        28.0180    3.6360   12.6340 N.pl3 148  ATP148     -0.1439
     23  C8        29.1280    2.8950   12.8350 C.3   148  ATP148      0.3377
     24  N7        28.8840    1.8790   13.6950 N.2   148  ATP148     -0.2095
     25  C5        27.5860    1.9640   14.0510 C.2   148  ATP148      0.2526
     26  C6        26.6620    1.2240   14.9360 C.2   148  ATP148      0.4393
     27  N6        27.0730    0.1440   15.6370 N.pl3 148  ATP148      0.2180
     28  N1        25.3880    1.6610   15.0200 N.2   148  ATP148      0.0021
     29  C2        24.9470    2.7330   14.3350 C.3   148  ATP148      0.5254
     30  N3        25.7340    3.4650   13.5260 N.2   148  ATP148     -0.0055
     31  C4        27.0290    3.1260   13.3490 C.2   148  ATP148      0.3518
@<TRIPOS>BOND
     1    11     9    2
     2     4     1    2
     3    14    15    1
     4    14    13    1
     5    16    15    1
     6    16    21    1
     7    15    17    1
     8     9    12    1
     9     9    13    1
    10     9    10    1
    11    12     5    1
    12     8     1    1
    13     8     5    1
    14     1     2    1
    15     1     3    1
    16    21    19    1
    17    21    22    1
    18    20    19    1
    19     5     6    2
    20     5     7    1
    21    17    18    1
    22    17    19    1
    23    22    23    1
    24    22    31    1
    25    23    24    1
    26    31    30    2
    27    31    25    1
    28    30    29    1
    29    24    25    2
    30    25    26    1
    31    29    28    1
    32    26    28    2
    33    26    27    1
