@<TRIPOS>MOLECULE
3hgo_FMN_A_1.pdb
 31 33 0 0 0
SMALL
GASTEIGER

@<TRIPOS>ATOM
      1  N1        22.1750   -3.8420    0.4730 N.2   401  FMN401     -0.2890
      2  C2        21.9900   -2.4780    0.4320 C.1   401  FMN401      0.3669
      3  O2        21.7650   -1.8160    1.3990 O.2   401  FMN401     -0.1744
      4  N3        22.0660   -1.8200   -0.8540 N.2   401  FMN401     -0.2300
      5  C4        22.3110   -2.4330   -2.0540 C.1   401  FMN401      0.2513
      6  O4        22.3540   -1.7830   -3.1040 O.2   401  FMN401     -0.2057
      7  C4A       22.5040   -3.9070   -2.0040 C.2   401  FMN401      0.2700
      8  N5        22.7390   -4.6200   -3.1250 N.2   401  FMN401     -0.3878
      9  C5A       22.8990   -6.0010   -3.0530 C.2   401  FMN401      0.1320
     10  C6        23.1340   -6.7840   -4.2840 C.2   401  FMN401      0.0250
     11  C7        23.2900   -8.1770   -4.2910 C.2   401  FMN401     -0.0238
     12  C7M       23.5270   -8.9730   -5.5800 C.3   401  FMN401      0.0308
     13  C8        23.2190   -8.9290   -2.9830 C.2   401  FMN401     -0.0280
     14  C8M       23.3740  -10.4230   -2.8980 C.3   401  FMN401      0.0304
     15  C9        23.0000   -8.1960   -1.8110 C.2   401  FMN401     -0.0041
     16  C9A       22.8310   -6.7540   -1.7790 C.3   401  FMN401      0.1497
     17  N10       22.5880   -5.9470   -0.5940 N.pl3 401  FMN401     -0.2691
     18  C10       22.4180   -4.5380   -0.6470 C.2   401  FMN401      0.2416
     19  C1'       22.4950   -6.5910    0.7450 C.3   401  FMN401      0.1294
     20  C2'       21.0160   -7.0270    0.8360 C.3   401  FMN401      0.2044
     21  O2'       20.0790   -5.9470    0.8390 O.3   401  FMN401     -0.2185
     22  C3'       20.5380   -7.8180    2.0330 C.3   401  FMN401      0.2164
     23  O3'       20.9350   -7.1760    3.2860 O.3   401  FMN401     -0.2175
     24  C4'       21.0240   -9.2580    2.0120 C.3   401  FMN401      0.2147
     25  O4'       20.6490   -9.8640    0.7230 O.3   401  FMN401     -0.2176
     26  C5'       20.3170   -9.9730    3.1390 C.3   401  FMN401      0.1892
     27  O5'       20.6350  -11.3620    3.2820 O.3   401  FMN401     -0.2674
     28  P         19.8430  -12.3850    2.3910 P.3   401  FMN401      0.5327
     29  O1P       20.4740  -12.4050    1.0170 O.2   401  FMN401     -0.2224
     30  O2P       18.3940  -11.9920    2.3490 O.3   401  FMN401     -0.1145
     31  O3P       20.0730  -13.7440    3.1390 O.3   401  FMN401     -0.1145
@<TRIPOS>BOND
     1    12    11    1
     2    11    10    2
     3    11    13    1
     4    10     9    1
     5     8     9    2
     6     8     7    2
     7     6     5    2
     8     9    16    1
     9    13    14    1
    10    13    15    2
    11     5     7    1
    12     5     4    2
    13     7    18    1
    14    15    16    1
    15    16    17    1
    16     4     2    2
    17    18    17    1
    18    18     1    2
    19    17    19    1
    20     2     1    2
    21     2     3    2
    22    25    24    1
    23    19    20    1
    24    20    21    1
    25    20    22    1
    26    29    28    2
    27    24    22    1
    28    24    26    1
    29    22    23    1
    30    30    28    1
    31    28    31    1
    32    28    27    1
    33    26    27    1
