@<TRIPOS>MOLECULE
3hgr_FMN_A_1.pdb
 31 33 0 0 0
SMALL
GASTEIGER

@<TRIPOS>ATOM
      1  N1         3.0380   -3.1620    0.2380 N.2   401  FMN401     -0.2890
      2  C2         1.7760   -2.6520    0.3370 C.1   401  FMN401      0.3669
      3  O2         1.2110   -2.0660   -0.5610 O.2   401  FMN401     -0.1744
      4  N3         1.0750   -2.8100    1.5730 N.2   401  FMN401     -0.2300
      5  C4         1.5550   -3.4390    2.6730 C.1   401  FMN401      0.2513
      6  O4         0.8690   -3.5150    3.6970 O.2   401  FMN401     -0.2057
      7  C4A        2.9140   -3.9990    2.5620 C.2   401  FMN401      0.2700
      8  N5         3.4900   -4.6350    3.5870 N.2   401  FMN401     -0.3878
      9  C5A        4.7710   -5.1150    3.4490 C.2   401  FMN401      0.1320
     10  C6         5.4340   -5.7860    4.5740 C.2   401  FMN401      0.0250
     11  C7         6.7150   -6.2630    4.5260 C.2   401  FMN401     -0.0238
     12  C7M        7.3990   -6.9440    5.7220 C.3   401  FMN401      0.0308
     13  C8         7.4890   -6.1200    3.2730 C.2   401  FMN401     -0.0280
     14  C8M        8.9070   -6.6260    3.1550 C.3   401  FMN401      0.0304
     15  C9         6.8710   -5.4850    2.1940 C.2   401  FMN401     -0.0041
     16  C9A        5.5490   -4.9740    2.2310 C.3   401  FMN401      0.1497
     17  N10        4.8860   -4.2930    1.1580 N.pl3 401  FMN401     -0.2691
     18  C10        3.6010   -3.7990    1.2650 C.2   401  FMN401      0.2416
     19  C1'        5.5910   -4.0530   -0.1180 C.3   401  FMN401      0.1294
     20  C2'        6.3990   -2.7550    0.1350 C.3   401  FMN401      0.2044
     21  O2'        5.5920   -1.6080    0.3430 O.3   401  FMN401     -0.2185
     22  C3'        7.4110   -2.3000   -0.9240 C.3   401  FMN401      0.2164
     23  O3'        6.7240   -2.0950   -2.1960 O.3   401  FMN401     -0.2175
     24  C4'        8.5050   -3.3170   -1.0740 C.3   401  FMN401      0.2147
     25  O4'        9.1920   -3.4370    0.1960 O.3   401  FMN401     -0.2176
     26  C5'        9.5020   -2.9170   -2.1540 C.3   401  FMN401      0.1892
     27  O5'       10.5620   -2.0810   -1.6350 O.3   401  FMN401     -0.2674
     28  P         11.9440   -2.3860   -0.9190 P.3   401  FMN401      0.5327
     29  O1P       12.8340   -3.0660   -1.9270 O.2   401  FMN401     -0.2224
     30  O2P       11.7280   -3.2050    0.3280 O.3   401  FMN401     -0.1145
     31  O3P       12.4570   -0.9410   -0.6080 O.3   401  FMN401     -0.1145
@<TRIPOS>BOND
     1    23    22    1
     2    26    27    1
     3    26    24    1
     4    29    28    2
     5    27    28    1
     6    24    22    1
     7    24    25    1
     8    22    20    1
     9    28    31    1
    10    28    30    1
    11     3     2    2
    12    19    20    1
    13    19    17    1
    14    20    21    1
    15     1     2    2
    16     1    18    2
    17     2     4    2
    18    17    18    1
    19    17    16    1
    20    18     7    1
    21     4     5    2
    22    15    16    1
    23    15    13    2
    24    16     9    1
    25     7     5    1
    26     7     8    2
    27     5     6    2
    28    14    13    1
    29    13    11    1
    30     9     8    2
    31     9    10    1
    32    11    10    2
    33    11    12    1
