@<TRIPOS>MOLECULE
3hgs_FMN_A_1.pdb
 31 33 0 0 0
SMALL
GASTEIGER

@<TRIPOS>ATOM
      1  N1        12.7510   -0.4230   37.5700 N.2   401  FMN401     -0.2890
      2  C2        13.8590   -0.5390   36.7960 C.1   401  FMN401      0.3669
      3  O2        14.4520    0.4050   36.3270 O.2   401  FMN401     -0.1744
      4  N3        14.3620   -1.8470   36.5120 N.2   401  FMN401     -0.2300
      5  C4        13.8310   -3.0020   36.9550 C.1   401  FMN401      0.2513
      6  O4        14.3460   -4.0820   36.6510 O.2   401  FMN401     -0.2057
      7  C4A       12.6340   -2.8790   37.8070 C.2   401  FMN401      0.2700
      8  N5        12.0300   -3.9520   38.3040 N.2   401  FMN401     -0.3878
      9  C5A       10.9110   -3.7920   39.0760 C.2   401  FMN401      0.1320
     10  C6        10.2330   -4.9630   39.6220 C.2   401  FMN401      0.0250
     11  C7         9.1040   -4.8980   40.3910 C.2   401  FMN401     -0.0238
     12  C7M        8.4010   -6.1510   40.9470 C.3   401  FMN401      0.0308
     13  C8         8.5250   -3.5770   40.7000 C.2   401  FMN401     -0.0280
     14  C8M        7.2850   -3.4440   41.5330 C.3   401  FMN401      0.0304
     15  C9         9.1620   -2.4390   40.1880 C.2   401  FMN401     -0.0041
     16  C9A       10.3270   -2.4910   39.3920 C.3   401  FMN401      0.1497
     17  N10       11.0100   -1.3620   38.8380 N.pl3 401  FMN401     -0.2691
     18  C10       12.1460   -1.4960   38.0610 C.2   401  FMN401      0.2416
     19  C1'       10.5010    0.0110   39.0690 C.3   401  FMN401      0.1294
     20  C2'        9.4530    0.2640   37.9660 C.3   401  FMN401      0.2044
     21  O2'       10.0060    0.3920   36.6680 O.3   401  FMN401     -0.2185
     22  C3'        8.5730    1.5180   38.0950 C.3   401  FMN401      0.2164
     23  O3'        9.4590    2.6720   38.1820 O.3   401  FMN401     -0.2175
     24  C4'        7.6890    1.5260   39.3090 C.3   401  FMN401      0.2147
     25  O4'        6.9390    0.2860   39.3520 O.3   401  FMN401     -0.2176
     26  C5'        6.7160    2.6750   39.2180 C.3   401  FMN401      0.1892
     27  O5'        5.7580    2.6540   40.2700 O.3   401  FMN401     -0.2674
     28  P          4.4120    1.8220   40.1720 P.3   401  FMN401      0.5327
     29  O1P        3.8500    2.0270   38.7920 O.2   401  FMN401     -0.2224
     30  O2P        4.7080    0.3860   40.5230 O.3   401  FMN401     -0.1145
     31  O3P        3.5100    2.5320   41.2380 O.3   401  FMN401     -0.1145
@<TRIPOS>BOND
     1     3     2    2
     2     4     2    2
     3     4     5    2
     4     6     5    2
     5    21    20    1
     6     2     1    2
     7     5     7    1
     8     1    18    2
     9     7    18    1
    10     7     8    2
    11    20    22    1
    12    20    19    1
    13    18    17    1
    14    22    23    1
    15    22    24    1
    16     8     9    2
    17    29    28    2
    18    17    19    1
    19    17    16    1
    20     9    16    1
    21     9    10    1
    22    26    24    1
    23    26    27    1
    24    24    25    1
    25    16    15    1
    26    10    11    2
    27    28    27    1
    28    28    30    1
    29    28    31    1
    30    15    13    2
    31    11    13    1
    32    11    12    1
    33    13    14    1
