@<TRIPOS>MOLECULE
3hgy_TCH_A_1.pdb
 35 38 0 0 0
SMALL
GASTEIGER

@<TRIPOS>ATOM
      1  C1        10.2890   15.9900   17.5890 C.3   211  TCH211      0.0026
      2  C2        11.5890   15.2060   17.5700 C.3   211  TCH211      0.0329
      3  C3        12.6950   16.1760   17.2350 C.3   211  TCH211      0.1520
      4  O3        13.9300   15.5950   16.8020 O.3   211  TCH211     -0.2232
      5  C4        12.8100   16.8920   18.5450 C.3   211  TCH211      0.0330
      6  C5        11.6630   17.8550   18.4620 C.3   211  TCH211      0.0050
      7  C6        11.7510   18.8370   19.5880 C.3   211  TCH211      0.0330
      8  C7        10.9210   20.0350   19.2080 C.3   211  TCH211      0.1519
      9  O7        11.4070   20.6800   18.0290 O.3   211  TCH211     -0.2232
     10  C8         9.5090   19.6590   18.8800 C.3   211  TCH211      0.0306
     11  C9         9.3150   18.2370   18.3260 C.3   211  TCH211      0.0050
     12  C10       10.3450   17.1370   18.5830 C.3   211  TCH211      0.0004
     13  C11        8.3350   18.0160   17.1860 C.3   211  TCH211      0.0330
     14  C12        7.7650   19.2610   16.5220 C.3   211  TCH211      0.1519
     15  O12        8.6250   19.5490   15.4260 O.3   211  TCH211     -0.2232
     16  C13        7.7310   20.4010   17.5140 C.3   211  TCH211      0.0282
     17  C14        9.1140   20.7450   17.9030 C.3   211  TCH211      0.0048
     18  C15        8.9160   22.0810   18.5830 C.3   211  TCH211      0.0002
     19  C16        7.4310   22.3860   18.4810 C.3   211  TCH211      0.0001
     20  C17        6.9830   21.6910   17.2250 C.3   211  TCH211      0.0024
     21  C18        7.1030   19.9110   18.7960 C.3   211  TCH211      0.0025
     22  C19       10.1670   16.4940   19.9470 C.3   211  TCH211      0.0000
     23  O1S        5.6770   28.9930   11.6780 O.3   211  TCH211     -0.3074
     24  C20        7.6500   22.5400   16.1570 C.3   211  TCH211      0.0006
     25  C21        8.2660   23.7450   16.8180 C.3   211  TCH211      0.0000
     26  C22        6.7340   23.0350   15.0640 C.3   211  TCH211      0.0096
     27  C23        7.2440   24.3840   14.5730 C.3   211  TCH211      0.0868
     28  C24        7.5660   24.3550   13.1020 C.2   211  TCH211      0.2414
     29  N24        7.9530   25.4930   12.5550 N.am  211  TCH211     -0.2037
     30  O24        7.5080   23.3260   12.4760 O.2   211  TCH211     -0.2733
     31  C25        7.1030   26.6390   12.2950 C.3   211  TCH211      0.1366
     32  C26        7.8280   27.9360   12.6410 C.3   211  TCH211      0.1286
     33  S26        7.0750   29.2900   12.0420 S.3   211  TCH211     -0.1942
     34  O2S        7.7900   29.7120   10.8360 O.3   211  TCH211     -0.3074
     35  O3S        7.1470   30.3500   13.0620 O.3   211  TCH211     -0.3074
@<TRIPOS>BOND
     1    34    33    1
     2    23    33    1
     3    33    32    1
     4    33    35    1
     5    31    29    1
     6    31    32    1
     7    30    28    2
     8    29    28   am
     9    28    27    1
    10    27    26    1
    11    26    24    1
    12    15    14    1
    13    24    25    1
    14    24    20    1
    15    14    13    1
    16    14    16    1
    17     4     3    1
    18    13    11    1
    19    20    16    1
    20    20    19    1
    21     3     2    1
    22     3     5    1
    23    16    17    1
    24    16    21    1
    25     2     1    1
    26     1    12    1
    27    17    18    1
    28    17    10    1
    29     9     8    1
    30    11    12    1
    31    11    10    1
    32     6     5    1
    33     6    12    1
    34     6     7    1
    35    19    18    1
    36    12    22    1
    37    10     8    1
    38     8     7    1
