@<TRIPOS>MOLECULE
3hgz_III_D_1.pdb
 15 14 0 0 0
SMALL
GASTEIGER

@<TRIPOS>ATOM
      1  N       -108.7140   70.8910   -9.0710 N.3     1  LYS1       -0.1231
      2  CA      -107.8180   69.9670   -8.3220 C.3     1  LYS1        0.1693
      3  C       -106.3830   70.2880   -8.7350 C.2     1  LYS1        0.2592
      4  O       -105.9520   69.9470   -9.8290 O.2     1  LYS1       -0.2718
      5  CB      -108.1880   68.5100   -8.6130 C.3     1  LYS1        0.0285
      6  CG      -107.8500   68.0590  -10.0170 C.3     1  LYS1        0.0035
      7  CD      -108.0560   66.6120  -10.1860 C.3     1  LYS1        0.0206
      8  CE      -108.0900   65.8970   -8.8750 C.3     1  LYS1        0.1093
      9  NZ      -109.0990   64.8920   -9.1590 N.3     1  LYS1       -0.1314
     10  N       -105.6520   70.9790   -7.8710 N.am    2  CYS2       -0.1970
     11  CA      -104.4260   71.6550   -8.2840 C.3     2  CYS2        0.1712
     12  C       -103.4300   70.6810   -8.9100 C.2     2  CYS2        0.2296
     13  O       -103.1930   70.7270  -10.1180 O.2     2  CYS2       -0.2864
     14  CB      -103.7990   72.3880   -7.0960 C.3     2  CYS2        0.0983
     15  SG      -102.5140   71.4100   -6.2330 S.3     2  CYS2       -0.0798
@<TRIPOS>BOND
     1     7     6    1
     2     7     8    1
     3    13    12    2
     4     6     5    1
     5     4     3    2
     6     9     8    1
     7     1     2    1
     8    12    11    1
     9     3     2    1
    10     3    10   am
    11     5     2    1
    12    11    10    1
    13    11    14    1
    14    14    15    1
