@<TRIPOS>MOLECULE
3hha_NOW_A_1.pdb
 28 29 0 0 0
SMALL
GASTEIGER

@<TRIPOS>ATOM
      1  O18       10.4590    7.7320   -4.0550 O.2   301  NOW301     -0.2667
      2  C17        9.6140    8.3290   -3.4140 C.2   301  NOW301      0.2826
      3  C19        9.9840    9.4890   -2.6100 C.ar  301  NOW301      0.1340
      4  N23       11.0890    9.5940   -1.8590 N.ar  301  NOW301     -0.2447
      5  C24       12.0990    8.5490   -1.6440 C.3   301  NOW301      0.1539
      6  N22       11.1630   10.7170   -1.2900 N.ar  301  NOW301     -0.1735
      7  C21       10.0990   11.4470   -1.6510 C.ar  301  NOW301      0.0795
      8  C25        9.8960   12.8510   -1.1560 C.3   301  NOW301      0.0372
      9  C28        8.4040   13.0760   -1.0190 C.3   301  NOW301      0.0060
     10  C27       10.5180   13.0400    0.2430 C.3   301  NOW301      0.0060
     11  C26       10.5880   13.7860   -2.1540 C.3   301  NOW301      0.0060
     12  C20        9.3220   10.6830   -2.5060 C.ar  301  NOW301      0.0398
     13  N16        8.3080    7.9420   -3.4430 N.am  301  NOW301     -0.1924
     14  C9         7.8390    6.7970   -4.2280 C.3   301  NOW301      0.1774
     15  C10        6.7820    7.2940   -5.1770 C.2   301  NOW301      0.2619
     16  N12        6.6310    6.5970   -6.3190 N.am  301  NOW301     -0.1973
     17  C13        5.6730    6.9440   -7.3600 C.3   301  NOW301      0.1637
     18  C14        4.4900    6.0440   -7.3950 C.2   301  NOW301      0.1193
     19  N15        3.5990    6.1240   -8.3420 N.2   301  NOW301     -0.1495
     20  O11        6.0810    8.2590   -4.9430 O.2   301  NOW301     -0.2715
     21  C8         7.2590    5.7310   -3.3040 C.3   301  NOW301      0.0574
     22  C5         8.2400    5.3090   -2.2150 C.ar  301  NOW301     -0.0203
     23  C3         9.5770    4.9950   -2.5240 C.ar  301  NOW301     -0.0042
     24  C1        10.4730    4.6700   -1.5230 C.ar  301  NOW301     -0.0006
     25  C6         7.8070    5.2600   -0.9190 C.ar  301  NOW301     -0.0085
     26  C4         8.6890    4.9000    0.0910 C.ar  301  NOW301     -0.0222
     27  C7         8.1830    4.8240    1.5110 C.3   301  NOW301      0.0310
     28  C2        10.0210    4.6150   -0.2200 C.ar  301  NOW301     -0.0043
@<TRIPOS>BOND
     1    19    18    2
     2    18    17    1
     3    17    16    1
     4    16    15   am
     5    15    20    2
     6    15    14    1
     7    14    13    1
     8    14    21    1
     9     1     2    2
    10    13     2   am
    11     2     3    1
    12    21    22    1
    13     3    12   ar
    14     3     4   ar
    15    23    22   ar
    16    23    24   ar
    17    12     7   ar
    18    22    25   ar
    19    11     8    1
    20     4     5    1
    21     4     6   ar
    22     7     6   ar
    23     7     8    1
    24    24    28   ar
    25     8     9    1
    26     8    10    1
    27    25    26   ar
    28    28    26   ar
    29    26    27    1
