@<TRIPOS>MOLECULE
3hhe_5RP_A_1.pdb
 14 13 0 0 0
SMALL
GASTEIGER

@<TRIPOS>ATOM
      1  C2        27.6910   72.1400   25.2500 C.3   501  5RP501      0.2536
      2  C3        28.0620   73.0320   26.4070 C.2   501  5RP501      0.2431
      3  C5        28.8940   72.7120   27.4230 C.2   501  5RP501      0.2427
      4  O13       29.1330   73.6100   28.4080 O.2   501  5RP501     -0.2854
      5  C6        29.5550   71.3560   27.5030 C.3   501  5RP501      0.2459
      6  O14       28.7580   70.3350   26.8510 O.3   501  5RP501     -0.2119
      7  C7        29.7890   70.9760   28.9760 C.3   501  5RP501      0.1946
      8  O8        28.5680   70.6750   29.6670 O.3   501  5RP501     -0.2670
      9  P9        28.5360   70.0360   31.1480 P.3   501  5RP501      0.5327
     10  O12       27.2630   69.2150   31.0840 O.2   501  5RP501     -0.2224
     11  O11       28.5450   71.2430   32.0570 O.3   501  5RP501     -0.1145
     12  O10       29.7670   69.1810   31.2880 O.3   501  5RP501     -0.1145
     13  O4        27.5050   74.2260   26.4120 O.2   501  5RP501     -0.2854
     14  O1        26.9140   72.9120   24.3260 O.3   501  5RP501     -0.2114
@<TRIPOS>BOND
     1    14     1    1
     2     1     2    1
     3     2    13    1
     4     2     3    2
     5     6     5    1
     6     3     5    1
     7     3     4    1
     8     5     7    1
     9     7     8    1
    10     8     9    1
    11    10     9    2
    12     9    12    1
    13     9    11    1
