@<TRIPOS>MOLECULE
3hhi_074_A_1.pdb
 27 27 0 0 0
SMALL
GASTEIGER

@<TRIPOS>ATOM
      1  C1         9.8530   -4.9150   43.0810 C.3   348  074348      0.0019
      2  C2         8.7490   -3.8710   43.2410 C.3   348  074348      0.0234
      3  C3         7.9920   -4.1160   44.5180 C.3   348  074348      0.1152
      4  N1         7.0480   -2.9760   44.6820 N.am  348  074348     -0.2033
      5  C4         5.7710   -3.0640   44.2740 C.2   348  074348      0.2723
      6  O1         5.2920   -3.9930   43.6050 O.2   348  074348     -0.2706
      7  C5         4.9320   -1.8110   44.5600 C.3   348  074348      0.2381
      8  O2         4.9420   -1.4590   45.9380 O.3   348  074348     -0.2127
      9  C6         5.4100   -0.5710   43.7520 C.3   348  074348      0.1292
     10  C7         4.4110    0.5170   44.0210 C.2   348  074348      0.2449
     11  O3         3.2830    0.5220   43.5200 O.2   348  074348     -0.2732
     12  N2         4.8800    1.4190   44.8920 N.am  348  074348     -0.1978
     13  C8         4.0160    2.3590   45.5160 C.3   348  074348      0.1712
     14  C13        3.4290    3.4530   44.6610 C.2   348  074348      0.2458
     15  O4         4.0160    3.9210   43.6860 O.2   348  074348     -0.2730
     16  C9         4.7840    3.0110   46.7100 C.3   348  074348      0.0289
     17  C11        5.9700    3.8640   46.2530 C.3   348  074348      0.0022
     18  C10        5.1110    2.0050   47.8290 C.3   348  074348      0.0023
     19  C12        6.3940    4.8340   47.3600 C.3   348  074348      0.0001
     20  N3         2.2530    3.9800   44.9770 N.am  348  074348     -0.2699
     21  C17        1.6510    5.1640   44.3080 C.3   348  074348      0.1791
     22  C18        2.2600    6.4980   44.9430 C.2   348  074348      0.3825
     23  O          3.0850    6.3780   45.8980 O.co2 348  074348     -0.2438
     24  C16        0.1910    5.0560   44.6550 C.3   348  074348      0.0332
     25  C15        0.1810    4.3880   46.0110 C.3   348  074348      0.0238
     26  C14        1.4160    3.4890   46.0980 C.3   348  074348      0.0940
     27  OT         1.9120    7.6070   44.4340 O.co2 348  074348     -0.2438
@<TRIPOS>BOND
     1     1     2    1
     2     2     3    1
     3    11    10    2
     4     6     5    2
     5    15    14    2
     6     9    10    1
     7     9     7    1
     8    10    12   am
     9     5     7    1
    10     5     4   am
    11    21    24    1
    12    21    22    1
    13    21    20    1
    14    27    22   ar
    15     3     4    1
    16     7     8    1
    17    24    25    1
    18    14    20   am
    19    14    13    1
    20    12    13    1
    21    22    23   ar
    22    20    26    1
    23    13    16    1
    24    25    26    1
    25    17    16    1
    26    17    19    1
    27    16    18    1
