@<TRIPOS>MOLECULE
3hhk_77Z_A_1.pdb
 34 37 0 0 0
SMALL
GASTEIGER

@<TRIPOS>ATOM
      1  O55       96.4530   44.1150   42.6400 O.2   564  77Z564     -0.2689
      2  C51       96.6660   45.2750   42.9630 C.2   564  77Z564      0.2909
      3  N54       97.1600   46.2440   42.1350 N.am  564  77Z564     -0.0856
      4  C50       96.4120   45.8030   44.3400 C.3   564  77Z564      0.2310
      5  O49       95.7730   44.7140   44.9930 O.3   564  77Z564     -0.3378
      6  C19       95.5680   45.0060   46.3310 C.3   564  77Z564      0.1614
      7  C18       94.7170   44.1640   47.0100 C.2   564  77Z564      0.0101
      8  C20       96.1720   46.0650   46.9780 C.2   564  77Z564      0.0305
      9  C14       95.8820   46.2410   48.3140 C.2   564  77Z564      0.1585
     10  S15       96.6150   47.5830   49.2040 S.O2  564  77Z564      0.1112
     11  O21       95.7510   48.7110   48.9280 O.2   564  77Z564     -0.1456
     12  O22       98.0110   47.6000   48.8140 O.2   564  77Z564     -0.1456
     13  N16       96.5460   47.1320   50.7650 N.2   564  77Z564     -0.0613
     14  C13       95.0320   45.4150   49.0120 C.2   564  77Z564      0.1614
     15  C17       94.4450   44.3630   48.3440 C.2   564  77Z564      0.0325
     16  N12       94.7560   45.6280   50.3680 N.2   564  77Z564     -0.3475
     17  C11       95.6710   46.2690   51.1690 C.1   564  77Z564      0.1141
     18  C9        95.7270   45.8800   52.5910 C.ar  564  77Z564      0.1700
     19  C8        94.9750   44.7250   53.1330 C.ar  564  77Z564      0.2744
     20  O24       94.2560   44.0810   52.3800 O.2   564  77Z564     -0.2661
     21  C10       96.5260   46.5940   53.3960 C.ar  564  77Z564      0.2120
     22  O23       97.2660   47.6760   52.9870 O.3   564  77Z564     -0.2856
     23  C4        96.6640   46.2720   54.7970 C.ar  564  77Z564      0.0557
     24  C5        97.4960   47.0280   55.5950 C.ar  564  77Z564      0.0047
     25  C6        97.6390   46.7210   56.9280 C.ar  564  77Z564      0.0002
     26  C3        95.9720   45.2050   55.3210 C.ar  564  77Z564      0.0656
     27  C2        96.1150   44.9000   56.6580 C.ar  564  77Z564      0.0174
     28  C1        96.9470   45.6540   57.4540 C.ar  564  77Z564      0.0015
     29  N7        95.1310   44.4500   54.4810 N.ar  564  77Z564     -0.2948
     30  C33       94.4010   43.3330   55.0440 C.3   564  77Z564      0.1091
     31  C34       93.1600   43.7400   55.8280 C.3   564  77Z564      0.0246
     32  C37       92.1600   44.5840   55.0600 C.3   564  77Z564      0.0019
     33  C44       91.1420   45.1740   56.0060 C.3   564  77Z564      0.0001
     34  C40       91.4220   43.7500   54.0440 C.3   564  77Z564      0.0001
@<TRIPOS>BOND
     1     3     2   am
     2     1     2    2
     3     2     4    1
     4     4     5    1
     5     5     6    1
     6     6     8    1
     7     6     7    1
     8     8     9    2
     9     7    15    2
    10     9    14    1
    11     9    10    1
    12    15    14    1
    13    12    10    2
    14    11    10    2
    15    14    16    2
    16    10    13    1
    17    16    17    2
    18    13    17    2
    19    17    18    1
    20    20    19    2
    21    18    19   ar
    22    18    21   ar
    23    22    21    1
    24    19    29   ar
    25    21    23   ar
    26    34    32    1
    27    29    30    1
    28    29    26   ar
    29    23    26   ar
    30    23    24   ar
    31    30    31    1
    32    32    31    1
    33    32    33    1
    34    26    27   ar
    35    24    25   ar
    36    27    28   ar
    37    25    28   ar
