@<TRIPOS>MOLECULE
3hhm_KWT_A_1.pdb
 31 34 0 0 0
SMALL
GASTEIGER

@<TRIPOS>ATOM
      1  C1        60.7470   60.3390  113.7990 C.3   1833  KWT1833     0.1988
      2  O1        61.7350   59.3080  114.0360 O.3   1833  KWT1833    -0.4468
      3  C9        61.1520   61.3550  112.7000 C.3   1833  KWT1833     0.0499
      4  C23       59.3110   59.7840  113.6550 C.3   1833  KWT1833     0.1856
      5  C2        62.3490   58.7430  112.8480 C.2   1833  KWT1833     0.3372
      6  O2        63.2390   57.9180  112.9500 O.2   1833  KWT1833    -0.2453
      7  C3        61.8690   59.1740  111.5500 C.2   1833  KWT1833     0.0561
      8  C4        61.3750   60.5450  111.4240 C.3   1833  KWT1833     0.0699
      9  C19       61.8660   58.3110  110.5480 C.2   1833  KWT1833     0.0021
     10  C5        61.1350   61.0340  110.2040 C.3   1833  KWT1833     0.2129
     11  C6        60.3320   62.2280  110.0380 C.2   1833  KWT1833     0.1807
     12  O5        61.6180   60.4370  109.1200 O.3   1833  KWT1833    -0.2148
     13  O3        59.7080   62.3970  109.0070 O.2   1833  KWT1833    -0.2934
     14  C7        60.3330   63.2000  111.1730 C.3   1833  KWT1833     0.0642
     15  O6        59.0530   62.7640  114.7380 O.3   1833  KWT1833    -0.4522
     16  C11       59.8800   63.4300  113.7390 C.3   1833  KWT1833     0.1697
     17  C21       58.6100   63.3670  116.0330 C.2   1833  KWT1833     0.3174
     18  C8        60.0920   62.4730  112.5090 C.3   1833  KWT1833     0.0510
     19  C15       59.3230   64.3320  111.0550 C.3   1833  KWT1833     0.0142
     20  C10       62.4970   62.0020  113.0450 C.3   1833  KWT1833     0.0042
     21  C12       59.3020   64.8330  113.4350 C.3   1833  KWT1833     0.0506
     22  C13       59.7200   65.3690  112.0780 C.3   1833  KWT1833     0.0554
     23  C14       61.2030   65.7490  112.0670 C.3   1833  KWT1833     0.0075
     24  C18       58.9110   66.5310  111.6010 C.2   1833  KWT1833     0.1500
     25  C16       59.0910   65.0690  109.7380 C.3   1833  KWT1833     0.0086
     26  C17       58.5030   66.4190  110.1480 C.3   1833  KWT1833     0.0645
     27  O4        58.6220   67.4690  112.3190 O.2   1833  KWT1833    -0.2961
     28  O7        57.5710   62.9380  116.5310 O.2   1833  KWT1833    -0.2501
     29  C22       59.3620   64.4410  116.7800 C.3   1833  KWT1833     0.1212
     30  O8        59.2290   58.3810  113.4210 O.3   1833  KWT1833    -0.3473
     31  C24       57.8730   57.9770  113.2090 C.3   1833  KWT1833     0.1743
@<TRIPOS>BOND
     1    13    11    2
     2    12    10    1
     3    25    26    1
     4    25    19    1
     5    11    10    1
     6    11    14    1
     7    26    24    1
     8    10     8    1
     9     9     7    2
    10    19    14    1
    11    19    22    1
    12    14    18    1
    13     8     7    1
    14     8     3    1
    15     7     5    1
    16    24    22    1
    17    24    27    2
    18    23    22    1
    19    22    21    1
    20    18     3    1
    21    18    16    1
    22     3    20    1
    23     3     1    1
    24     5     6    2
    25     5     2    1
    26    31    30    1
    27    30     4    1
    28    21    16    1
    29     4     1    1
    30    16    15    1
    31     1     2    1
    32    15    17    1
    33    17    28    2
    34    17    29    1
