@<TRIPOS>MOLECULE
3hhu_819_A_1.pdb
 30 32 0 0 0
SMALL
GASTEIGER

@<TRIPOS>ATOM
      1  C1         5.2570  -41.5480    1.5280 C.3   500  819500      0.0513
      2  C2         4.8970  -42.0290    0.1190 C.3   500  819500      0.2103
      3  O3         4.2350  -40.9710   -0.6260 O.3   500  819500     -0.4335
      4  C4         5.1000  -39.9460   -0.9420 C.2   500  819500      0.4214
      5  O5         6.3080  -40.0830   -0.7190 O.2   500  819500     -0.2246
      6  N6         4.6050  -38.8660   -1.5590 N.am  500  819500     -0.1639
      7  C8         3.2030  -38.7750   -1.9970 C.3   500  819500      0.1450
      8  C9         2.3090  -38.3160   -0.9170 C.ar  500  819500     -0.0002
      9  C12        2.7910  -37.6010    0.2000 C.ar  500  819500      0.0010
     10  C13        1.8870  -37.0330    1.1190 C.ar  500  819500      0.0412
     11  C10        0.9230  -38.4590   -1.1060 C.ar  500  819500      0.0010
     12  C11        0.0190  -37.8920   -0.1900 C.ar  500  819500      0.0412
     13  C14        0.4950  -37.1730    0.9270 C.ar  500  819500      0.1532
     14  N15       -0.3780  -36.5770    1.7790 N.am  500  819500     -0.0943
     15  C16       -0.7360  -37.0400    2.9590 C.1   500  819500      0.1841
     16  S17       -0.1510  -38.4890    3.7070 S.2   500  819500      0.0565
     17  N18       -1.6130  -36.1970    3.5000 N.2   500  819500      0.0478
     18  N20       -1.7960  -35.2480    2.7010 N.2   500  819500      0.0930
     19  C21       -1.0460  -35.4220    1.5930 C.2   500  819500      0.3713
     20  C22       -0.9780  -34.5460    0.4830 C.ar  500  819500      0.1247
     21  C23        0.2700  -34.0240    0.0880 C.ar  500  819500      0.0096
     22  C24        0.3970  -33.2730   -1.0950 C.ar  500  819500      0.0169
     23  C25        1.7670  -32.6880   -1.5090 C.3   500  819500      0.0255
     24  C27        2.0020  -31.3650   -0.7710 C.3   500  819500      0.0048
     25  C26        2.9060  -33.6820   -1.2260 C.3   500  819500      0.0048
     26  C28       -0.7400  -33.0370   -1.8930 C.ar  500  819500      0.1949
     27  O29       -0.6190  -32.3760   -3.0770 O.3   500  819500     -0.2868
     28  C31       -1.9950  -33.5330   -1.4950 C.ar  500  819500      0.0839
     29  C32       -2.1230  -34.2800   -0.3090 C.ar  500  819500      0.2061
     30  O33       -3.3600  -34.6710    0.0980 O.3   500  819500     -0.2862
@<TRIPOS>BOND
     1    27    26    1
     2     7     6    1
     3     7     8    1
     4    26    28   ar
     5    26    22   ar
     6     6     4   am
     7    23    25    1
     8    23    22    1
     9    23    24    1
    10    28    29   ar
    11    11     8   ar
    12    11    12   ar
    13    22    21   ar
    14     4     5    2
    15     4     3    1
    16     8     9   ar
    17     3     2    1
    18    29    30    1
    19    29    20   ar
    20    12    13   ar
    21    21    20   ar
    22     2     1    1
    23     9    10   ar
    24    20    19    1
    25    13    10   ar
    26    13    14    1
    27    19    14    1
    28    19    18    2
    29    14    15    1
    30    18    17    1
    31    15    17    2
    32    15    16    2
