@<TRIPOS>MOLECULE
3hig_BRN_A_1.pdb
 21 22 0 0 0
SMALL
GASTEIGER

@<TRIPOS>ATOM
      1  C1       -29.1450  -11.3280   77.5840 C.ar  901  BRN901      0.0931
      2  C2       -30.1170  -10.4880   77.0350 C.ar  901  BRN901      0.0186
      3  C3       -30.7170   -9.5070   77.8210 C.ar  901  BRN901      0.0094
      4  C4       -30.4400   -9.4270   79.1830 C.ar  901  BRN901      0.0976
      5  C5       -29.4720  -10.2650   79.7430 C.ar  901  BRN901      0.0094
      6  C6       -28.8270  -11.2070   78.9410 C.ar  901  BRN901      0.0186
      7  C7       -31.1530   -8.4080   80.0180 C.2   901  BRN901      0.4766
      8  NA       -32.3130   -8.0370   79.7110 N.pl3 901  BRN901      0.2047
      9  NB       -30.5470   -7.8040   81.0280 N.pl3 901  BRN901      0.2047
     10  N1       -28.4990  -12.2580   76.8390 N.pl3 901  BRN901     -0.0979
     11  N        -28.8090  -12.5200   75.5710 N.2   901  BRN901     -0.0535
     12  N1'      -28.1610  -13.3860   74.9300 N.2   901  BRN901     -0.1308
     13  C1'      -28.4730  -13.6650   73.5900 C.ar  901  BRN901      0.1044
     14  C2'      -29.8160  -13.6940   73.2480 C.ar  901  BRN901      0.0212
     15  C3'      -30.2050  -13.9800   71.9550 C.ar  901  BRN901      0.0096
     16  C4'      -29.2720  -14.2330   70.9610 C.ar  901  BRN901      0.0976
     17  C5'      -27.9180  -14.2090   71.2870 C.ar  901  BRN901      0.0096
     18  C6'      -27.5230  -13.9350   72.6050 C.ar  901  BRN901      0.0212
     19  C7'      -29.8050  -14.5440   69.5940 C.2   901  BRN901      0.4766
     20  NA'      -30.9020  -15.1790   69.5270 N.pl3 901  BRN901      0.2047
     21  NB'      -29.1250  -14.2530   68.4860 N.pl3 901  BRN901      0.2047
@<TRIPOS>BOND
     1    21    19    2
     2    20    19    1
     3    19    16    1
     4    16    17   ar
     5    16    15   ar
     6    17    18   ar
     7    15    14   ar
     8    18    13   ar
     9    14    13   ar
    10    13    12    1
    11    12    11    2
    12    11    10    1
    13    10     1    1
    14     2     1   ar
    15     2     3   ar
    16     1     6   ar
    17     3     4   ar
    18     6     5   ar
    19     4     5   ar
    20     4     7    1
    21     8     7    2
    22     7     9    1
