@<TRIPOS>MOLECULE
3hii_PNT_A_1.pdb
 25 26 0 0 0
SMALL
GASTEIGER

@<TRIPOS>ATOM
      1  C1       -28.3070  -13.4570   73.1330 C.ar  901  PNT901      0.1386
      2  C2       -27.3080  -13.6030   72.1840 C.ar  901  PNT901      0.0372
      3  C3       -27.6270  -13.8790   70.8610 C.ar  901  PNT901      0.0111
      4  C4       -28.9540  -14.0140   70.4850 C.ar  901  PNT901      0.0977
      5  C5       -29.9570  -13.8850   71.4380 C.ar  901  PNT901      0.0111
      6  C6       -29.6320  -13.6100   72.7570 C.ar  901  PNT901      0.0372
      7  C7       -28.3350  -12.1160   75.2200 C.3   901  PNT901      0.2054
      8  C8       -29.6970  -12.3080   75.8240 C.3   901  PNT901      0.0475
      9  C9       -29.3220  -14.3200   69.0770 C.2   901  PNT901      0.4766
     10  C10      -30.7090  -11.4320   75.1000 C.3   901  PNT901      0.0077
     11  C1'      -34.1200   -9.6500   73.9860 C.ar  901  PNT901      0.1386
     12  C2'      -35.1620  -10.5300   73.6920 C.ar  901  PNT901      0.0372
     13  C3'      -36.2790  -10.0830   72.9950 C.ar  901  PNT901      0.0111
     14  C4'      -36.3690   -8.7560   72.5940 C.ar  901  PNT901      0.0977
     15  C5'      -35.3330   -7.8730   72.8910 C.ar  901  PNT901      0.0111
     16  C6'      -34.2100   -8.3160   73.5820 C.ar  901  PNT901      0.0372
     17  C7'      -31.9200   -9.2880   75.0050 C.3   901  PNT901      0.2054
     18  C8'      -30.9000  -10.0920   75.7860 C.3   901  PNT901      0.0475
     19  C9'      -37.5800   -8.2700   71.8560 C.2   901  PNT901      0.4766
     20  O1       -27.9580  -13.2270   74.4360 O.3   901  PNT901     -0.4755
     21  O1'      -33.0300  -10.1240   74.6720 O.3   901  PNT901     -0.4755
     22  N1       -28.6640  -13.8820   68.0960 N.pl3 901  PNT901      0.2047
     23  N2       -30.3680  -15.1110   68.8550 N.pl3 901  PNT901      0.2047
     24  N1'      -38.0680   -8.9750   70.9310 N.pl3 901  PNT901      0.2047
     25  N2'      -38.1400   -7.1010   72.1840 N.pl3 901  PNT901      0.2047
@<TRIPOS>BOND
     1    22     9    2
     2    23     9    1
     3     9     4    1
     4     4     3   ar
     5     4     5   ar
     6     3     2   ar
     7    24    19    2
     8     5     6   ar
     9    19    25    1
    10    19    14    1
    11     2     1   ar
    12    14    15   ar
    13    14    13   ar
    14     6     1   ar
    15    15    16   ar
    16    13    12   ar
    17     1    20    1
    18    16    11   ar
    19    12    11   ar
    20    11    21    1
    21    20     7    1
    22    21    17    1
    23    17    18    1
    24    10    18    1
    25    10     8    1
    26     7     8    1
