@<TRIPOS>MOLECULE
3hik_III_B_1.pdb
 46 47 0 0 0
SMALL
GASTEIGER

@<TRIPOS>ATOM
      1  C        -13.2100    7.2440   -4.4550 C.2     0  ACE0        0.2264
      2  O        -13.5360    8.4060   -4.8380 O.2     0  ACE0       -0.2748
      3  CH3      -12.6110    7.0330   -3.0930 C.3     0  ACE0        0.0948
      4  N        -13.0530    6.2230   -5.3280 N.am    1  PRO1       -0.2729
      5  CA       -13.0720    4.8280   -4.9470 C.3     1  PRO1        0.1535
      6  C        -11.7430    4.4610   -4.3080 C.2     1  PRO1        0.2598
      7  O        -10.7050    4.9060   -4.7870 O.2     1  PRO1       -0.2715
      8  CB       -13.1790    4.1050   -6.3020 C.3     1  PRO1        0.0310
      9  CG       -13.8460    5.0630   -7.2210 C.3     1  PRO1        0.0237
     10  CD       -13.7620    6.4550   -6.6020 C.3     1  PRO1        0.0939
     11  N        -11.7590    3.5780   -3.3010 N.am    2  LEU2       -0.1964
     12  CA       -10.5570    3.1890   -2.5970 C.3     2  LEU2        0.1728
     13  C         -9.8790    1.9000   -3.0730 C.2     2  LEU2        0.2616
     14  O         -8.8280    1.5210   -2.5830 O.2     2  LEU2       -0.2715
     15  CB       -10.8820    3.0730   -1.0940 C.3     2  LEU2        0.0311
     16  CG       -11.3190    4.4080   -0.4560 C.3     2  LEU2        0.0022
     17  CD1      -12.1570    4.1340    0.7940 C.3     2  LEU2        0.0001
     18  CD2      -10.1310    5.3040   -0.1460 C.3     2  LEU2        0.0001
     19  N        -10.4820    1.2450   -4.0600 N.am    3  HIS3       -0.1959
     20  CA        -9.8670    0.1120   -4.6890 C.3     3  HIS3        0.1784
     21  C        -10.5180   -0.0670   -6.0260 C.2     3  HIS3        0.2621
     22  O        -11.5680    0.5060   -6.2680 O.2     3  HIS3       -0.2715
     23  CB        -9.9280   -1.1870   -3.8250 C.3     3  HIS3        0.0745
     24  CG       -11.3100   -1.6220   -3.4260 C.2     3  HIS3        0.0653
     25  ND1      -12.2460   -2.0610   -4.3370 N.2     3  HIS3       -0.2310
     26  CD2      -11.8930   -1.7380   -2.2080 C.3     3  HIS3        0.1683
     27  CE1      -13.3530   -2.4150   -3.7040 C.2     3  HIS3        0.1939
     28  NE2      -13.1640   -2.2320   -2.4090 N.2     3  HIS3       -0.2440
     29  N         -9.8590   -0.8480   -6.8790 N.am    4  SER4       -0.1936
     30  CA       -10.4210   -1.1900   -8.1880 C.3     4  SER4        0.2055
     31  C        -11.7150   -2.0380   -8.0720 C.2     4  SER4        0.2644
     32  O        -12.0790   -2.5180   -6.9800 O.2     4  SER4       -0.2714
     33  CB        -9.3450   -1.8560   -9.0240 C.3     4  SER4        0.2130
     34  OG        -8.9080   -3.0680   -8.4890 O.3     4  SER4       -0.2179
     35  N        -12.4130   -2.2310   -9.2040 N.am    5  THR5       -0.1915
     36  CA       -13.7020   -2.9650   -9.2220 C.3     5  THR5        0.2251
     37  CB       -14.1210   -3.0660  -10.6920 C.3     5  THR5        0.1572
     38  CG2      -15.5350   -3.6330  -10.8710 C.3     5  THR5        0.0351
     39  OG1      -14.1280   -1.7300  -11.2100 O.3     5  THR5       -0.2704
     40  P        -13.0730   -1.2840  -12.3710 P.3     5  THR5        0.5326
     41  O1P      -13.3130   -2.3190  -13.4580 O.2     5  THR5       -0.2224
     42  O2P      -11.7110   -1.2950  -11.7900 O.3     5  THR5       -0.1145
     43  O3P      -13.6520    0.0580  -12.6330 O.3     5  THR5       -0.1145
     44  C        -13.5840   -4.3270   -8.6100 C.2     5  THR5        0.3867
     45  O        -12.7030   -5.1040   -9.0010 O.co2   5  THR5       -0.2437
     46  OXT      -14.3420   -4.6590   -7.6550 O.co2   5  THR5       -0.2437
@<TRIPOS>BOND
     1    41    40    2
     2    43    40    1
     3    40    42    1
     4    40    39    1
     5    39    37    1
     6    38    37    1
     7    37    36    1
     8    36    35    1
     9    36    44    1
    10    35    31   am
    11    33    34    1
    12    33    30    1
    13    45    44   ar
    14    44    46   ar
    15    30    31    1
    16    30    29    1
    17    31    32    2
    18     9    10    1
    19     9     8    1
    20    29    21   am
    21    10     4    1
    22     8     5    1
    23    22    21    2
    24    21    20    1
    25     4     5    1
    26     4     1   am
    27     5     6    1
    28     2     1    2
    29     7     6    2
    30    20    19    1
    31    20    23    1
    32     1     3    1
    33    25    27    1
    34    25    24    2
    35     6    11   am
    36    19    13   am
    37    23    24    1
    38    27    28    2
    39    24    26    1
    40    11    12    1
    41    13    12    1
    42    13    14    2
    43    12    15    1
    44    28    26    1
    45    15    16    1
    46    16    18    1
    47    16    17    1
