@<TRIPOS>MOLECULE
3hiy_UTP_A_1.pdb
 29 30 0 0 0
SMALL
GASTEIGER

@<TRIPOS>ATOM
      1  PA        61.0980   19.2920    4.9890 P.3   501  UTP501      0.2189
      2  O1A       60.6890   20.7720    4.9070 O.2   501  UTP501     -0.5170
      3  O2A       62.0910   18.9450    6.0620 O.3   501  UTP501     -0.4371
      4  O3A       59.8120   18.3380    5.1930 O.3   501  UTP501     -0.2700
      5  O5'       61.7010   18.7940    3.5760 O.3   501  UTP501     -0.3112
      6  PB        58.3120   18.7120    4.7220 P.3   501  UTP501      0.2277
      7  O1B       58.3150   19.8980    3.7960 O.2   501  UTP501     -0.5168
      8  O2B       57.6670   17.4420    4.2920 O.3   501  UTP501     -0.4368
      9  O3B       57.5290   19.0670    6.0890 O.3   501  UTP501     -0.2258
     10  PG        57.5320   20.4030    7.0000 P.3   501  UTP501      0.5373
     11  O1G       57.9200   19.8560    8.3540 O.3   501  UTP501     -0.1143
     12  O2G       56.1230   20.8830    6.8510 O.3   501  UTP501     -0.1143
     13  O3G       58.5540   21.3230    6.3960 O.2   501  UTP501     -0.2221
     14  C5'       61.1010   19.1800    2.3420 C.3   501  UTP501      0.1813
     15  C4'       60.9950   18.0270    1.3390 C.3   501  UTP501      0.1799
     16  O4'       62.2640   17.5060    0.8870 O.3   501  UTP501     -0.3320
     17  C1'       62.1230   16.1470    0.4940 C.3   501  UTP501      0.2401
     18  C2'       60.6470   15.8940    0.6620 C.3   501  UTP501      0.2319
     19  O2'       60.0010   16.3940   -0.5140 O.3   501  UTP501     -0.2157
     20  C3'       60.2740   16.7860    1.8260 C.3   501  UTP501      0.2158
     21  O3'       58.8580   16.9290    1.8740 O.3   501  UTP501     -0.2175
     22  N1        62.9010   15.2490    1.3660 N.am  501  UTP501     -0.1766
     23  C6        63.3030   15.6600    2.5930 C.2   501  UTP501      0.0929
     24  C2        63.2370   14.0260    0.9220 C.1   501  UTP501      0.2845
     25  O2        62.8780   13.6370   -0.1980 O.2   501  UTP501     -0.1918
     26  N3        63.9470   13.1840    1.6840 N.2   501  UTP501     -0.2452
     27  C4        64.3560   13.5580    2.9140 C.1   501  UTP501      0.2182
     28  O4        65.0620   12.6960    3.6670 O.2   501  UTP501     -0.2085
     29  C5        64.0460   14.8170    3.4080 C.2   501  UTP501      0.1242
@<TRIPOS>BOND
     1    19    18    1
     2    25    24    2
     3    17    18    1
     4    17    16    1
     5    17    22    1
     6    18    20    1
     7    16    15    1
     8    24    22   am
     9    24    26    2
    10    15    20    1
    11    15    14    1
    12    22    23    1
    13    26    27    2
    14    20    21    1
    15    14     5    1
    16    23    29    2
    17    27    29    1
    18    27    28    2
    19     5     1    1
    20     7     6    2
    21     8     6    1
    22     6     4    1
    23     6     9    1
    24     2     1    2
    25     1     4    1
    26     1     3    1
    27     9    10    1
    28    13    10    2
    29    12    10    1
    30    10    11    1
