@<TRIPOS>MOLECULE
3hj0_A93_A_1.pdb
 19 20 0 0 0
SMALL
GASTEIGER

@<TRIPOS>ATOM
      1  CAE       -0.5720   -0.6270   -0.3170 C.2   128  A93128      0.2342
      2  OAE        0.4340   -0.2830    0.2950 O.2   128  A93128     -0.2831
      3  CAQ       -1.0610    0.1990   -1.4830 C.ar  128  A93128      0.0422
      4  CAI       -1.9230    1.2100   -1.0880 C.ar  128  A93128      0.0033
      5  CAH       -2.4660    2.0610   -2.0210 C.ar  128  A93128      0.0001
      6  CAJ       -2.1330    1.9090   -3.3580 C.ar  128  A93128      0.0000
      7  CAR       -1.2750    0.9120   -3.7990 C.ar  128  A93128      0.0001
      8  CAM       -0.7170    0.0420   -2.8510 C.ar  128  A93128      0.0033
      9  CAF       -1.0450    0.9010   -5.2840 C.2   128  A93128      0.0000
     10  CAG       -0.4260   -0.0550   -5.9790 C.2   128  A93128     -0.0000
     11  CAS       -0.2840   -0.0130   -7.4720 C.ar  128  A93128     -0.0004
     12  CAL        0.1110   -1.1630   -8.1650 C.ar  128  A93128     -0.0011
     13  CAO        0.2300   -1.1780   -9.5660 C.ar  128  A93128      0.0167
     14  CAB        0.6480   -2.4220  -10.3170 C.3   128  A93128      0.0344
     15  CAP       -0.0360    0.0050  -10.2590 C.ar  128  A93128      0.1877
     16  OAD        0.0700    0.0250  -11.6290 O.3   128  A93128     -0.2872
     17  CAN       -0.4130    1.1760   -9.5980 C.ar  128  A93128      0.0167
     18  CAA       -0.7140    2.4340  -10.3870 C.3   128  A93128      0.0344
     19  CAK       -0.5320    1.1540   -8.2000 C.ar  128  A93128     -0.0011
@<TRIPOS>BOND
     1    16    15    1
     2    18    17    1
     3    14    13    1
     4    15    17   ar
     5    15    13   ar
     6    17    19   ar
     7    13    12   ar
     8    19    11   ar
     9    12    11   ar
    10    11    10    1
    11    10     9    2
    12     9     7    1
    13     7     6   ar
    14     7     8   ar
    15     6     5   ar
    16     8     3   ar
    17     5     4   ar
    18     3     4   ar
    19     3     1    1
    20     1     2    2
