@<TRIPOS>MOLECULE
3hj1_UTP_A_1.pdb
 29 30 0 0 0
SMALL
GASTEIGER

@<TRIPOS>ATOM
      1  PA        61.2080   17.8770    4.9200 P.3   501  UTP501      0.2189
      2  O1A       61.4270   19.3040    5.3570 O.2   501  UTP501     -0.5170
      3  O2A       61.5850   16.7190    5.8140 O.3   501  UTP501     -0.4371
      4  O3A       59.6420   17.6470    4.4850 O.3   501  UTP501     -0.2700
      5  O5'       61.9600   17.7350    3.4950 O.3   501  UTP501     -0.3112
      6  PB        58.3630   18.6290    4.7370 P.3   501  UTP501      0.2277
      7  O1B       58.5130   19.8670    3.8710 O.2   501  UTP501     -0.5168
      8  O2B       57.1570   17.7440    4.4890 O.3   501  UTP501     -0.4368
      9  O3B       58.4080   18.9590    6.3250 O.3   501  UTP501     -0.2258
     10  PG        57.9560   20.3150    7.1170 P.3   501  UTP501      0.5373
     11  O1G       58.1400   19.9390    8.5720 O.3   501  UTP501     -0.1143
     12  O2G       56.5020   20.6360    6.7970 O.3   501  UTP501     -0.1143
     13  O3G       58.9920   21.3050    6.6100 O.2   501  UTP501     -0.2221
     14  C5'       61.5020   18.5700    2.4290 C.3   501  UTP501      0.1813
     15  C4'       61.5540   17.8960    1.0710 C.3   501  UTP501      0.1799
     16  O4'       62.8770   17.4180    0.7870 O.3   501  UTP501     -0.3320
     17  C1'       62.8250   16.0770    0.2710 C.3   501  UTP501      0.2401
     18  C2'       61.3600   15.7830    0.0090 C.3   501  UTP501      0.2319
     19  O2'       61.0760   16.1850   -1.3380 O.3   501  UTP501     -0.2157
     20  C3'       60.6130   16.7070    0.9450 C.3   501  UTP501      0.2158
     21  O3'       59.3400   17.0830    0.4040 O.3   501  UTP501     -0.2175
     22  N1        63.4640   15.1190    1.2060 N.am  501  UTP501     -0.1766
     23  C6        63.6500   15.4500    2.5040 C.2   501  UTP501      0.0929
     24  C2        63.8890   13.9120    0.7530 C.1   501  UTP501      0.2845
     25  O2        63.7210   13.5890   -0.4480 O.2   501  UTP501     -0.1918
     26  N3        64.4880   13.0210    1.5840 N.2   501  UTP501     -0.2452
     27  C4        64.6880   13.3250    2.8950 C.1   501  UTP501      0.2182
     28  O4        65.2940   12.4220    3.7180 O.2   501  UTP501     -0.2085
     29  C5        64.2670   14.5630    3.3880 C.2   501  UTP501      0.1242
@<TRIPOS>BOND
     1    19    18    1
     2    25    24    2
     3    18    17    1
     4    18    20    1
     5    17    16    1
     6    17    22    1
     7    21    20    1
     8    24    22   am
     9    24    26    2
    10    16    15    1
    11    20    15    1
    12    15    14    1
    13    22    23    1
    14    26    27    2
    15    14     5    1
    16    23    29    2
    17    27    29    1
    18    27    28    2
    19     5     1    1
    20     7     6    2
    21     4     6    1
    22     4     1    1
    23     8     6    1
    24     6     9    1
    25     1     2    2
    26     1     3    1
    27     9    10    1
    28    13    10    2
    29    12    10    1
    30    10    11    1
