@<TRIPOS>MOLECULE
3hj3_UMP_A_1.pdb
 20 21 0 0 0
SMALL
GASTEIGER

@<TRIPOS>ATOM
      1  N1        34.8060  -20.8740   -2.8840 N.am  603  UMP603     -0.2018
      2  C2        34.1840  -21.4770   -1.7280 C.1   603  UMP603      0.2802
      3  N3        34.9030  -21.7420   -0.6170 N.2   603  UMP603     -0.2497
      4  C4        36.2470  -21.6430   -0.5500 C.1   603  UMP603      0.1941
      5  C5        37.0760  -21.2530   -1.8030 C.3   603  UMP603      0.1579
      6  C6        36.2510  -20.4280   -2.8120 C.3   603  UMP603      0.1249
      7  O2        32.9610  -21.6550   -1.7060 O.2   603  UMP603     -0.1922
      8  O4        36.8190  -21.8870    0.5220 O.2   603  UMP603     -0.2133
      9  C1'       33.9730  -20.5000   -4.0990 C.3   603  UMP603      0.2048
     10  C2'       32.6640  -19.7750   -3.7700 C.3   603  UMP603      0.0871
     11  C3'       32.2560  -19.2100   -5.1220 C.3   603  UMP603      0.1857
     12  C4'       33.5930  -18.9090   -5.8460 C.3   603  UMP603      0.1774
     13  O3'       31.5000  -20.1960   -5.8610 O.3   603  UMP603     -0.2203
     14  O4'       34.6510  -19.5780   -5.0260 O.3   603  UMP603     -0.3342
     15  C5'       33.8430  -17.3720   -5.9280 C.3   603  UMP603      0.1858
     16  O5'       32.7860  -16.7160   -6.6720 O.3   603  UMP603     -0.2675
     17  P         32.8070  -15.1120   -6.9310 P.3   603  UMP603      0.5327
     18  OP1       34.2210  -14.8860   -7.6620 O.3   603  UMP603     -0.1145
     19  OP2       31.7280  -14.7590   -7.8800 O.2   603  UMP603     -0.2224
     20  OP3       32.8670  -14.4010   -5.6350 O.3   603  UMP603     -0.1145
@<TRIPOS>BOND
     1    19    17    2
     2    18    17    1
     3    17    16    1
     4    17    20    1
     5    16    15    1
     6    15    12    1
     7    13    11    1
     8    12    11    1
     9    12    14    1
    10    11    10    1
    11    14     9    1
    12     9    10    1
    13     9     1    1
    14     1     6    1
    15     1     2   am
    16     6     5    1
    17     5     4    1
    18     2     7    2
    19     2     3    2
    20     3     4    2
    21     4     8    2
