@<TRIPOS>MOLECULE
3hj3_NDP_A_1.pdb
 48 52 0 0 0
SMALL
GASTEIGER

@<TRIPOS>ATOM
      1  PA        19.8820  -63.5870   24.4030 P.3   606  NDP606      0.2189
      2  O1A       18.7690  -63.2290   23.4900 O.2   606  NDP606     -0.5170
      3  O2A       20.4350  -62.5720   25.3410 O.3   606  NDP606     -0.4371
      4  O5B       19.4530  -64.8920   25.2430 O.3   606  NDP606     -0.3112
      5  C5B       19.0060  -66.0520   24.5480 C.3   606  NDP606      0.1813
      6  C4B       18.2080  -66.8990   25.5330 C.3   606  NDP606      0.1820
      7  O4B       16.9980  -66.2870   25.9570 O.3   606  NDP606     -0.3136
      8  C3B       17.7590  -68.1960   24.8970 C.3   606  NDP606      0.2157
      9  O3B       18.8560  -69.1050   24.8560 O.3   606  NDP606     -0.2175
     10  C2B       16.6890  -68.6130   25.8640 C.3   606  NDP606      0.2314
     11  O2B       17.2950  -69.0340   27.1030 O.3   606  NDP606     -0.2630
     12  C1B       15.9830  -67.2900   26.0940 C.3   606  NDP606      0.3158
     13  N9A       14.9220  -67.1590   25.0730 N.pl3 606  NDP606     -0.1439
     14  C8A       14.9670  -66.4360   23.9350 C.3   606  NDP606      0.3377
     15  N7A       13.7990  -66.5940   23.2650 N.2   606  NDP606     -0.2095
     16  C5A       13.0190  -67.4360   23.9960 C.2   606  NDP606      0.2526
     17  C6A       11.7360  -67.9980   23.8670 C.2   606  NDP606      0.4393
     18  N6A       10.9510  -67.7230   22.8190 N.pl3 606  NDP606      0.2180
     19  N1A       11.2260  -68.8340   24.7920 N.2   606  NDP606      0.0021
     20  C2A       11.9490  -69.1340   25.8720 C.3   606  NDP606      0.5254
     21  N3A       13.1870  -68.6340   26.0590 N.2   606  NDP606     -0.0055
     22  C4A       13.7440  -67.7770   25.1380 C.2   606  NDP606      0.3518
     23  O3        21.0770  -64.2140   23.5560 O.3   606  NDP606     -0.2703
     24  PN        21.6380  -63.6060   22.2220 P.3   606  NDP606      0.2189
     25  O1N       20.4360  -63.2960   21.4090 O.2   606  NDP606     -0.5170
     26  O2N       22.7620  -64.4590   21.6290 O.3   606  NDP606     -0.4371
     27  O5D       22.2900  -62.2660   22.7530 O.3   606  NDP606     -0.3112
     28  C5D       23.4650  -62.2410   23.5500 C.3   606  NDP606      0.1813
     29  C4D       24.5360  -61.4720   22.7890 C.3   606  NDP606      0.1799
     30  O4D       24.0180  -60.1660   22.5970 O.3   606  NDP606     -0.3327
     31  C3D       25.8080  -61.3300   23.6060 C.3   606  NDP606      0.2158
     32  O3D       26.9780  -61.0850   22.7860 O.3   606  NDP606     -0.2175
     33  C2D       25.5590  -60.0550   24.3520 C.3   606  NDP606      0.2309
     34  O2D       26.8390  -59.5310   24.7530 O.3   606  NDP606     -0.2158
     35  C1D       24.8590  -59.2270   23.2630 C.3   606  NDP606      0.2263
     36  N1N       24.0800  -58.0970   23.7340 N.pl3 606  NDP606     -0.2787
     37  C2N       24.3930  -56.8690   23.2800 C.3   606  NDP606      0.1244
     38  C3N       23.7050  -55.7290   23.7130 C.2   606  NDP606      0.0544
     39  C7N       24.0310  -54.3500   23.1880 C.2   606  NDP606      0.2818
     40  O7N       23.2690  -53.3880   23.3930 O.2   606  NDP606     -0.2670
     41  N7N       25.1400  -54.2300   22.4500 N.am  606  NDP606     -0.0839
     42  C4N       22.6630  -55.9110   24.6070 C.2   606  NDP606      0.0033
     43  C5N       22.3470  -57.1820   25.0400 C.2   606  NDP606      0.0157
     44  C6N       23.0880  -58.2710   24.6110 C.2   606  NDP606      0.0633
     45  P2B       17.3590  -70.5750   27.5760 P.3   606  NDP606      0.5328
     46  O1X       17.6380  -70.5150   29.0430 O.3   606  NDP606     -0.1145
     47  O2X       16.0630  -71.2080   27.2020 O.3   606  NDP606     -0.1145
     48  O3X       18.4240  -71.2000   26.7310 O.2   606  NDP606     -0.2224
@<TRIPOS>BOND
     1    25    24    2
     2    26    24    1
     3    24    27    1
     4    24    23    1
     5    41    39   am
     6    30    29    1
     7    30    35    1
     8    27    28    1
     9    32    31    1
    10    29    28    1
    11    29    31    1
    12    18    17    1
    13    39    40    2
    14    39    38    1
    15    35    36    1
    16    35    33    1
    17    15    14    1
    18    15    16    2
    19    37    38    1
    20    37    36    1
    21     2     1    2
    22    23     1    1
    23    31    33    1
    24    38    42    2
    25    36    44    1
    26    17    16    1
    27    17    19    2
    28    14    13    1
    29    16    22    1
    30    33    34    1
    31     1     4    1
    32     1     3    1
    33     5     4    1
    34     5     6    1
    35    42    43    1
    36    44    43    2
    37    19    20    1
    38     9     8    1
    39     8     6    1
    40     8    10    1
    41    13    22    1
    42    13    12    1
    43    22    21    2
    44     6     7    1
    45    10    12    1
    46    10    11    1
    47    20    21    1
    48     7    12    1
    49    48    45    2
    50    11    45    1
    51    47    45    1
    52    45    46    1
