@<TRIPOS>MOLECULE
3hj3_MTX_A_1.pdb
 33 35 0 0 0
SMALL
GASTEIGER

@<TRIPOS>ATOM
      1  N1        24.0810  -50.5630   25.8830 N.2   605  MTX605     -0.2684
      2  C2        22.9060  -50.1450   25.5040 C.1   605  MTX605      0.2519
      3  NA2       22.7970  -48.9410   24.9830 N.pl3 605  MTX605     -0.0226
      4  N3        21.8310  -50.8730   25.6160 N.2   605  MTX605     -0.3033
      5  C4        21.8870  -52.0660   26.1010 C.2   605  MTX605      0.2728
      6  NA4       20.7930  -52.7860   26.1930 N.pl3 605  MTX605     -0.0887
      7  C4A       23.0700  -52.5340   26.5130 C.2   605  MTX605      0.2518
      8  N5        23.1380  -53.7440   27.0080 N.2   605  MTX605     -0.3917
      9  C6        24.3060  -54.2020   27.4050 C.2   605  MTX605      0.1330
     10  C7        25.4260  -53.4390   27.2840 C.3   605  MTX605      0.1930
     11  N8        25.3420  -52.2330   26.7780 N.2   605  MTX605     -0.1998
     12  C8A       24.1740  -51.7670   26.3970 C.1   605  MTX605      0.1314
     13  C9        24.3870  -55.5540   28.0060 C.3   605  MTX605      0.1481
     14  N10       23.7070  -55.4210   29.2640 N.pl3 605  MTX605     -0.2999
     15  CM        22.4320  -56.0420   29.4040 C.3   605  MTX605      0.1125
     16  C11       25.0320  -53.2000   32.5070 C.ar  605  MTX605      0.0551
     17  C12       23.7100  -53.4610   32.2990 C.ar  605  MTX605      0.0058
     18  C13       23.2960  -54.1990   31.2290 C.ar  605  MTX605      0.0147
     19  C14       24.1960  -54.6820   30.3350 C.ar  605  MTX605      0.0482
     20  C15       25.5280  -54.4330   30.5430 C.ar  605  MTX605      0.0147
     21  C16       25.9450  -53.6850   31.6210 C.ar  605  MTX605      0.0058
     22  C         25.4610  -52.3700   33.6570 C.2   605  MTX605      0.2652
     23  O         26.6550  -52.4750   34.1480 O.2   605  MTX605     -0.2684
     24  N         24.6680  -51.5150   34.0840 N.am  605  MTX605     -0.1918
     25  CA        24.8900  -50.6050   35.1810 C.3   605  MTX605      0.1986
     26  CT        23.6270  -50.0850   35.7200 C.2   605  MTX605      0.3842
     27  O1        23.6950  -49.5350   36.8040 O.co2 605  MTX605     -0.2437
     28  O2        22.5850  -50.2040   35.0920 O.co2 605  MTX605     -0.2437
     29  CB        25.5720  -49.3800   34.6600 C.3   605  MTX605      0.0451
     30  CG        27.0170  -49.3480   35.0870 C.3   605  MTX605      0.1164
     31  CD        27.6450  -48.0240   34.8600 C.2   605  MTX605      0.3649
     32  OE1       28.6830  -47.9860   34.2070 O.co2 605  MTX605     -0.2457
     33  OE2       27.1120  -47.0360   35.3580 O.co2 605  MTX605     -0.2457
@<TRIPOS>BOND
     1     3     2    1
     2     2     4    2
     3     2     1    2
     4     4     5    2
     5     1    12    2
     6     5     6    1
     7     5     7    1
     8    12     7    1
     9    12    11    2
    10     7     8    2
    11    11    10    1
    12     8     9    2
    13    10     9    1
    14     9    13    1
    15    13    14    1
    16    14    15    1
    17    14    19    1
    18    19    20   ar
    19    19    18   ar
    20    20    21   ar
    21    18    17   ar
    22    21    16   ar
    23    17    16   ar
    24    16    22    1
    25    22    24   am
    26    22    23    2
    27    24    25    1
    28    32    31   ar
    29    29    30    1
    30    29    25    1
    31    31    30    1
    32    31    33   ar
    33    28    26   ar
    34    25    26    1
    35    26    27   ar
