@<TRIPOS>MOLECULE
3hj9_FMN_A_1.pdb
 31 33 0 0 0
SMALL
GASTEIGER

@<TRIPOS>ATOM
      1  N1       -27.2870   41.4950    2.8820 N.2   300  FMN300     -0.2887
      2  C2       -26.5510   41.3250    1.7240 C.1   300  FMN300      0.3669
      3  O2       -27.0720   41.5210    0.6230 O.2   300  FMN300     -0.1744
      4  N3       -25.2130   40.9510    1.8170 N.2   300  FMN300     -0.2300
      5  C4       -24.6230   40.7070    3.0510 C.1   300  FMN300      0.2513
      6  O4       -23.4290   40.3760    3.0750 O.2   300  FMN300     -0.2057
      7  C4A      -25.3730   40.8760    4.2270 C.2   300  FMN300      0.2706
      8  N5       -24.8100   40.6550    5.4690 N.2   300  FMN300     -0.3841
      9  C5A      -25.5300   40.8970    6.6280 C.2   300  FMN300      0.1452
     10  C6       -24.8900   40.6900    7.8440 C.2   300  FMN300      0.0252
     11  C7       -25.5880   40.9010    9.0430 C.2   300  FMN300     -0.0375
     12  C7M      -24.8900   40.6740   10.3550 C.3   300  FMN300      0.0268
     13  C8       -26.9300   41.3000    9.0240 C.3   300  FMN300      0.0417
     14  C8M      -27.6770   41.5000   10.3080 C.3   300  FMN300      0.0091
     15  C9       -27.5840   41.4920    7.7920 C.2   300  FMN300     -0.0049
     16  C9A      -26.8920   41.2930    6.5750 C.2   300  FMN300      0.0795
     17  N10      -27.4640   41.4900    5.3160 N.pl3 300  FMN300     -0.2545
     18  C10      -26.7180   41.2720    4.1420 C.2   300  FMN300      0.2449
     19  C1'      -28.8710   41.9940    5.1500 C.3   300  FMN300      0.1336
     20  C2'      -29.9240   40.9250    5.2700 C.3   300  FMN300      0.2048
     21  O2'      -29.9170   40.0840    4.1340 O.3   300  FMN300     -0.2185
     22  C3'      -31.2670   41.6210    5.4430 C.3   300  FMN300      0.2165
     23  O3'      -31.2690   42.2290    6.7180 O.3   300  FMN300     -0.2175
     24  C4'      -32.3960   40.5820    5.3090 C.3   300  FMN300      0.2147
     25  O4'      -32.5680   40.3560    3.9140 O.3   300  FMN300     -0.2176
     26  C5'      -33.7080   41.0170    5.9450 C.3   300  FMN300      0.1892
     27  O5'      -34.1480   42.1710    5.2310 O.3   300  FMN300     -0.2674
     28  P        -34.4650   43.5210    6.0190 P.3   300  FMN300      0.5327
     29  O1P      -35.2620   43.3000    7.2780 O.3   300  FMN300     -0.1145
     30  O2P      -33.1420   44.1590    6.4030 O.3   300  FMN300     -0.1145
     31  O3P      -35.2530   44.4220    5.0680 O.2   300  FMN300     -0.2224
@<TRIPOS>BOND
     1     3     2    2
     2     2     4    2
     3     2     1    2
     4     4     5    2
     5     1    18    2
     6     5     6    2
     7     5     7    1
     8    25    24    1
     9    21    20    1
    10    18     7    1
    11    18    17    1
    12     7     8    2
    13    31    28    2
    14    19    20    1
    15    19    17    1
    16    27    26    1
    17    27    28    1
    18    20    22    1
    19    24    22    1
    20    24    26    1
    21    17    16    1
    22    22    23    1
    23     8     9    2
    24    28    30    1
    25    28    29    1
    26    16     9    1
    27    16    15    2
    28     9    10    1
    29    15    13    1
    30    10    11    2
    31    13    11    1
    32    13    14    1
    33    11    12    1
