@<TRIPOS>MOLECULE
3hja_NAD_A_1.pdb
 44 48 0 0 0
SMALL
GASTEIGER

@<TRIPOS>ATOM
      1  PA        -0.9880   40.0410   64.3130 P.3   337  NAD337      0.2189
      2  O1A       -1.2260   38.6800   64.9410 O.3   337  NAD337     -0.4371
      3  O2A       -0.1890   40.1320   63.0410 O.2   337  NAD337     -0.5170
      4  O5B       -0.2250   40.9340   65.4160 O.3   337  NAD337     -0.3112
      5  C5B       -0.5550   40.8710   66.8030 C.3   337  NAD337      0.1813
      6  C4B        0.6830   41.3580   67.5630 C.3   337  NAD337      0.1821
      7  O4B        0.3780   41.6350   68.9360 O.3   337  NAD337     -0.3135
      8  C3B        1.7560   40.2780   67.5680 C.3   337  NAD337      0.2184
      9  O3B        3.0140   40.9030   67.3150 O.3   337  NAD337     -0.2174
     10  C2B        1.7220   39.6850   68.9610 C.3   337  NAD337      0.2570
     11  O2B        3.0150   39.2430   69.3770 O.3   337  NAD337     -0.2130
     12  C1B        1.2770   40.8980   69.7700 C.3   337  NAD337      0.3186
     13  N9A        0.5960   40.5650   71.0410 N.pl3 337  NAD337     -0.1439
     14  C8A       -0.2710   39.5720   71.2870 C.3   337  NAD337      0.3377
     15  N7A       -0.6630   39.6570   72.5870 N.2   337  NAD337     -0.2095
     16  C5A       -0.0210   40.7100   73.1450 C.2   337  NAD337      0.2526
     17  C6A       -0.0150   41.2910   74.4110 C.2   337  NAD337      0.4393
     18  N6A       -0.7590   40.7860   75.4220 N.pl3 337  NAD337      0.2180
     19  N1A        0.7630   42.3680   74.6410 N.2   337  NAD337      0.0021
     20  C2A        1.5080   42.9180   73.6660 C.3   337  NAD337      0.5254
     21  N3A        1.5240   42.3820   72.4330 N.2   337  NAD337     -0.0055
     22  C4A        0.7700   41.2760   72.1560 C.2   337  NAD337      0.3518
     23  O3        -2.4240   40.7490   64.1320 O.3   337  NAD337     -0.2703
     24  PN        -2.8070   41.9030   63.0810 P.3   337  NAD337      0.2189
     25  O1N       -3.2490   41.3260   61.7720 O.2   337  NAD337     -0.5170
     26  O2N       -1.7360   42.9800   63.0980 O.3   337  NAD337     -0.4371
     27  O5D       -4.1150   42.4670   63.7840 O.3   337  NAD337     -0.3112
     28  C5D       -4.0600   43.2420   64.9900 C.3   337  NAD337      0.1813
     29  C4D       -5.4500   43.8140   65.2640 C.3   337  NAD337      0.1799
     30  O4D       -5.8600   44.6640   64.1790 O.3   337  NAD337     -0.3327
     31  C3D       -6.5060   42.7200   65.3540 C.3   337  NAD337      0.2158
     32  O3D       -7.4730   43.1850   66.2900 O.3   337  NAD337     -0.2175
     33  C2D       -7.1520   42.6890   63.9810 C.3   337  NAD337      0.2309
     34  O2D       -8.5130   42.2140   63.9640 O.3   337  NAD337     -0.2158
     35  C1D       -7.0710   44.1650   63.5990 C.3   337  NAD337      0.2263
     36  N1N       -7.0490   44.4050   62.1580 N.pl3 337  NAD337     -0.2787
     37  C2N       -6.3410   43.6050   61.3250 C.3   337  NAD337      0.1244
     38  C3N       -6.3290   43.8750   59.9560 C.2   337  NAD337      0.0544
     39  C7N       -5.5550   43.0220   58.9930 C.2   337  NAD337      0.2818
     40  O7N       -5.9300   42.9930   57.7280 O.2   337  NAD337     -0.2670
     41  N7N       -4.4980   42.3050   59.3710 N.am  337  NAD337     -0.0839
     42  C4N       -7.0440   44.9590   59.4680 C.2   337  NAD337      0.0033
     43  C5N       -7.7730   45.7570   60.3390 C.2   337  NAD337      0.0157
     44  C6N       -7.7550   45.4610   61.6980 C.2   337  NAD337      0.0633
@<TRIPOS>BOND
     1    40    39    2
     2    39    41   am
     3    39    38    1
     4    42    38    2
     5    42    43    1
     6    38    37    1
     7    43    44    2
     8    37    36    1
     9    44    36    1
    10    25    24    2
    11    36    35    1
    12     3     1    2
    13    24    26    1
    14    24    27    1
    15    24    23    1
    16    35    33    1
    17    35    30    1
    18    27    28    1
    19    34    33    1
    20    33    31    1
    21    23     1    1
    22    30    29    1
    23     1     2    1
    24     1     4    1
    25    28    29    1
    26    29    31    1
    27    31    32    1
    28     4     5    1
    29     5     6    1
    30     9     8    1
    31     6     8    1
    32     6     7    1
    33     8    10    1
    34     7    12    1
    35    10    11    1
    36    10    12    1
    37    12    13    1
    38    13    14    1
    39    13    22    1
    40    14    15    1
    41    22    21    2
    42    22    16    1
    43    21    20    1
    44    15    16    2
    45    16    17    1
    46    20    19    1
    47    17    19    2
    48    17    18    1
