@<TRIPOS>MOLECULE
3hjn_ADP_A_1.pdb
 27 29 0 0 0
SMALL
GASTEIGER

@<TRIPOS>ATOM
      1  PB       -19.2220  -24.4810   -0.1060 P.3   301  ADP301      0.5373
      2  O1B      -17.8380  -23.9510   -0.1160 O.3   301  ADP301     -0.1143
      3  O2B      -20.3280  -23.8780   -1.1060 O.2   301  ADP301     -0.2221
      4  O3B      -19.5560  -25.9710    0.3950 O.3   301  ADP301     -0.1143
      5  PA       -21.2560  -23.1790    1.3690 P.3   301  ADP301      0.2231
      6  O1A      -22.4480  -23.9990    1.0680 O.2   301  ADP301     -0.5169
      7  O2A      -21.2620  -21.5790    1.2140 O.3   301  ADP301     -0.4370
      8  O3A      -19.7680  -23.7970    1.2510 O.3   301  ADP301     -0.2261
      9  O5'      -21.2750  -23.1590    2.9810 O.3   301  ADP301     -0.3111
     10  C5'      -21.6750  -24.3320    3.6950 C.3   301  ADP301      0.1813
     11  C4'      -22.0070  -24.0880    5.1710 C.3   301  ADP301      0.1821
     12  O4'      -20.9020  -23.4650    5.8550 O.3   301  ADP301     -0.3135
     13  C3'      -23.1830  -23.1220    5.3190 C.3   301  ADP301      0.2184
     14  O3'      -23.7690  -23.2910    6.6120 O.3   301  ADP301     -0.2174
     15  C2'      -22.4250  -21.7980    5.2960 C.3   301  ADP301      0.2570
     16  O2'      -23.2470  -20.7700    5.8540 O.3   301  ADP301     -0.2130
     17  C1'      -21.3330  -22.1670    6.3000 C.3   301  ADP301      0.3186
     18  N9       -20.2540  -21.1590    6.2030 N.pl3 301  ADP301     -0.1439
     19  C8       -19.7650  -20.6800    5.0600 C.3   301  ADP301      0.3377
     20  N7       -18.8170  -19.7830    5.3190 N.2   301  ADP301     -0.2095
     21  C5       -18.6960  -19.6910    6.6390 C.2   301  ADP301      0.2526
     22  C6       -17.8750  -18.9480    7.4770 C.2   301  ADP301      0.4393
     23  N6       -16.9610  -18.1290    6.9620 N.pl3 301  ADP301      0.2180
     24  N1       -18.0040  -19.0950    8.8030 N.2   301  ADP301      0.0021
     25  C2       -18.8900  -19.9340    9.3100 C.3   301  ADP301      0.5254
     26  N3       -19.6830  -20.6600    8.5410 N.2   301  ADP301     -0.0055
     27  C4       -19.6130  -20.5650    7.2060 C.2   301  ADP301      0.3518
@<TRIPOS>BOND
     1     3     1    2
     2     2     1    1
     3     1     4    1
     4     1     8    1
     5     6     5    2
     6     7     5    1
     7     8     5    1
     8     5     9    1
     9     9    10    1
    10    10    11    1
    11    19    20    1
    12    19    18    1
    13    11    13    1
    14    11    12    1
    15    15    13    1
    16    15    16    1
    17    15    17    1
    18    13    14    1
    19    20    21    2
    20    12    17    1
    21    18    17    1
    22    18    27    1
    23    21    27    1
    24    21    22    1
    25    23    22    1
    26    27    26    2
    27    22    24    2
    28    26    25    1
    29    24    25    1
