@<TRIPOS>MOLECULE
3hjn_TYD_A_1.pdb
 25 26 0 0 0
SMALL
GASTEIGER

@<TRIPOS>ATOM
      1  PA       -20.3730  -28.3910   -5.2300 P.3   401  TYD401      0.2231
      2  O1A      -19.6800  -27.1950   -5.7480 O.2   401  TYD401     -0.5169
      3  O2A      -21.7790  -28.7520   -5.5270 O.3   401  TYD401     -0.4370
      4  O3A      -19.8170  -29.0790   -3.8870 O.3   401  TYD401     -0.2261
      5  PB       -19.5050  -28.1820   -2.5890 P.3   401  TYD401      0.5373
      6  O1B      -18.1890  -27.5100   -2.6820 O.2   401  TYD401     -0.2221
      7  O2B      -19.6210  -29.1690   -1.3240 O.3   401  TYD401     -0.1143
      8  O3B      -20.7210  -27.1410   -2.4530 O.3   401  TYD401     -0.1143
      9  O5'      -19.6350  -29.4830   -6.1540 O.3   401  TYD401     -0.3111
     10  C5'      -19.8980  -30.8760   -5.9620 C.3   401  TYD401      0.1812
     11  C4'      -18.6040  -31.6880   -6.0570 C.3   401  TYD401      0.1773
     12  O4'      -17.9690  -31.5360   -7.3360 O.3   401  TYD401     -0.3339
     13  C3'      -17.6020  -31.1370   -5.0390 C.3   401  TYD401      0.1857
     14  O3'      -17.5050  -32.0500   -3.9420 O.3   401  TYD401     -0.2203
     15  C2'      -16.2800  -31.0760   -5.8100 C.3   401  TYD401      0.0874
     16  C1'      -16.5940  -31.8640   -7.0840 C.3   401  TYD401      0.2090
     17  N1       -15.7780  -31.3930   -8.2270 N.am  401  TYD401     -0.1794
     18  C2       -14.6640  -32.1160   -8.6700 C.1   401  TYD401      0.2844
     19  O2       -14.2540  -33.0840   -8.0310 O.2   401  TYD401     -0.1918
     20  N3       -14.0020  -31.7130   -9.8360 N.2   401  TYD401     -0.2455
     21  C4       -14.4440  -30.5920  -10.5480 C.1   401  TYD401      0.2134
     22  O4       -13.8850  -30.2770  -11.5980 O.2   401  TYD401     -0.2088
     23  C5       -15.5370  -29.8630  -10.0890 C.2   401  TYD401      0.0891
     24  C5M      -15.9810  -28.5870  -10.8070 C.3   401  TYD401      0.0462
     25  C6       -16.2010  -30.2640   -8.9370 C.2   401  TYD401      0.0877
@<TRIPOS>BOND
     1    22    21    2
     2    24    23    1
     3    21    23    1
     4    21    20    2
     5    23    25    2
     6    20    18    2
     7    25    17    1
     8    18    17   am
     9    18    19    2
    10    17    16    1
    11    12    16    1
    12    12    11    1
    13    16    15    1
    14     9    10    1
    15     9     1    1
    16    11    10    1
    17    11    13    1
    18    15    13    1
    19     2     1    2
    20     3     1    1
    21     1     4    1
    22    13    14    1
    23     4     5    1
    24     6     5    2
    25     5     8    1
    26     5     7    1
