@<TRIPOS>MOLECULE
3hjo_EAA_A_1.pdb
 19 19 0 0 0
SMALL
GASTEIGER

@<TRIPOS>ATOM
      1  C1         8.7300    3.4890   31.5240 C.ar  211  EAA211      0.1506
      2  O2         8.3210    3.4020   32.8350 O.3   211  EAA211     -0.4628
      3  C2         9.3440    2.3060   30.8770 C.ar  211  EAA211      0.1021
      4 CL1         9.5760    0.7520   31.7470 Cl    211  EAA211     -0.0782
      5  C3         9.7780    2.4150   29.4690 C.ar  211  EAA211      0.0742
      6 CL2        10.5200    0.9610   28.7560 Cl    211  EAA211     -0.0812
      7  C4         9.5920    3.6940   28.7250 C.ar  211  EAA211      0.0502
      8  C5         8.9980    4.7460   29.4300 C.ar  211  EAA211      0.0072
      9  C6         8.5810    4.6550   30.7690 C.ar  211  EAA211      0.0380
     10  C7         9.9990    3.9080   27.2730 C.2   211  EAA211      0.1925
     11  O1         9.5400    4.8630   26.6660 O.2   211  EAA211     -0.2869
     12  C8        10.9280    3.0550   26.5200 C.2   211  EAA211      0.0168
     13  C9        11.0190    3.1740   25.0050 C.3   211  EAA211      0.0296
     14  C10       12.1810    2.3660   24.4430 C.3   211  EAA211      0.0051
     15  C11       11.7120    2.1930   27.1420 C.2   211  EAA211     -0.0013
     16  C12        8.3060    4.5530   33.6850 C.3   211  EAA211      0.3186
     17  C13        6.8900    4.9940   33.9570 C.2   211  EAA211      0.4084
     18  O          6.0190    4.8080   33.0780 O.co2 211  EAA211     -0.2415
     19  OXT        6.6390    5.5310   35.0560 O.co2 211  EAA211     -0.2415
@<TRIPOS>BOND
     1    14    13    1
     2    13    12    1
     3    12    15    2
     4    12    10    1
     5    11    10    2
     6    10     7    1
     7     7     8   ar
     8     7     5   ar
     9     6     5    1
    10     8     9   ar
    11     5     3   ar
    12     9     1   ar
    13     3     1   ar
    14     3     4    1
    15     1     2    1
    16     2    16    1
    17    18    17   ar
    18    16    17    1
    19    17    19   ar
