@<TRIPOS>MOLECULE
3hjo_GSH_A_1.pdb
 20 19 0 0 0
SMALL
GASTEIGER

@<TRIPOS>ATOM
      1  N1        16.8940   10.7270   23.8660 N.3   210  GSH210     -0.1208
      2  CA1       16.6410    9.4300   24.4810 C.3   210  GSH210      0.1948
      3  C1        17.9400    8.6610   24.6180 C.2   210  GSH210      0.3819
      4  O11       18.4530    8.4050   23.5240 O.co2 210  GSH210     -0.2441
      5  O12       18.4970    8.2250   25.6800 O.co2 210  GSH210     -0.2441
      6  CB1       15.7740    9.5380   25.7270 C.3   210  GSH210      0.0402
      7  CG1       15.6020    8.2750   26.5490 C.3   210  GSH210      0.0889
      8  CD1       14.1450    8.0880   26.9310 C.2   210  GSH210      0.2418
      9  OE1       13.1270    8.3190   25.9980 O.2   210  GSH210     -0.2733
     10  N2        13.8970    7.6370   28.1510 N.am  210  GSH210     -0.1968
     11  CA2       12.6230    7.0540   28.4980 C.3   210  GSH210      0.1843
     12  C2        12.2290    7.6240   29.8420 C.2   210  GSH210      0.2627
     13  O2        13.2390    7.7800   30.7850 O.2   210  GSH210     -0.2714
     14  CB2       12.7370    5.4990   28.4900 C.3   210  GSH210      0.0997
     15  SG2       13.6390    4.8480   27.0190 S.3   210  GSH210     -0.0797
     16  N3        10.9600    7.9420   30.1120 N.am  210  GSH210     -0.1917
     17  CA3       10.5470    8.2090   31.4820 C.3   210  GSH210      0.2285
     18  C3        10.0960    9.6450   31.7120 C.2   210  GSH210      0.3865
     19  O31       10.1980   10.4880   30.7980 O.co2 210  GSH210     -0.2437
     20  O32        9.5870   10.0040   32.8050 O.co2 210  GSH210     -0.2437
@<TRIPOS>BOND
     1     4     3   ar
     2     1     2    1
     3     2     3    1
     4     2     6    1
     5     3     5   ar
     6     6     7    1
     7     9     8    2
     8     7     8    1
     9     8    10   am
    10    15    14    1
    11    10    11    1
    12    14    11    1
    13    11    12    1
    14    12    16   am
    15    12    13    2
    16    16    17    1
    17    19    18   ar
    18    17    18    1
    19    18    20   ar
