@<TRIPOS>MOLECULE
3hk1_B64_A_1.pdb
 22 23 0 0 0
SMALL
GASTEIGER

@<TRIPOS>ATOM
      1  C1        10.2870   19.4680   -2.7600 C.2   132  B64132      0.3654
      2  C2        11.5380   18.6230   -2.7280 C.3   132  B64132      0.1237
      3  C3        11.9650   18.1150   -4.0930 C.3   132  B64132      0.0990
      4  O1        10.3950   20.5690   -2.2000 O.co2 132  B64132     -0.2456
      5  O2         9.2250   19.0740   -3.3220 O.co2 132  B64132     -0.2456
      6  O7        11.3120   20.2010   -5.3400 O.2   132  B64132     -0.2730
      7  N8        12.8070   18.7190   -6.2890 N.am  132  B64132     -0.1785
      8  C9        12.9560   19.3520   -7.4870 C.ar  132  B64132      0.0861
      9  C10       13.9350   18.7420   -8.3870 C.ar  132  B64132      0.1204
     10  S11       13.9610   19.6590   -9.8820 S.2   132  B64132     -0.0787
     11  C12       12.6220   20.6750   -9.3110 C.ar  132  B64132      0.0370
     12  C13       12.1850   20.4130   -8.0030 C.ar  132  B64132      0.0243
     13  C14       14.8620   17.6370   -8.1270 C.2   132  B64132      0.3487
     14  O15       15.7540   17.2440   -9.1790 O.3   132  B64132     -0.4410
     15  C16       16.6570   16.1790   -8.8820 C.3   132  B64132      0.2560
     16  O17       14.9240   17.1030   -7.0200 O.2   132  B64132     -0.2443
     17  C18       12.1090   21.7390  -10.2140 C.ar  132  B64132      0.0355
     18  C19       11.1580   22.7110   -9.9010 C.ar  132  B64132      0.0075
     19  C20       10.9470   23.5530  -11.0240 C.ar  132  B64132      0.0075
     20  C21       11.7010   23.2960  -12.1910 C.ar  132  B64132      0.0355
     21  S22       12.6660   21.8290  -11.8870 S.2   132  B64132     -0.0859
     22  CS1       12.0340   19.1870   -5.2510 C.2   132  B64132      0.2461
@<TRIPOS>BOND
     1    20    21   ar
     2    20    19   ar
     3    21    17   ar
     4    19    18   ar
     5    17    18   ar
     6    17    11    1
     7    10    11   ar
     8    10     9   ar
     9    11    12   ar
    10    14    15    1
    11    14    13    1
    12     9    13    1
    13     9     8   ar
    14    13    16    2
    15    12     8   ar
    16     8     7    1
    17     7    22   am
    18     6    22    2
    19    22     3    1
    20     3     2    1
    21     5     1   ar
    22     1     2    1
    23     1     4   ar
