@<TRIPOS>MOLECULE
3hk5_RAT_A_1.pdb
 12 11 0 0 0
SMALL
GASTEIGER

@<TRIPOS>ATOM
      1  O1A       14.2940  -16.7610  -39.0930 O.co2 428  RAT428     -0.2427
      2  C1        14.3050  -17.0500  -37.8680 C.2   428  RAT428      0.3973
      3  O1B       13.9900  -18.1560  -37.3780 O.co2 428  RAT428     -0.2427
      4  C2        14.7390  -15.9520  -36.8970 C.3   428  RAT428      0.2870
      5  O2        14.2400  -16.2700  -35.5800 O.3   428  RAT428     -0.2080
      6  C3        16.2780  -15.8020  -36.8610 C.3   428  RAT428      0.2346
      7  O3        16.8670  -16.9490  -36.2280 O.3   428  RAT428     -0.2164
      8  C4        16.7560  -14.5200  -36.1160 C.3   428  RAT428      0.2870
      9  O4        18.1040  -14.2090  -36.4700 O.3   428  RAT428     -0.2080
     10  C5        16.6850  -14.6530  -34.5770 C.2   428  RAT428      0.3973
     11  O5A       17.7540  -14.7440  -33.9440 O.co2 428  RAT428     -0.2427
     12  O5B       15.5310  -14.6560  -34.0570 O.co2 428  RAT428     -0.2427
@<TRIPOS>BOND
     1     1     2   ar
     2     2     3   ar
     3     2     4    1
     4     4     6    1
     5     4     5    1
     6     6     7    1
     7     6     8    1
     8     9     8    1
     9     8    10    1
    10    10    12   ar
    11    10    11   ar
