@<TRIPOS>MOLECULE
3hk7_RAT_A_1.pdb
 12 11 0 0 0
SMALL
GASTEIGER

@<TRIPOS>ATOM
      1  O1A       53.4510   18.6520   70.6990 O.co2 428  RAT428     -0.2427
      2  C1        53.6680   18.7490   71.9360 C.2   428  RAT428      0.3973
      3  O1B       54.7970   18.7820   72.4630 O.co2 428  RAT428     -0.2427
      4  C2        52.4510   18.8270   72.8760 C.3   428  RAT428      0.2870
      5  O2        52.8900   18.5150   74.2100 O.3   428  RAT428     -0.2080
      6  C3        51.7850   20.2270   72.8730 C.3   428  RAT428      0.2346
      7  O3        52.6730   21.1940   73.4600 O.3   428  RAT428     -0.2164
      8  C4        50.4130   20.2660   73.6330 C.3   428  RAT428      0.2870
      9  O4        49.6360   21.4060   73.2370 O.3   428  RAT428     -0.2080
     10  C5        50.5540   20.3140   75.1760 C.2   428  RAT428      0.3973
     11  O5A       50.2790   21.3810   75.7660 O.co2 428  RAT428     -0.2427
     12  O5B       50.9280   19.2520   75.7470 O.co2 428  RAT428     -0.2427
@<TRIPOS>BOND
     1     1     2   ar
     2     2     3   ar
     3     2     4    1
     4     6     4    1
     5     6     7    1
     6     6     8    1
     7     4     5    1
     8     9     8    1
     9     8    10    1
    10    10    12   ar
    11    10    11   ar
