@<TRIPOS>MOLECULE
3hk8_HDL_A_1.pdb
 13 12 0 0 0
SMALL
GASTEIGER

@<TRIPOS>ATOM
      1  O1A       13.9650  -18.2710  -37.2720 O.co2 428  HDL428     -0.2427
      2  C1        14.3200  -17.1750  -37.7810 C.2   428  HDL428      0.3973
      3  O1B       14.3740  -16.9370  -39.0110 O.co2 428  HDL428     -0.2427
      4  C2        14.7180  -16.0230  -36.8410 C.3   428  HDL428      0.2868
      5  O2        14.2510  -16.3120  -35.5160 O.3   428  HDL428     -0.2080
      6  C3        16.2640  -15.8460  -36.8670 C.3   428  HDL428      0.2296
      7  O3        16.9260  -16.9680  -36.2840 O.3   428  HDL428     -0.2166
      8  C4        16.7960  -14.5640  -36.1320 C.3   428  HDL428      0.2297
      9  O4        18.0910  -14.2100  -36.6100 O.3   428  HDL428     -0.2134
     10  C5        16.8990  -14.7120  -34.5890 C.2   428  HDL428      0.1201
     11  O5        17.9690  -14.6090  -33.9880 O.2   428  HDL428     -0.5373
     12  N6        15.7640  -14.9600  -33.9220 N.am  428  HDL428     -0.2003
     13  O6        14.8030  -14.0140  -33.7450 O.3   428  HDL428     -0.4026
@<TRIPOS>BOND
     1     3     2   ar
     2     2     1   ar
     3     2     4    1
     4     6     4    1
     5     6     7    1
     6     6     8    1
     7     4     5    1
     8     9     8    1
     9     8    10    1
    10    10    11    2
    11    10    12   am
    12    12    13    1
