@<TRIPOS>MOLECULE
3hk9_REL_A_1.pdb
 13 12 0 0 0
SMALL
GASTEIGER

@<TRIPOS>ATOM
      1  O1A       53.8410   18.5820   71.0690 O.co2 428  REL428     -0.2427
      2  C1        54.0000   18.9170   72.2790 C.2   428  REL428      0.3973
      3  O1B       55.0880   19.1930   72.8140 O.co2 428  REL428     -0.2427
      4  C2        52.7310   18.9680   73.1340 C.3   428  REL428      0.2865
      5  O2        53.0810   18.5910   74.4720 O.3   428  REL428     -0.2080
      6  C3        52.0720   20.3790   73.1670 C.3   428  REL428      0.2264
      7  O3        51.7120   20.6970   71.8060 O.3   428  REL428     -0.2169
      8  C4        50.8000   20.4880   74.0570 C.3   428  REL428      0.2230
      9  O4        50.0980   21.7290   73.8340 O.3   428  REL428     -0.2171
     10  C5        51.1600   20.3520   75.5550 C.3   428  REL428      0.2486
     11  O5        51.1650   21.6070   76.2200 O.3   428  REL428     -0.2118
     12  C6        50.1950   19.3880   76.2580 C.2   428  REL428      0.2427
     13  O6        50.5550   18.7120   77.2260 O.2   428  REL428     -0.2854
@<TRIPOS>BOND
     1     1     2   ar
     2     7     6    1
     3     2     3   ar
     4     2     4    1
     5     4     6    1
     6     4     5    1
     7     6     8    1
     8     9     8    1
     9     8    10    1
    10    10    11    1
    11    10    12    1
    12    12    13    2
