@<TRIPOS>MOLECULE
3hka_FIX_A_1.pdb
 13 12 0 0 0
SMALL
GASTEIGER

@<TRIPOS>ATOM
      1  O1A       17.4390   38.9300   11.7390 O.co2 428  FIX428     -0.2427
      2  C1        17.9520   37.9840   11.0930 C.2   428  FIX428      0.3973
      3  O1B       18.3600   38.0440    9.9190 O.co2 428  FIX428     -0.2427
      4  C2        18.0940   36.6270   11.8110 C.3   428  FIX428      0.2869
      5  O2        18.0550   36.8370   13.2270 O.3   428  FIX428     -0.2080
      6  C3        16.9700   35.6610   11.3580 C.3   428  FIX428      0.2307
      7  O3        17.0400   35.5120    9.9240 O.3   428  FIX428     -0.2166
      8  C4        17.0130   34.2210   11.9520 C.3   428  FIX428      0.2445
      9  O4        16.1280   33.3510   11.2220 O.3   428  FIX428     -0.2122
     10  C5        16.6170   34.1690   13.4550 C.2   428  FIX428      0.2165
     11  O5        15.7490   34.9210   13.9120 O.2   428  FIX428     -0.2905
     12  C6        17.3020   33.1770   14.3860 C.3   428  FIX428      0.2486
     13  O6        17.2480   33.6100   15.7410 O.3   428  FIX428     -0.2118
@<TRIPOS>BOND
     1     3     2   ar
     2     7     6    1
     3     2     1   ar
     4     2     4    1
     5     9     8    1
     6     6     4    1
     7     6     8    1
     8     4     5    1
     9     8    10    1
    10    10    11    2
    11    10    12    1
    12    12    13    1
