@<TRIPOS>MOLECULE
3hkb_GDP_B_1.pdb
 28 30 0 0 0
SMALL
GASTEIGER

@<TRIPOS>ATOM
      1  PB        90.7420   72.1500    4.3530 P.3   600  GDP600      0.5373
      2  O1B       91.0540   73.2050    5.3330 O.3   600  GDP600     -0.1143
      3  O2B       91.8360   71.0720    4.4150 O.2   600  GDP600     -0.2221
      4  O3B       89.3710   71.4880    4.6590 O.3   600  GDP600     -0.1143
      5  O3A       90.7800   72.9500    2.9520 O.3   600  GDP600     -0.2261
      6  PA        91.3620   72.2570    1.6330 P.3   600  GDP600      0.2231
      7  O1A       92.6170   71.5770    2.0200 O.3   600  GDP600     -0.4370
      8  O2A       90.3040   71.2840    1.0690 O.2   600  GDP600     -0.5169
      9  O5'       91.7020   73.4690    0.6140 O.3   600  GDP600     -0.3111
     10  C5'       90.8550   73.9750   -0.4090 C.3   600  GDP600      0.1813
     11  C4'       91.6990   74.8220   -1.3730 C.3   600  GDP600      0.1799
     12  O4'       93.0640   74.5080   -1.1710 O.3   600  GDP600     -0.3326
     13  C3'       91.3860   74.5260   -2.8450 C.3   600  GDP600      0.2158
     14  O3'       91.2730   75.6880   -3.6460 O.3   600  GDP600     -0.2175
     15  C2'       92.5570   73.7360   -3.3740 C.3   600  GDP600      0.2310
     16  O2'       92.9570   74.1750   -4.6580 O.3   600  GDP600     -0.2158
     17  C1'       93.6510   73.9520   -2.3430 C.3   600  GDP600      0.2293
     18  N9        94.3170   72.6610   -2.0810 N.pl3 600  GDP600     -0.2354
     19  C8        93.7430   71.5450   -1.5390 C.3   600  GDP600      0.2246
     20  N7        94.6780   70.5700   -1.4740 N.2   600  GDP600     -0.2322
     21  C5        95.8410   71.0420   -1.9640 C.2   600  GDP600      0.2182
     22  C6        97.0920   70.4640   -2.1150 C.1   600  GDP600      0.2372
     23  O6        97.1980   69.2500   -2.0030 O.2   600  GDP600     -0.2069
     24  N1        98.1240   71.1920   -2.6650 N.2   600  GDP600     -0.2485
     25  C2        97.9040   72.4970   -3.0550 C.1   600  GDP600      0.2531
     26  N2        98.9330   73.2910   -3.2960 N.pl3 600  GDP600     -0.0226
     27  N3        96.6550   73.0640   -2.9030 N.2   600  GDP600     -0.3074
     28  C4        95.6300   72.3520   -2.3610 C.2   600  GDP600      0.2300
@<TRIPOS>BOND
     1    16    15    1
     2    14    13    1
     3    15    13    1
     4    15    17    1
     5    26    25    1
     6    25    27    2
     7    25    24    2
     8    27    28    2
     9    13    11    1
    10    24    22    2
    11    28    18    1
    12    28    21    1
    13    17    18    1
    14    17    12    1
    15    22    23    2
    16    22    21    1
    17    18    19    1
    18    21    20    2
    19    19    20    1
    20    11    12    1
    21    11    10    1
    22    10     9    1
    23     9     6    1
    24     8     6    2
    25     6     7    1
    26     6     5    1
    27     5     1    1
    28     1     3    2
    29     1     4    1
    30     1     2    1
