@<TRIPOS>MOLECULE
3hkb_GTP_A_1.pdb
 32 34 0 0 0
SMALL
GASTEIGER

@<TRIPOS>ATOM
      1  PG       123.5190   92.2420   16.8000 P.3   600  GTP600      0.5373
      2  O1G      124.0160   90.9750   16.1740 O.2   600  GTP600     -0.2221
      3  O2G      123.3730   92.1200   18.3150 O.3   600  GTP600     -0.1143
      4  O3G      122.0880   92.6450   16.3490 O.3   600  GTP600     -0.1143
      5  O3B      124.5700   93.4580   16.5530 O.3   600  GTP600     -0.2258
      6  PB       124.0370   94.9970   16.5380 P.3   600  GTP600      0.2277
      7  O1B      124.9090   95.8640   17.3490 O.3   600  GTP600     -0.4368
      8  O2B      122.5370   95.0730   16.9590 O.2   600  GTP600     -0.5168
      9  O3A      124.2390   95.5090   15.0160 O.3   600  GTP600     -0.2700
     10  PA       125.5560   95.1640   14.1490 P.3   600  GTP600      0.2189
     11  O1A      125.4130   93.8330   13.4880 O.2   600  GTP600     -0.5170
     12  O2A      126.7650   95.2460   15.1020 O.3   600  GTP600     -0.4371
     13  O5'      125.6140   96.3370   13.0590 O.3   600  GTP600     -0.3112
     14  C5'      125.2900   96.1170   11.7210 C.3   600  GTP600      0.1813
     15  C4'      126.1680   97.1280   11.0280 C.3   600  GTP600      0.1799
     16  O4'      127.4960   96.8360   11.3460 O.3   600  GTP600     -0.3326
     17  C3'      126.0600   97.0780    9.5220 C.3   600  GTP600      0.2158
     18  O3'      126.1550   98.4390    9.0760 O.3   600  GTP600     -0.2175
     19  C2'      127.2370   96.2290    9.0840 C.3   600  GTP600      0.2310
     20  O2'      127.7090   96.7580    7.8670 O.3   600  GTP600     -0.2158
     21  C1'      128.2410   96.4540   10.2060 C.3   600  GTP600      0.2293
     22  N9       129.0960   95.3490   10.6810 N.pl3 600  GTP600     -0.2354
     23  C8       128.7280   94.1960   11.3380 C.3   600  GTP600      0.2246
     24  N7       129.8360   93.4720   11.6650 N.2   600  GTP600     -0.2322
     25  C5       130.9180   94.1640   11.2530 C.2   600  GTP600      0.2182
     26  C6       132.2760   93.9040   11.3350 C.1   600  GTP600      0.2372
     27  O6       132.6880   92.8690   11.8420 O.2   600  GTP600     -0.2069
     28  N1       133.1530   94.8280   10.8190 N.2   600  GTP600     -0.2485
     29  C2       132.6820   95.9950   10.2150 C.1   600  GTP600      0.2531
     30  N2       133.5130   96.8970    9.6880 N.pl3 600  GTP600     -0.0226
     31  N3       131.3310   96.2470   10.1420 N.2   600  GTP600     -0.3074
     32  C4       130.4650   95.3460   10.6510 C.2   600  GTP600      0.2300
@<TRIPOS>BOND
     1    20    19    1
     2    18    17    1
     3    19    17    1
     4    19    21    1
     5    17    15    1
     6    30    29    1
     7    31    29    2
     8    31    32    2
     9    21    22    1
    10    21    16    1
    11    29    28    2
    12    32    22    1
    13    32    25    1
    14    22    23    1
    15    28    26    2
    16    15    16    1
    17    15    14    1
    18    25    26    1
    19    25    24    2
    20    26    27    2
    21    23    24    1
    22    14    13    1
    23    13    10    1
    24    11    10    2
    25    10     9    1
    26    10    12    1
    27     9     6    1
    28     2     1    2
    29     4     1    1
    30     6     5    1
    31     6     8    2
    32     6     7    1
    33     5     1    1
    34     1     3    1
