@<TRIPOS>MOLECULE
3hkc_GTP_A_1.pdb
 32 34 0 0 0
SMALL
GASTEIGER

@<TRIPOS>ATOM
      1  PG       123.5160   92.8130   17.4810 P.3   600  GTP600      0.5373
      2  O1G      124.1840   91.6750   16.7960 O.3   600  GTP600     -0.1143
      3  O2G      123.2480   92.5310   18.9770 O.3   600  GTP600     -0.1143
      4  O3G      122.1630   93.1200   16.7780 O.2   600  GTP600     -0.2221
      5  O3B      124.4860   94.1090   17.3550 O.3   600  GTP600     -0.2258
      6  PB       123.8920   95.6070   17.1430 P.3   600  GTP600      0.2277
      7  O1B      124.7880   96.6030   17.7890 O.3   600  GTP600     -0.4368
      8  O2B      122.3980   95.6850   17.6080 O.2   600  GTP600     -0.5168
      9  O3A      124.0820   95.9040   15.5550 O.3   600  GTP600     -0.2700
     10  PA       125.4510   95.7400   14.7320 P.3   600  GTP600      0.2189
     11  O1A      125.4150   94.4850   13.9520 O.2   600  GTP600     -0.5170
     12  O2A      126.5540   95.8880   15.7910 O.3   600  GTP600     -0.4371
     13  O5'      125.4790   96.9740   13.7190 O.3   600  GTP600     -0.3112
     14  C5'      125.1750   96.8470   12.3560 C.3   600  GTP600      0.1813
     15  C4'      126.0470   97.9040   11.7100 C.3   600  GTP600      0.1799
     16  O4'      127.3590   97.6270   12.1060 O.3   600  GTP600     -0.3326
     17  C3'      126.0420   97.8590   10.1950 C.3   600  GTP600      0.2158
     18  O3'      126.3500   99.1530    9.6920 O.3   600  GTP600     -0.2175
     19  C2'      127.1530   96.9120    9.8330 C.3   600  GTP600      0.2310
     20  O2'      127.7440   97.2780    8.6050 O.3   600  GTP600     -0.2158
     21  C1'      128.0940   97.2080   10.9770 C.3   600  GTP600      0.2293
     22  N9       128.8810   96.0620   11.3940 N.pl3 600  GTP600     -0.2354
     23  C8       128.4220   94.8740   11.9070 C.3   600  GTP600      0.2246
     24  N7       129.5070   94.1050   12.1870 N.2   600  GTP600     -0.2322
     25  C5       130.6380   94.8050   11.8610 C.2   600  GTP600      0.2182
     26  C6       132.0010   94.5130   11.9310 C.1   600  GTP600      0.2372
     27  O6       132.3430   93.4100   12.3630 O.2   600  GTP600     -0.2069
     28  N1       132.9460   95.4360   11.5210 N.2   600  GTP600     -0.2485
     29  C2       132.5180   96.6330   11.0410 C.1   600  GTP600      0.2531
     30  N2       133.3950   97.5110   10.6480 N.pl3 600  GTP600     -0.0226
     31  N3       131.1910   96.9360   10.9570 N.2   600  GTP600     -0.3074
     32  C4       130.2550   96.0400   11.3630 C.2   600  GTP600      0.2300
@<TRIPOS>BOND
     1    20    19    1
     2    18    17    1
     3    19    17    1
     4    19    21    1
     5    17    15    1
     6    30    29    1
     7    31    29    2
     8    31    32    2
     9    21    22    1
    10    21    16    1
    11    29    28    2
    12    32    22    1
    13    32    25    1
    14    22    23    1
    15    28    26    2
    16    15    16    1
    17    15    14    1
    18    25    26    1
    19    25    24    2
    20    23    24    1
    21    26    27    2
    22    14    13    1
    23    13    10    1
    24    11    10    2
    25    10     9    1
    26    10    12    1
    27     9     6    1
    28     4     1    2
    29     2     1    1
    30     6     5    1
    31     6     8    2
    32     6     7    1
    33     5     1    1
    34     1     3    1
