@<TRIPOS>MOLECULE
3hkc_GDP_B_1.pdb
 28 30 0 0 0
SMALL
GASTEIGER

@<TRIPOS>ATOM
      1  PB        90.3900   72.4550    5.4920 P.3   600  GDP600      0.5373
      2  O1B       91.3290   73.1590    6.4080 O.3   600  GDP600     -0.1143
      3  O2B       90.7800   70.9660    5.4000 O.2   600  GDP600     -0.2221
      4  O3B       88.8930   72.5680    5.9290 O.3   600  GDP600     -0.1143
      5  O3A       90.5840   73.1630    4.0680 O.3   600  GDP600     -0.2261
      6  PA        91.2590   72.3550    2.8720 P.3   600  GDP600      0.2231
      7  O1A       92.4510   71.7080    3.4470 O.3   600  GDP600     -0.4370
      8  O2A       90.2760   71.3820    2.1760 O.2   600  GDP600     -0.5169
      9  O5'       91.6670   73.5740    1.9060 O.3   600  GDP600     -0.3111
     10  C5'       90.8230   73.9530    0.8350 C.3   600  GDP600      0.1813
     11  C4'       91.5700   74.8800   -0.1230 C.3   600  GDP600      0.1799
     12  O4'       92.9640   74.7450    0.0210 O.3   600  GDP600     -0.3326
     13  C3'       91.2340   74.5680   -1.5680 C.3   600  GDP600      0.2158
     14  O3'       90.7330   75.7380   -2.1570 O.3   600  GDP600     -0.2175
     15  C2'       92.5330   74.2000   -2.2550 C.3   600  GDP600      0.2310
     16  O2'       92.8190   74.9850   -3.4030 O.3   600  GDP600     -0.2158
     17  C1'       93.5940   74.3560   -1.1870 C.3   600  GDP600      0.2293
     18  N9        94.2840   73.0610   -1.0200 N.pl3 600  GDP600     -0.2354
     19  C8        93.6840   71.8790   -0.6790 C.3   600  GDP600      0.2246
     20  N7        94.6250   70.9080   -0.6170 N.2   600  GDP600     -0.2322
     21  C5        95.8270   71.4520   -0.9060 C.2   600  GDP600      0.2182
     22  C6        97.1020   70.8970   -0.9950 C.1   600  GDP600      0.2372
     23  O6        97.1620   69.6840   -1.2030 O.2   600  GDP600     -0.2069
     24  N1        98.1870   71.7110   -1.3240 N.2   600  GDP600     -0.2485
     25  C2        98.0010   73.0600   -1.5770 C.1   600  GDP600      0.2531
     26  N2        98.8600   73.6820   -2.3670 N.pl3 600  GDP600     -0.0226
     27  N3        96.7270   73.5910   -1.4920 N.2   600  GDP600     -0.3074
     28  C4        95.6410   72.8070   -1.1740 C.2   600  GDP600      0.2300
@<TRIPOS>BOND
     1    16    15    1
     2    26    25    1
     3    15    13    1
     4    15    17    1
     5    14    13    1
     6    25    27    2
     7    25    24    2
     8    13    11    1
     9    27    28    2
    10    24    22    2
    11    23    22    2
    12    17    18    1
    13    17    12    1
    14    28    18    1
    15    28    21    1
    16    18    19    1
    17    22    21    1
    18    21    20    2
    19    19    20    1
    20    11    12    1
    21    11    10    1
    22    10     9    1
    23     9     6    1
    24     8     6    2
    25     6     7    1
    26     6     5    1
    27     5     1    1
    28     3     1    2
    29     1     4    1
    30     1     2    1
