@<TRIPOS>MOLECULE
3hkc_E70_B_1.pdb
 26 28 0 0 0
SMALL
GASTEIGER

@<TRIPOS>ATOM
      1  CAA      115.7920   93.7960    2.7970 C.3   700  E70700      0.2525
      2  OAS      115.7000   94.1740    4.1870 O.3   700  E70700     -0.4714
      3  CAV      116.1420   93.2520    5.1150 C.ar  700  E70700      0.1388
      4  CAL      115.3900   92.1070    5.4480 C.ar  700  E70700      0.0383
      5  CAN      115.8440   91.1910    6.3970 C.ar  700  E70700      0.0234
      6  CAM      117.3560   93.4800    5.7600 C.ar  700  E70700      0.0383
      7  CAO      117.8090   92.5660    6.7120 C.ar  700  E70700      0.0234
      8  CAW      117.0610   91.4290    7.0320 C.ar  700  E70700      0.1272
      9  SAZ      117.6370   90.2600    8.2470 S.O2  700  E70700      0.0929
     10  OAB      118.8210   90.7610    9.1020 O.2   700  E70700     -0.1483
     11  OAC      116.4570   89.9950    9.1410 O.2   700  E70700     -0.1483
     12  NAR      118.0270   88.8010    7.4930 N.pl3 700  E70700     -0.0936
     13  CAX      117.8880   88.4220    6.1860 C.ar  700  E70700      0.1242
     14  CAG      118.4880   89.1520    5.1450 C.ar  700  E70700      0.0226
     15  CAE      118.3380   88.7020    3.8410 C.ar  700  E70700      0.0222
     16  CAF      117.6150   87.5290    3.6130 C.ar  700  E70700      0.1005
     17  NAP      117.0790   86.8330    4.6060 N.ar  700  E70700     -0.2260
     18  CAY      117.1860   87.2390    5.8840 C.ar  700  E70700      0.1686
     19  NAQ      116.6470   86.5260    6.8900 N.pl3 700  E70700     -0.1930
     20  CAU      115.5810   85.7190    6.8210 C.ar  700  E70700      0.0724
     21  CAJ      115.1100   85.1450    8.0060 C.ar  700  E70700      0.0198
     22  CAH      114.0040   84.2890    7.9800 C.ar  700  E70700      0.0434
     23  CAT      113.3440   84.0010    6.7810 C.ar  700  E70700      0.1958
     24  OAD      112.2570   83.1730    6.8060 O.3   700  E70700     -0.2866
     25  CAI      113.8070   84.5730    5.5830 C.ar  700  E70700      0.0434
     26  CAK      114.9260   85.4230    5.6070 C.ar  700  E70700      0.0198
@<TRIPOS>BOND
     1     1     2    1
     2    16    15   ar
     3    16    17   ar
     4    15    14   ar
     5     2     3    1
     6    17    18   ar
     7     3     4   ar
     8     3     6   ar
     9    14    13   ar
    10     4     5   ar
    11    25    26   ar
    12    25    23   ar
    13    26    20   ar
    14     6     7   ar
    15    18    13   ar
    16    18    19    1
    17    13    12    1
    18     5     8   ar
    19     7     8   ar
    20    23    24    1
    21    23    22   ar
    22    20    19    1
    23    20    21   ar
    24     8     9    1
    25    12     9    1
    26    22    21   ar
    27     9    10    2
    28     9    11    2
