@<TRIPOS>MOLECULE
3hkd_N16_B_1.pdb
 23 25 0 0 0
SMALL
GASTEIGER

@<TRIPOS>ATOM
      1  CD1      111.2480   82.5830    8.2650 C.ar  700  N16700     -0.0042
      2  CE1      110.4750   81.4280    8.3650 C.ar  700  N16700     -0.0003
      3  CZ       109.0930   81.5460    8.3620 C.ar  700  N16700     -0.0000
      4  CE2      108.5080   82.8090    8.2650 C.ar  700  N16700     -0.0003
      5  CD2      109.2820   83.9640    8.1730 C.ar  700  N16700     -0.0042
      6  CG       110.6650   83.8460    8.1730 C.ar  700  N16700     -0.0198
      7  CB       111.5450   85.0960    8.0740 C.3   700  N16700      0.0591
      8  CA       111.8030   85.4160    6.6120 C.3   700  N16700      0.1772
      9  C        112.2940   86.8460    6.4340 C.2   700  N16700      0.1943
     10  O        111.6290   87.8340    6.7350 O.2   700  N16700     -0.2925
     11  N        112.9310   84.6110    6.1210 N.2   700  N16700     -0.1997
     12  CAR      113.8950   85.4480    5.7050 C.1   700  N16700      0.1380
     13  OAB      114.9620   85.0540    5.2310 O.2   700  N16700     -0.2262
     14  CAT      113.5670   86.8050    5.8600 C.3   700  N16700      0.2008
     15  CAQ      114.4360   87.8620    5.4990 C.2   700  N16700      0.0594
     16  CAA      114.0930   89.3550    5.6750 C.3   700  N16700      0.0489
     17  NAO      115.6160   87.5220    4.9760 N.2   700  N16700     -0.2524
     18  CAV      116.5510   88.3810    4.6300 C.ar  700  N16700      0.0806
     19  CAL      117.0330   89.2420    5.6200 C.ar  700  N16700      0.0191
     20  CAH      118.0370   90.1540    5.3020 C.ar  700  N16700      0.0015
     21  CAE      118.5840   90.1840    4.0090 C.ar  700  N16700      0.0001
     22  CAI      118.1080   89.2950    3.0360 C.ar  700  N16700      0.0015
     23  CAM      117.0930   88.3850    3.3500 C.ar  700  N16700      0.0191
@<TRIPOS>BOND
     1    22    23   ar
     2    22    21   ar
     3    23    18   ar
     4    21    20   ar
     5    18    17    1
     6    18    19   ar
     7    17    15    2
     8    13    12    2
     9    20    19   ar
    10    15    16    1
    11    15    14    1
    12    12    14    1
    13    12    11    2
    14    14     9    1
    15    11     8    1
    16     9     8    1
    17     9    10    2
    18     8     7    1
    19     7     6    1
    20     6     5   ar
    21     6     1   ar
    22     5     4   ar
    23     1     2   ar
    24     4     3   ar
    25     3     2   ar
