@<TRIPOS>MOLECULE
3hkd_GDP_B_1.pdb
 28 30 0 0 0
SMALL
GASTEIGER

@<TRIPOS>ATOM
      1  PB        90.3670   72.9790    5.1570 P.3   600  GDP600      0.5373
      2  O1B       91.5530   73.7380    5.6330 O.3   600  GDP600     -0.1143
      3  O2B       90.7240   71.4780    5.1720 O.2   600  GDP600     -0.2221
      4  O3B       89.0780   73.2350    6.0020 O.3   600  GDP600     -0.1143
      5  O3A       90.1500   73.5710    3.6530 O.3   600  GDP600     -0.2261
      6  PA        90.7790   72.9960    2.2810 P.3   600  GDP600      0.2231
      7  O1A       91.8760   72.1220    2.7390 O.3   600  GDP600     -0.4370
      8  O2A       89.7110   72.2740    1.4040 O.2   600  GDP600     -0.5169
      9  O5'       91.3970   74.2910    1.5600 O.3   600  GDP600     -0.3111
     10  C5'       90.5710   75.0490    0.7240 C.3   600  GDP600      0.1813
     11  C4'       91.3840   75.7340   -0.3700 C.3   600  GDP600      0.1799
     12  O4'       92.7220   75.3010   -0.2930 O.3   600  GDP600     -0.3326
     13  C3'       90.8260   75.3680   -1.7500 C.3   600  GDP600      0.2158
     14  O3'       90.6600   76.4940   -2.5830 O.3   600  GDP600     -0.2175
     15  C2'       91.8590   74.4810   -2.3830 C.3   600  GDP600      0.2310
     16  O2'       92.1120   74.8820   -3.7100 O.3   600  GDP600     -0.2158
     17  C1'       93.0980   74.6400   -1.5010 C.3   600  GDP600      0.2293
     18  N9        93.7210   73.3110   -1.2410 N.pl3 600  GDP600     -0.2354
     19  C8        93.0720   72.1610   -0.8340 C.3   600  GDP600      0.2246
     20  N7        93.9760   71.1550   -0.7160 N.2   600  GDP600     -0.2322
     21  C5        95.2010   71.6380   -1.0360 C.2   600  GDP600      0.2182
     22  C6        96.4540   71.0320   -1.0690 C.1   600  GDP600      0.2372
     23  O6        96.6390   70.1190   -0.2640 O.2   600  GDP600     -0.2069
     24  N1        97.5460   71.7860   -1.4610 N.2   600  GDP600     -0.2485
     25  C2        97.4030   73.1170   -1.8100 C.1   600  GDP600      0.2531
     26  N2        98.1830   73.5520   -2.7840 N.pl3 600  GDP600     -0.0226
     27  N3        96.1570   73.7100   -1.7540 N.2   600  GDP600     -0.3074
     28  C4        95.0630   72.9870   -1.3810 C.2   600  GDP600      0.2300
@<TRIPOS>BOND
     1    16    15    1
     2    26    25    1
     3    14    13    1
     4    15    13    1
     5    15    17    1
     6    25    27    2
     7    25    24    2
     8    27    28    2
     9    13    11    1
    10    17    18    1
    11    17    12    1
    12    24    22    2
    13    28    18    1
    14    28    21    1
    15    18    19    1
    16    22    21    1
    17    22    23    2
    18    21    20    2
    19    19    20    1
    20    11    12    1
    21    11    10    1
    22    10     9    1
    23     8     6    2
    24     9     6    1
    25     6     7    1
    26     6     5    1
    27     5     1    1
    28     1     3    2
    29     1     2    1
    30     1     4    1
