@<TRIPOS>MOLECULE
3hkd_GTP_A_1.pdb
 32 34 0 0 0
SMALL
GASTEIGER

@<TRIPOS>ATOM
      1  PG       123.2060   92.9940   17.5010 P.3   600  GTP600      0.5373
      2  O1G      123.5410   91.8860   16.5870 O.2   600  GTP600     -0.2221
      3  O2G      123.2810   92.4630   18.9380 O.3   600  GTP600     -0.1143
      4  O3G      121.8060   93.5640   17.1580 O.3   600  GTP600     -0.1143
      5  O3B      124.2930   94.1790   17.3550 O.3   600  GTP600     -0.2258
      6  PB       123.8710   95.7460   17.3490 P.3   600  GTP600      0.2277
      7  O1B      124.9400   96.5400   18.0040 O.3   600  GTP600     -0.4368
      8  O2B      122.4720   95.9730   17.9840 O.2   600  GTP600     -0.5168
      9  O3A      123.8590   96.1130   15.7620 O.3   600  GTP600     -0.2700
     10  PA       125.1700   95.9400   14.8180 P.3   600  GTP600      0.2189
     11  O1A      125.0940   94.6370   14.1110 O.2   600  GTP600     -0.5170
     12  O2A      126.4100   96.0730   15.7230 O.3   600  GTP600     -0.4371
     13  O5'      125.1800   97.1900   13.8050 O.3   600  GTP600     -0.3112
     14  C5'      124.6510   97.1440   12.5020 C.3   600  GTP600      0.1813
     15  C4'      125.6220   97.9750   11.7010 C.3   600  GTP600      0.1799
     16  O4'      126.8770   97.5670   12.1690 O.3   600  GTP600     -0.3326
     17  C3'      125.6110   97.6690   10.2190 C.3   600  GTP600      0.2158
     18  O3'      126.0070   98.8610    9.5690 O.3   600  GTP600     -0.2175
     19  C2'      126.6930   96.6370   10.0380 C.3   600  GTP600      0.2310
     20  O2'      127.3470   96.7530    8.8060 O.3   600  GTP600     -0.2158
     21  C1'      127.6650   97.0720   11.1000 C.3   600  GTP600      0.2293
     22  N9       128.5470   95.9850   11.5360 N.pl3 600  GTP600     -0.2354
     23  C8       128.1200   94.7990   12.0410 C.3   600  GTP600      0.2246
     24  N7       129.2020   94.0540   12.3430 N.2   600  GTP600     -0.2322
     25  C5       130.3050   94.7530   12.0540 C.2   600  GTP600      0.2182
     26  C6       131.6380   94.4270   12.1750 C.1   600  GTP600      0.2372
     27  O6       131.9230   93.3170   12.6190 O.2   600  GTP600     -0.2069
     28  N1       132.6100   95.3270   11.7910 N.2   600  GTP600     -0.2485
     29  C2       132.2190   96.5430   11.2800 C.1   600  GTP600      0.2531
     30  N2       133.1350   97.4190   10.8970 N.pl3 600  GTP600     -0.0226
     31  N3       130.8810   96.8520   11.1570 N.2   600  GTP600     -0.3074
     32  C4       129.9240   95.9720   11.5410 C.2   600  GTP600      0.2300
@<TRIPOS>BOND
     1    20    19    1
     2    18    17    1
     3    19    17    1
     4    19    21    1
     5    17    15    1
     6    30    29    1
     7    21    22    1
     8    21    16    1
     9    31    29    2
    10    31    32    2
    11    29    28    2
    12    22    32    1
    13    22    23    1
    14    32    25    1
    15    15    16    1
    16    15    14    1
    17    28    26    2
    18    23    24    1
    19    25    26    1
    20    25    24    2
    21    26    27    2
    22    14    13    1
    23    13    10    1
    24    11    10    2
    25    10    12    1
    26    10     9    1
    27     9     6    1
    28     2     1    2
    29     4     1    1
    30     6     5    1
    31     6     8    2
    32     6     7    1
    33     5     1    1
    34     1     3    1
