@<TRIPOS>MOLECULE
3hke_GDP_B_1.pdb
 28 30 0 0 0
SMALL
GASTEIGER

@<TRIPOS>ATOM
      1  PB        89.5980   72.1180    5.5950 P.3   600  GDP600      0.5373
      2  O1B       90.3790   73.1050    6.3810 O.3   600  GDP600     -0.1143
      3  O2B       90.2830   70.7410    5.6320 O.2   600  GDP600     -0.2221
      4  O3B       88.1430   71.9110    6.1430 O.3   600  GDP600     -0.1143
      5  O3A       89.6050   72.6970    4.0790 O.3   600  GDP600     -0.2261
      6  PA        90.6320   72.2050    2.9370 P.3   600  GDP600      0.2231
      7  O1A       91.8850   71.8340    3.6200 O.3   600  GDP600     -0.4370
      8  O2A       89.9940   71.0510    2.1120 O.2   600  GDP600     -0.5169
      9  O5'       90.8570   73.5310    2.0320 O.3   600  GDP600     -0.3111
     10  C5'       90.0960   73.7650    0.8580 C.3   600  GDP600      0.1813
     11  C4'       90.8030   74.7950   -0.0260 C.3   600  GDP600      0.1799
     12  O4'       92.1950   74.6560    0.1120 O.3   600  GDP600     -0.3326
     13  C3'       90.5170   74.6340   -1.5190 C.3   600  GDP600      0.2158
     14  O3'       90.4860   75.8880   -2.1610 O.3   600  GDP600     -0.2175
     15  C2'       91.7030   73.9220   -2.1190 C.3   600  GDP600      0.2310
     16  O2'       92.0400   74.4020   -3.4140 O.3   600  GDP600     -0.2158
     17  C1'       92.7960   74.1310   -1.0770 C.3   600  GDP600      0.2293
     18  N9        93.4790   72.8330   -0.8260 N.pl3 600  GDP600     -0.2354
     19  C8        92.9060   71.6690   -0.3560 C.3   600  GDP600      0.2246
     20  N7        93.8560   70.7090   -0.2630 N.2   600  GDP600     -0.2322
     21  C5        95.0270   71.2460   -0.6640 C.2   600  GDP600      0.2182
     22  C6        96.2920   70.6990   -0.7690 C.1   600  GDP600      0.2372
     23  O6        96.3670   69.4730   -0.8840 O.2   600  GDP600     -0.2069
     24  N1        97.3240   71.5000   -1.2230 N.2   600  GDP600     -0.2485
     25  C2        97.0830   72.8140   -1.5710 C.1   600  GDP600      0.2531
     26  N2        97.9200   73.4270   -2.3840 N.pl3 600  GDP600     -0.0226
     27  N3        95.8240   73.3440   -1.4670 N.2   600  GDP600     -0.3074
     28  C4        94.8090   72.5700   -1.0280 C.2   600  GDP600      0.2300
@<TRIPOS>BOND
     1    16    15    1
     2    26    25    1
     3    14    13    1
     4    15    13    1
     5    15    17    1
     6    25    27    2
     7    25    24    2
     8    13    11    1
     9    27    28    2
    10    24    22    2
    11    17    18    1
    12    17    12    1
    13    28    18    1
    14    28    21    1
    15    23    22    2
    16    18    19    1
    17    22    21    1
    18    21    20    2
    19    19    20    1
    20    11    12    1
    21    11    10    1
    22    10     9    1
    23     9     6    1
    24     8     6    2
    25     6     7    1
    26     6     5    1
    27     5     1    1
    28     1     3    2
    29     1     4    1
    30     1     2    1
