@<TRIPOS>MOLECULE
3hke_T13_B_1.pdb
 23 24 0 0 0
SMALL
GASTEIGER

@<TRIPOS>ATOM
      1  CAA      127.6730   92.3460    2.5730 C.3   1241  T131241     0.2526
      2  OAN      127.5410   92.0680    3.9590 O.3   1241  T131241    -0.4692
      3  CAV      126.7090   91.0060    4.1260 C.ar  1241  T131241     0.1660
      4  CAP      125.4280   91.2680    4.5790 C.ar  1241  T131241     0.1752
      5  CAL      124.5510   90.1920    4.7640 C.ar  1241  T131241     0.0508
      6  FAD      125.0810   92.5500    4.8170 F     1241  T131241    -0.2009
      7  CAK      127.1180   89.6820    3.8670 C.ar  1241  T131241     0.0406
      8  CAJ      126.2550   88.5970    4.0520 C.ar  1241  T131241     0.0213
      9  CAO      124.9690   88.8710    4.5050 C.ar  1241  T131241     0.0935
     10  NAM      124.1310   87.8680    4.6300 N.pl3 1241  T131241    -0.0963
     11  SAX      124.3280   86.7300    5.7890 S.O2  1241  T131241     0.0973
     12  OAB      124.6900   87.4630    7.0390 O.2   1241  T131241    -0.1482
     13  OAC      125.4380   85.8300    5.3390 O.2   1241  T131241    -0.1482
     14  CAW      122.7980   85.7830    5.8740 C.ar  1241  T131241     0.1860
     15  CAT      122.8300   84.4970    5.3230 C.ar  1241  T131241     0.1885
     16  FAH      123.9720   84.0040    4.8030 F     1241  T131241    -0.2003
     17  CAR      121.6870   83.7070    5.2970 C.ar  1241  T131241     0.1711
     18  FAF      121.7730   82.4710    4.7450 F     1241  T131241    -0.2017
     19  CAQ      120.4740   84.1800    5.8270 C.ar  1241  T131241     0.0640
     20  CAS      120.4290   85.4680    6.3880 C.ar  1241  T131241     0.1711
     21  FAG      119.3150   86.0050    6.9230 F     1241  T131241    -0.2017
     22  CAU      121.5730   86.2650    6.4080 C.ar  1241  T131241     0.1885
     23  FAI      121.4250   87.4870    6.9740 F     1241  T131241    -0.2003
@<TRIPOS>BOND
     1     1     2    1
     2     7     8   ar
     3     7     3   ar
     4     2     3    1
     5     8     9   ar
     6     3     4   ar
     7     9    10    1
     8     9     5   ar
     9     4     5   ar
    10     4     6    1
    11    10    11    1
    12    18    17    1
    13    16    15    1
    14    17    15   ar
    15    17    19   ar
    16    15    14   ar
    17    13    11    2
    18    11    14    1
    19    11    12    2
    20    19    20   ar
    21    14    22   ar
    22    20    22   ar
    23    20    21    1
    24    22    23    1
