@<TRIPOS>MOLECULE
3hke_GTP_A_1.pdb
 32 34 0 0 0
SMALL
GASTEIGER

@<TRIPOS>ATOM
      1  PG       122.3290   92.5320   17.5780 P.3   600  GTP600      0.5373
      2  O1G      122.9220   91.3230   17.0010 O.3   600  GTP600     -0.1143
      3  O2G      121.9440   92.2490   19.0370 O.3   600  GTP600     -0.1143
      4  O3G      121.0340   92.9480   16.8410 O.2   600  GTP600     -0.2221
      5  O3B      123.4740   93.6700   17.5140 O.3   600  GTP600     -0.2258
      6  PB       123.0290   95.2070   17.2770 P.3   600  GTP600      0.2277
      7  O1B      124.0340   96.1170   17.9030 O.3   600  GTP600     -0.4368
      8  O2B      121.5740   95.5340   17.7420 O.2   600  GTP600     -0.5168
      9  O3A      123.1290   95.3080   15.6640 O.3   600  GTP600     -0.2700
     10  PA       124.4990   95.1830   14.8290 P.3   600  GTP600      0.2189
     11  O1A      124.3750   94.0140   13.9380 O.2   600  GTP600     -0.5170
     12  O2A      125.7030   95.1660   15.7950 O.3   600  GTP600     -0.4371
     13  O5'      124.5380   96.5300   13.9670 O.3   600  GTP600     -0.3112
     14  C5'      124.1240   96.5110   12.6340 C.3   600  GTP600      0.1813
     15  C4'      125.1180   97.4170   11.9490 C.3   600  GTP600      0.1799
     16  O4'      126.3910   96.9760   12.3260 O.3   600  GTP600     -0.3326
     17  C3'      125.0770   97.2880   10.4480 C.3   600  GTP600      0.2158
     18  O3'      125.4590   98.5810    9.9930 O.3   600  GTP600     -0.2175
     19  C2'      126.0900   96.1970   10.1490 C.3   600  GTP600      0.2310
     20  O2'      126.6430   96.3340    8.8680 O.3   600  GTP600     -0.2158
     21  C1'      127.1160   96.5060   11.2090 C.3   600  GTP600      0.2293
     22  N9       127.9590   95.4070   11.6760 N.pl3 600  GTP600     -0.2354
     23  C8       127.5670   94.2560   12.2990 C.3   600  GTP600      0.2246
     24  N7       128.6770   93.5300   12.6010 N.2   600  GTP600     -0.2322
     25  C5       129.7650   94.2200   12.1930 C.2   600  GTP600      0.2182
     26  C6       131.1170   93.9560   12.2530 C.1   600  GTP600      0.2372
     27  O6       131.4950   92.9130   12.7670 O.2   600  GTP600     -0.2069
     28  N1       132.0160   94.8580   11.7460 N.2   600  GTP600     -0.2485
     29  C2       131.5470   96.0150   11.1920 C.1   600  GTP600      0.2531
     30  N2       132.3650   96.9080   10.7030 N.pl3 600  GTP600     -0.0226
     31  N3       130.2200   96.2840   11.1330 N.2   600  GTP600     -0.3074
     32  C4       129.3300   95.3990   11.6210 C.2   600  GTP600      0.2300
@<TRIPOS>BOND
     1    20    19    1
     2    18    17    1
     3    19    17    1
     4    19    21    1
     5    17    15    1
     6    30    29    1
     7    31    29    2
     8    31    32    2
     9    29    28    2
    10    21    22    1
    11    21    16    1
    12    32    22    1
    13    32    25    1
    14    22    23    1
    15    28    26    2
    16    15    16    1
    17    15    14    1
    18    25    26    1
    19    25    24    2
    20    26    27    2
    21    23    24    1
    22    14    13    1
    23    11    10    2
    24    13    10    1
    25    10     9    1
    26    10    12    1
    27     9     6    1
    28     4     1    2
    29     2     1    1
    30     6     5    1
    31     6     8    2
    32     6     7    1
    33     5     1    1
    34     1     3    1
