@<TRIPOS>MOLECULE
3hkk_GTS_A_1.pdb
 23 22 0 0 0
SMALL
GASTEIGER

@<TRIPOS>ATOM
      1  N1         7.5060   67.1790   15.4700 N.3   203  GTS203     -0.1208
      2  CA1        6.5610   66.1080   15.1690 C.3   203  GTS203      0.1948
      3  C1         5.4550   66.6300   14.2200 C.2   203  GTS203      0.3819
      4  O11        5.4340   67.8530   13.8600 O.co2 203  GTS203     -0.2441
      5  O12        4.6030   65.8130   13.7710 O.co2 203  GTS203     -0.2441
      6  CB1        6.1500   65.4810   16.5260 C.3   203  GTS203      0.0402
      7  CG1        5.0880   64.3750   16.5340 C.3   203  GTS203      0.0889
      8  CD1        5.3580   63.2920   15.5200 C.2   203  GTS203      0.2419
      9  OE1        6.4320   62.6950   15.5490 O.2   203  GTS203     -0.2733
     10  N2         4.3760   63.0650   14.6320 N.am  203  GTS203     -0.1961
     11  CA2        4.3760   62.0070   13.6170 C.3   203  GTS203      0.1924
     12  C2         4.8730   62.4440   12.2570 C.2   203  GTS203      0.2634
     13  O2         5.2600   61.6210   11.4140 O.2   203  GTS203     -0.2714
     14  CB2        2.9950   61.3440   13.5130 C.3   203  GTS203      0.1362
     15  SG2        1.6860   62.2940   13.0350 S.3   203  GTS203     -0.1938
     16  O1S        1.3680   63.4170   13.9510 O.3   203  GTS203     -0.3074
     17  O2S        1.9390   62.8630   11.6850 O.3   203  GTS203     -0.3074
     18  O3S        0.5360   61.3760   13.0260 O.3   203  GTS203     -0.3074
     19  N3         4.8760   63.7600   12.0580 N.am  203  GTS203     -0.1917
     20  CA3        5.1680   64.3310   10.7640 C.3   203  GTS203      0.2285
     21  C3         6.3850   65.2360   10.7330 C.2   203  GTS203      0.3865
     22  O31        7.1200   65.3380   11.7500 O.co2 203  GTS203     -0.2437
     23  O32        6.6030   65.8580    9.6580 O.co2 203  GTS203     -0.2437
@<TRIPOS>BOND
     1    23    21   ar
     2    21    20    1
     3    21    22   ar
     4    20    19    1
     5    13    12    2
     6    17    15    1
     7    19    12   am
     8    12    11    1
     9    18    15    1
    10    15    14    1
    11    15    16    1
    12    14    11    1
    13    11    10    1
    14     5     3   ar
    15     4     3   ar
    16     3     2    1
    17    10     8   am
    18     2     1    1
    19     2     6    1
    20     8     9    2
    21     8     7    1
    22     6     7    1
