@<TRIPOS>MOLECULE
3hkn_MFS_A_1.pdb
 47 48 0 0 0
SMALL
GASTEIGER

@<TRIPOS>ATOM
      1  C2        16.1140    4.1460   13.8670 C.3   300  MFS300      0.2624
      2  C3        16.7560    5.2000   12.9790 C.3   300  MFS300      0.2423
      3  O4        16.8800    7.6600   12.8930 O.3   300  MFS300     -0.3237
      4  C7        18.2170    8.1770   12.9870 C.3   300  MFS300      0.2810
      5  C8        18.5910    8.8240   11.6630 C.3   300  MFS300      0.2679
      6  C9        20.0350    9.2900   11.7170 C.3   300  MFS300      0.2557
      7  C10       20.1830   10.2950   12.8430 C.3   300  MFS300      0.2429
      8  C11       19.6660    9.6260   14.1030 C.3   300  MFS300      0.2049
      9  C12       19.8580   10.5680   15.2820 C.3   300  MFS300      0.2417
     10  C13       18.4550    2.7420   13.1300 C.3   300  MFS300      0.1212
     11  C14       17.0580    2.1950   12.8370 C.2   300  MFS300      0.3177
     12  C16       16.9900    4.9010   10.7230 C.2   300  MFS300      0.3176
     13  C5        17.3260    6.3910   15.0350 C.3   300  MFS300      0.1915
     14  C6        17.1910    7.6790   15.8260 C.3   300  MFS300      0.2404
     15  C22       20.1780    6.5920   11.9110 C.3   300  MFS300      0.1212
     16  C23       19.3000    6.8340   10.6800 C.2   300  MFS300      0.3177
     17  O24       19.3660    6.0600    9.7260 O.2   300  MFS300     -0.2501
     18  O8        18.4810    7.9120   10.5640 O.3   300  MFS300     -0.4430
     19  O9        20.4680    9.8620   10.4740 O.3   300  MFS300     -0.4444
     20  C25       21.8170    9.7510   10.3300 C.2   300  MFS300      0.3177
     21  C26       22.6600    9.0310   11.3850 C.3   300  MFS300      0.1212
     22  O27       22.3660   10.2140    9.3310 O.2   300  MFS300     -0.2501
     23  O10       19.4250   11.4810   12.5680 O.3   300  MFS300     -0.4456
     24  C29       20.2800   12.5030   12.0340 C.2   300  MFS300      0.3176
     25  C28       20.4480   13.8280   12.7820 C.3   300  MFS300      0.1212
     26  O30       20.9790   12.2980   10.8040 O.2   300  MFS300     -0.2501
     27  O12       20.4520   11.8090   14.8700 O.3   300  MFS300     -0.4457
     28  C31       21.7840   11.8660   15.1530 C.2   300  MFS300      0.3176
     29  C32       22.4490   10.7100   15.8870 C.3   300  MFS300      0.1212
     30  O33       22.4480   12.8540   14.8390 O.2   300  MFS300     -0.2501
     31  O11       18.2890    9.2550   13.9330 O.3   300  MFS300     -0.3225
     32  C4        16.5870    6.5170   13.7150 C.3   300  MFS300      0.1922
     33  O3        16.1230    5.2930   11.6960 O.3   300  MFS300     -0.4457
     34  C17       18.3310    4.2610   11.0840 C.3   300  MFS300      0.1212
     35  O18       16.6690    5.0160    9.5420 O.2   300  MFS300     -0.2501
     36  O2        15.9400    2.8770   13.2130 O.3   300  MFS300     -0.4438
     37  O15       16.9380    1.1150   12.2610 O.2   300  MFS300     -0.2501
     38  C1        16.7910    4.0310   15.2240 C.3   300  MFS300      0.3084
     39  SAI       15.8970    2.8870   16.3430 S.O2  300  MFS300      0.1022
     40  OAM       16.3410    3.1340   17.7550 O.2   300  MFS300     -0.1524
     41  OAE       14.4190    3.1270   16.2540 O.2   300  MFS300     -0.1524
     42  NAJ       16.2250    1.3400   15.9480 N.3   300  MFS300      0.0370
     43  O5        16.7730    5.3320   15.8320 O.3   300  MFS300     -0.3271
     44  O6        16.0530    8.3940   15.3250 O.3   300  MFS300     -0.4457
     45  C19       14.8540    7.9220   15.7630 C.2   300  MFS300      0.3176
     46  C20       14.7630    6.7640   16.7600 C.3   300  MFS300      0.1212
     47  O21       13.8310    8.4670   15.3540 O.2   300  MFS300     -0.2501
@<TRIPOS>BOND
     1    22    20    2
     2    35    12    2
     3    17    16    2
     4    20    19    1
     5    20    21    1
     6    19     6    1
     7    18    16    1
     8    18     5    1
     9    16    15    1
    10    12    34    1
    11    12    33    1
    12    26    24    2
    13     5     6    1
    14     5     4    1
    15    33     2    1
    16     6     7    1
    17    24    23    1
    18    24    25    1
    19    37    11    2
    20    23     7    1
    21    11    10    1
    22    11    36    1
    23     7     8    1
    24     3     4    1
    25     3    32    1
    26     2    32    1
    27     2     1    1
    28     4    31    1
    29    36     1    1
    30    32    13    1
    31     1    38    1
    32    31     8    1
    33     8     9    1
    34    30    28    2
    35    27    28    1
    36    27     9    1
    37    13    14    1
    38    13    43    1
    39    28    29    1
    40    38    43    1
    41    38    39    1
    42    44    45    1
    43    44    14    1
    44    47    45    2
    45    45    46    1
    46    42    39    1
    47    41    39    2
    48    39    40    2
