@<TRIPOS>MOLECULE
3hko_ANP_A_1.pdb
 31 33 0 0 0
SMALL
GASTEIGER

@<TRIPOS>ATOM
      1  PG        10.9310  -27.8130  -24.6080 P.3   329  ANP329      0.4884
      2  O1G       12.2770  -28.4380  -24.8900 O.2   329  ANP329     -0.2331
      3  O2G       11.0210  -26.5800  -23.7420 O.3   329  ANP329     -0.1240
      4  O3G        9.8840  -28.8080  -24.1640 O.3   329  ANP329     -0.1240
      5  PB         9.0070  -26.1290  -26.2860 P.3   329  ANP329      0.4669
      6  O1B        7.9390  -26.7300  -27.1670 O.2   329  ANP329     -0.2351
      7  O2B        8.6090  -25.7080  -24.8900 O.3   329  ANP329     -0.1253
      8  N3B       10.3450  -27.2540  -26.1640 N.3   329  ANP329     -0.0163
      9  PA        10.7490  -24.0260  -26.3270 P.3   329  ANP329      0.2220
     10  O1A       10.1540  -22.9160  -25.4920 O.3   329  ANP329     -0.4370
     11  O2A       11.6620  -25.0670  -25.7140 O.2   329  ANP329     -0.5170
     12  O3A        9.5460  -24.8080  -27.0280 O.3   329  ANP329     -0.2360
     13  O5'       11.5730  -23.3680  -27.5450 O.3   329  ANP329     -0.3111
     14  C5'       12.2890  -24.2170  -28.4350 C.3   329  ANP329      0.1813
     15  C4'       13.6390  -23.5870  -28.7220 C.3   329  ANP329      0.1821
     16  O4'       13.4390  -22.3010  -29.3090 O.3   329  ANP329     -0.3135
     17  C3'       14.4380  -23.3330  -27.4520 C.3   329  ANP329      0.2184
     18  O3'       15.3620  -24.3920  -27.1890 O.3   329  ANP329     -0.2174
     19  C2'       15.2030  -22.0600  -27.7460 C.3   329  ANP329      0.2570
     20  O2'       16.5480  -22.4060  -28.0920 O.3   329  ANP329     -0.2130
     21  C1'       14.4910  -21.4200  -28.9270 C.3   329  ANP329      0.3186
     22  N9        13.9020  -20.1510  -28.4550 N.pl3 329  ANP329     -0.1439
     23  C8        12.7550  -20.0150  -27.7650 C.3   329  ANP329      0.3377
     24  N7        12.5200  -18.7070  -27.4820 N.2   329  ANP329     -0.2095
     25  C5        13.5410  -17.9960  -27.9920 C.2   329  ANP329      0.2526
     26  C6        13.9210  -16.5690  -28.0460 C.2   329  ANP329      0.4393
     27  N6        13.1320  -15.6250  -27.4820 N.pl3 329  ANP329      0.2180
     28  N1        15.0790  -16.2530  -28.6740 N.2   329  ANP329      0.0021
     29  C2        15.8600  -17.1890  -29.2380 C.3   329  ANP329      0.5254
     30  N3        15.5780  -18.5010  -29.2260 N.2   329  ANP329     -0.0055
     31  C4        14.4500  -18.9520  -28.6280 C.2   329  ANP329      0.3518
@<TRIPOS>BOND
     1    16    21    1
     2    16    15    1
     3    29    30    1
     4    29    28    1
     5    30    31    2
     6    21    22    1
     7    21    19    1
     8    15    14    1
     9    15    17    1
    10    28    26    2
    11    31    22    1
    12    31    25    1
    13    22    23    1
    14    14    13    1
    15    20    19    1
    16    26    25    1
    17    26    27    1
    18    25    24    2
    19    23    24    1
    20    19    17    1
    21    13     9    1
    22    17    18    1
    23     6     5    2
    24    12     9    1
    25    12     5    1
    26     9    11    2
    27     9    10    1
    28     5     8    1
    29     5     7    1
    30     8     1    1
    31     2     1    2
    32     1     4    1
    33     1     3    1
