@<TRIPOS>MOLECULE
3hkp_DHB_A_1.pdb
 11 11 0 0 0
SMALL
GASTEIGER

@<TRIPOS>ATOM
      1  C1         1.9350   -2.2430   20.9310 C.ar  282  DHB282      0.0832
      2  C2         2.2930   -3.1280   19.8990 C.ar  282  DHB282      0.0520
      3  C3         3.1120   -2.7030   18.8720 C.ar  282  DHB282      0.2345
      4  O3         3.4460   -3.5210   17.8580 O.3   282  DHB282     -0.2831
      5  C4         3.5720   -1.2980   18.8930 C.ar  282  DHB282      0.2343
      6  O4         4.3710   -0.8890   17.8970 O.3   282  DHB282     -0.2831
      7  C5         3.2020   -0.4400   19.9370 C.ar  282  DHB282      0.0456
      8  C6         2.3790   -0.9140   20.9570 C.ar  282  DHB282      0.0101
      9  C          1.0670   -2.7760   22.0380 C.2   282  DHB282      0.3879
     10  O1         1.1290   -2.2120   23.1520 O.co2 282  DHB282     -0.2406
     11  O2         0.3210   -3.7870   21.8170 O.co2 282  DHB282     -0.2406
@<TRIPOS>BOND
     1     4     3    1
     2     6     5    1
     3     3     5   ar
     4     3     2   ar
     5     5     7   ar
     6     2     1   ar
     7     7     8   ar
     8     1     8   ar
     9     1     9    1
    10    11     9   ar
    11     9    10   ar
