@<TRIPOS>MOLECULE
3hkq_1SD_A_1.pdb
 15 15 0 0 0
SMALL
GASTEIGER

@<TRIPOS>ATOM
      1  O2        17.0460    2.1500   13.8140 O.3   300  1SD300     -0.2157
      2  C2        16.5600    3.4770   14.0360 C.3   300  1SD300      0.2362
      3  C3        17.2540    4.4430   13.0750 C.3   300  1SD300      0.2191
      4  O3        16.8650    4.1410   11.7320 O.3   300  1SD300     -0.2174
      5  C4        16.8400    5.8770   13.4070 C.3   300  1SD300      0.2144
      6  O4        15.4430    6.0370   13.1470 O.3   300  1SD300     -0.2176
      7  C5        17.1130    6.1610   14.8850 C.3   300  1SD300      0.1829
      8  C6        16.6930    7.5940   15.2180 C.3   300  1SD300      0.2142
      9  O6        15.2970    7.7540   14.9570 O.3   300  1SD300     -0.2176
     10  O5        16.3620    5.2370   15.6880 O.3   300  1SD300     -0.3290
     11  C1        16.8230    3.8910   15.4860 C.3   300  1SD300      0.2974
     12  SAI       15.9190    2.7790   16.6260 S.O2  300  1SD300      0.1011
     13  OAM       16.3670    3.0430   18.0330 O.2   300  1SD300     -0.1524
     14  OAE       14.4450    3.0350   16.5230 O.2   300  1SD300     -0.1524
     15  NAJ       16.2440    1.2300   16.2370 N.3   300  1SD300      0.0370
@<TRIPOS>BOND
     1     4     3    1
     2     3     5    1
     3     3     2    1
     4     6     5    1
     5     5     7    1
     6     1     2    1
     7     2    11    1
     8     7     8    1
     9     7    10    1
    10     9     8    1
    11    11    10    1
    12    11    12    1
    13    15    12    1
    14    14    12    2
    15    12    13    2
