@<TRIPOS>MOLECULE
3hkt_2SD_A_1.pdb
 26 27 0 0 0
SMALL
GASTEIGER

@<TRIPOS>ATOM
      1  O8        18.6160    6.2680    9.9040 O.3   300  2SD300     -0.2149
      2  C8        17.5860    7.2550    9.8730 C.3   300  2SD300      0.2406
      3  C9        18.0340    8.5950   10.5410 C.3   300  2SD300      0.2198
      4  O9        18.9690    9.3230    9.7020 O.3   300  2SD300     -0.2174
      5  C10       16.8300    9.4860   11.0430 C.3   300  2SD300      0.2144
      6  O10       16.5730   10.6290   10.2200 O.3   300  2SD300     -0.2176
      7  C11       15.5080    8.6570   11.3410 C.3   300  2SD300      0.1835
      8  C12       14.2380    9.4370   11.5920 C.3   300  2SD300      0.2142
      9  O12       14.0850   10.4020   10.5420 O.3   300  2SD300     -0.2176
     10  O11       15.2840    7.5610   10.3750 O.3   300  2SD300     -0.3256
     11  C7        16.3850    6.6540   10.5810 C.3   300  2SD300      0.2695
     12  O4        16.5590    6.6710   12.0260 O.3   300  2SD300     -0.3257
     13  C4        17.1300    5.6170   12.8940 C.3   300  2SD300      0.1804
     14  C3        16.9410    4.1370   12.5070 C.3   300  2SD300      0.2159
     15  O3        16.2950    3.9570   11.2230 O.3   300  2SD300     -0.2175
     16  C2        16.3460    3.2370   13.6160 C.3   300  2SD300      0.2361
     17  O2        16.9750    1.9390   13.4230 O.3   300  2SD300     -0.2157
     18  C1        16.6390    3.7160   15.0910 C.3   300  2SD300      0.2974
     19  SAI       15.6470    2.8520   16.3560 S.O2  300  2SD300      0.1011
     20  OAM       16.1970    3.2110   17.7180 O.2   300  2SD300     -0.1524
     21  OAE       14.1850    3.2210   16.2350 O.2   300  2SD300     -0.1524
     22  NAJ       15.8320    1.2220   16.0780 N.3   300  2SD300      0.0370
     23  O5        16.5320    5.1280   15.3730 O.3   300  2SD300     -0.3291
     24  C5        16.7720    6.0940   14.3390 C.3   300  2SD300      0.1797
     25  C6        15.4640    6.8500   14.2580 C.3   300  2SD300      0.2141
     26  O6        15.3950    7.7350   15.3230 O.3   300  2SD300     -0.2176
@<TRIPOS>BOND
     1     4     3    1
     2     2     1    1
     3     2     3    1
     4     2    11    1
     5     6     5    1
     6    10    11    1
     7    10     7    1
     8     3     5    1
     9     9     8    1
    10    11    12    1
    11     5     7    1
    12    15    14    1
    13     7     8    1
    14    12    13    1
    15    14    13    1
    16    14    16    1
    17    13    24    1
    18    17    16    1
    19    16    18    1
    20    25    24    1
    21    25    26    1
    22    24    23    1
    23    18    23    1
    24    18    19    1
    25    22    19    1
    26    21    19    2
    27    19    20    2
