@<TRIPOS>MOLECULE
3hku_TOR_A_1.pdb
 22 24 0 0 0
SMALL
GASTEIGER

@<TRIPOS>ATOM
      1  CAT       17.1660    7.9240   13.3690 C.3   300  TOR300      0.0613
      2  CAU       16.4080    6.6220   13.6940 C.3   300  TOR300      0.1900
      3  CAV       15.2040    6.8900   14.6100 C.3   300  TOR300      0.0613
      4  OAR       17.3610    5.6750   14.3050 O.3   300  TOR300     -0.3101
      5  OAQ       15.9650    6.0270   12.4750 O.3   300  TOR300     -0.3290
      6  CAK       15.9590    4.5870   12.7530 C.3   300  TOR300      0.2008
      7  CAG       16.1250    3.8180   11.4060 C.3   300  TOR300      0.1791
      8  OAF       16.0700    2.4320   11.7090 O.3   300  TOR300     -0.3315
      9  CAE       16.8590    1.7650   10.7100 C.3   300  TOR300      0.1875
     10  CAD       16.0510    1.4790    9.4210 C.3   300  TOR300      0.0612
     11  CAJ       17.4250    0.4790   11.3180 C.3   300  TOR300      0.0612
     12  OAA       17.9560    2.6640   10.4220 O.3   300  TOR300     -0.3316
     13  CAB       17.5010    4.0000   10.7580 C.3   300  TOR300      0.1768
     14  CAC       18.5360    4.5920   11.7150 C.3   300  TOR300      0.1768
     15  OAH       18.3500    4.0350   13.0500 O.3   300  TOR300     -0.3276
     16  CAL       17.1570    4.4160   13.7190 C.3   300  TOR300      0.2473
     17  CAM       16.9260    3.3700   14.8380 C.3   300  TOR300      0.2324
     18  OAN       15.7080    3.5690   15.5330 O.3   300  TOR300     -0.2220
     19  SAO       15.3430    2.7600   16.7370 S.3   300  TOR300      0.0829
     20  OAS       16.1920    3.2560   17.8520 O.3   300  TOR300     -0.0529
     21  OAI       13.8850    2.9840   16.8950 O.3   300  TOR300     -0.0529
     22  NAP       15.7010    1.2370   16.4040 N.3   300  TOR300      0.0391
@<TRIPOS>BOND
     1    10     9    1
     2    12     9    1
     3    12    13    1
     4     9    11    1
     5     9     8    1
     6    13     7    1
     7    13    14    1
     8     7     8    1
     9     7     6    1
    10    14    15    1
    11     5     6    1
    12     5     2    1
    13     6    16    1
    14    15    16    1
    15     1     2    1
    16     2     4    1
    17     2     3    1
    18    16     4    1
    19    16    17    1
    20    17    18    1
    21    18    19    1
    22    22    19    1
    23    19    21    1
    24    19    20    1
