@<TRIPOS>MOLECULE
3hkv_3AB_A_1.pdb
 10 10 0 0 0
SMALL
GASTEIGER

@<TRIPOS>ATOM
      1  N3        37.8310   40.5530   25.2810 N.pl3 1025  3AB1025    -0.1281
      2  C3        37.0640   41.5280   24.8130 C.ar  1025  3AB1025     0.0892
      3  C2        36.1410   41.2650   23.8120 C.ar  1025  3AB1025     0.0227
      4  C4        37.1910   42.7890   25.3610 C.ar  1025  3AB1025     0.0181
      5  C5        36.3770   43.7980   24.9050 C.ar  1025  3AB1025     0.0015
      6  C6        35.4650   43.5470   23.8860 C.ar  1025  3AB1025     0.0047
      7  C1        35.3360   42.2950   23.3410 C.ar  1025  3AB1025     0.0580
      8  C1'       34.3510   42.1010   22.2010 C.2   1025  3AB1025     0.2842
      9  O1'       34.0420   43.0700   21.5340 O.2   1025  3AB1025    -0.2667
     10  N1'       33.9680   40.8700   21.9170 N.am  1025  3AB1025    -0.0837
@<TRIPOS>BOND
     1     9     8    2
     2    10     8   am
     3     8     7    1
     4     7     3   ar
     5     7     6   ar
     6     3     2   ar
     7     6     5   ar
     8     2     1    1
     9     2     4   ar
    10     5     4   ar
