@<TRIPOS>MOLECULE
3hkw_IX6_A_1.pdb
 41 45 0 0 0
SMALL
GASTEIGER

@<TRIPOS>ATOM
      1  C1        39.3060    3.7770  -19.0200 C.2   579  IX6579      0.0442
      2  C2        38.9410    3.7620  -17.6850 C.2   579  IX6579      0.0008
      3  C3        37.9060    2.9560  -17.2530 C.2   579  IX6579      0.0007
      4  C4        37.2210    2.1300  -18.1640 C.3   579  IX6579      0.1539
      5  C5        37.5700    2.2010  -19.5170 C.2   579  IX6579      0.1690
      6  C6        38.6280    2.9950  -19.9380 C.2   579  IX6579      0.2227
      7  C8        34.8280    1.5540  -18.4160 C.3   579  IX6579      0.1293
      8  C15       35.6700   -0.0290  -21.9410 C.3   579  IX6579      0.0579
      9  C16       34.4350    3.6330  -19.9240 C.ar  579  IX6579      0.0027
     10  C17       34.5810    3.0560  -18.6660 C.ar  579  IX6579      0.0255
     11  C18       34.2130    4.9910  -20.0530 C.ar  579  IX6579      0.0368
     12  C19       34.1600    5.8140  -18.9290 C.ar  579  IX6579      0.1413
     13  C21       34.5210    3.8840  -17.5450 C.ar  579  IX6579      0.1408
     14  C24       33.5260    0.8560  -22.8690 C.3   579  IX6579      0.0022
     15  C27       31.3510    7.3290  -20.0280 C.2   579  IX6579     -0.0055
     16  O29       38.9600    3.0020  -21.2640 O.2   579  IX6579     -0.2841
     17  C32       36.3170    0.5210  -16.6490 C.2   579  IX6579      0.2790
     18  C34       37.6000   -0.0210  -16.1800 C.2   579  IX6579      0.2050
     19  C35       38.5520   -0.6740  -16.9170 C.3   579  IX6579      0.2244
     20  C37       39.2130   -0.5960  -15.0300 C.2   579  IX6579      0.2530
     21  C39       40.1120   -0.7990  -13.8460 C.3   579  IX6579      0.1099
     22  C40       38.4980   -0.9830  -18.3950 C.3   579  IX6579      0.0554
     23  F41       34.6780    3.3490  -16.3470 F     579  IX6579     -0.2043
     24  C20       34.3150    5.2420  -17.6690 C.ar  579  IX6579      0.0662
     25  O23       33.9500    7.1650  -19.0120 O.3   579  IX6579     -0.4709
     26  C22       33.7550    7.8600  -20.2400 C.3   579  IX6579      0.2278
     27  C26       32.3960    7.5590  -20.8410 C.2   579  IX6579     -0.0007
     28  C28       32.2010    7.5490  -22.3440 C.3   579  IX6579      0.0301
     29  N7        36.1060    1.3470  -17.7280 N.am  579  IX6579     -0.2613
     30  N38       38.0360    0.0360  -14.9290 N.2   579  IX6579     -0.3675
     31  O36       39.4670   -0.9950  -16.1710 O.2   579  IX6579     -0.4511
     32  O33       35.3030    0.1960  -16.0500 O.2   579  IX6579     -0.2673
     33  C9        34.8080    0.7460  -19.6880 C.3   579  IX6579      0.1987
     34  S12       33.4080   -0.2290  -19.8180 S.O2  579  IX6579     -0.0036
     35  O30       32.2750    0.6440  -19.7740 O.2   579  IX6579     -0.1726
     36  O31       33.3780   -1.1930  -18.7420 O.2   579  IX6579     -0.1726
     37  C13       33.5100   -1.1430  -21.3650 C.3   579  IX6579      0.1516
     38  C14       34.2840   -0.4060  -22.4590 C.3   579  IX6579      0.0284
     39  C25       34.4020   -1.3620  -23.6510 C.3   579  IX6579      0.0022
     40  C10       35.7790    0.7400  -20.6270 C.2   579  IX6579      0.1101
     41  N11       36.9760    1.4230  -20.5280 N.2   579  IX6579     -0.4078
@<TRIPOS>BOND
     1    39    38    1
     2    14    38    1
     3    38     8    1
     4    38    37    1
     5    28    27    1
     6     8    40    1
     7    37    34    1
     8    16     6    1
     9    27    26    1
    10    27    15    2
    11    40    41    2
    12    40    33    1
    13    41     5    2
    14    26    25    1
    15    11     9   ar
    16    11    12   ar
    17     6     5    1
    18     6     1    2
    19     9    10   ar
    20    34    35    2
    21    34    33    1
    22    34    36    2
    23    33     7    1
    24     5     4    1
    25     1     2    1
    26    25    12    1
    27    12    24   ar
    28    10     7    1
    29    10    13   ar
    30     7    29    1
    31    22    19    1
    32     4    29    1
    33     4     3    1
    34    29    17   am
    35     2     3    2
    36    24    13   ar
    37    13    23    1
    38    19    18    1
    39    19    31    1
    40    17    18    1
    41    17    32    2
    42    18    30    2
    43    31    20    1
    44    20    30    2
    45    20    21    1
