@<TRIPOS>MOLECULE
3hky_IX6_A_1.pdb
 41 45 0 0 0
SMALL
GASTEIGER

@<TRIPOS>ATOM
      1  C1       -20.9700   -6.8890   30.0110 C.2   579  IX6579      0.0442
      2  C2       -21.2050   -7.9020   29.1370 C.2   579  IX6579      0.0008
      3  C3       -22.4730   -8.0580   28.6180 C.2   579  IX6579      0.0007
      4  C4       -23.5340   -7.1800   28.9510 C.3   579  IX6579      0.1539
      5  C5       -23.2880   -6.1760   29.8640 C.2   579  IX6579      0.1690
      6  C6       -21.9900   -6.0320   30.3520 C.2   579  IX6579      0.2227
      7  C8       -25.9050   -7.5850   29.4360 C.3   579  IX6579      0.1293
      8  C15      -26.1560   -3.8790   30.8510 C.3   579  IX6579      0.0579
      9  C16      -25.3220   -8.1380   31.8820 C.ar  579  IX6579      0.0027
     10  C17      -25.4360   -8.5240   30.5520 C.ar  579  IX6579      0.0255
     11  C18      -24.8830   -9.0210   32.8360 C.ar  579  IX6579      0.0368
     12  C19      -24.5360  -10.3200   32.4850 C.ar  579  IX6579      0.1413
     13  C21      -25.0630   -9.8180   30.2090 C.ar  579  IX6579      0.1408
     14  C24      -27.5460   -4.7180   32.7690 C.3   579  IX6579      0.0022
     15  C27      -26.4480  -11.6600   34.9110 C.2   579  IX6579     -0.0055
     16  O29      -21.7470   -5.0430   31.2170 O.2   579  IX6579     -0.2841
     17  C32      -24.9730   -7.4020   27.0590 C.2   579  IX6579      0.2790
     18  C34      -24.0840   -6.8280   26.0350 C.2   579  IX6579      0.2050
     19  C35      -23.6240   -5.5390   25.9520 C.3   579  IX6579      0.2244
     20  C37      -22.8310   -6.5350   24.3970 C.2   579  IX6579      0.2530
     21  C39      -22.0150   -6.7640   23.1450 C.3   579  IX6579      0.1099
     22  C40      -23.9460   -4.3930   26.8730 C.3   579  IX6579      0.0554
     23  F41      -25.1450  -10.2140   28.9500 F     579  IX6579     -0.2043
     24  C20      -24.6120  -10.7000   31.1520 C.ar  579  IX6579      0.0662
     25  O23      -24.0910  -11.2300   33.3940 O.3   579  IX6579     -0.4709
     26  C22      -24.0310  -11.0530   34.8010 C.3   579  IX6579      0.2278
     27  C26      -25.4070  -10.9840   35.4290 C.2   579  IX6579     -0.0007
     28  C28      -25.6390  -10.1680   36.6650 C.3   579  IX6579      0.0301
     29  N7       -24.8310   -7.4100   28.4360 N.am  579  IX6579     -0.2613
     30  N38      -23.5490   -7.4900   25.0150 N.2   579  IX6579     -0.3675
     31  O36      -22.9170   -5.4460   24.9610 O.2   579  IX6579     -0.4511
     32  O33      -25.9560   -7.9970   26.6830 O.2   579  IX6579     -0.2673
     33  C9       -26.3580   -6.2160   29.8950 C.3   579  IX6579      0.1987
     34  S12      -28.0750   -5.9750   29.7770 S.O2  579  IX6579     -0.0036
     35  O30      -28.6580   -7.0540   30.5320 O.2   579  IX6579     -0.1726
     36  O31      -28.3570   -5.9640   28.3620 O.2   579  IX6579     -0.1726
     37  C13      -28.5470   -4.3920   30.4660 C.3   579  IX6579      0.1516
     38  C14      -27.5460   -3.8600   31.5060 C.3   579  IX6579      0.0284
     39  C25      -27.9070   -2.4120   31.8310 C.3   579  IX6579      0.0022
     40  C10      -25.5880   -5.1890   30.3150 C.2   579  IX6579      0.1101
     41  N11      -24.1990   -5.2020   30.2910 N.2   579  IX6579     -0.4078
@<TRIPOS>BOND
     1    21    20    1
     2    20    31    1
     3    20    30    2
     4    31    19    1
     5    30    18    2
     6    19    18    1
     7    19    22    1
     8    18    17    1
     9    32    17    2
    10    17    29   am
    11    36    34    2
    12    29     4    1
    13    29     7    1
    14     3     4    1
    15     3     2    2
    16    23    13    1
    17     4     5    1
    18     2     1    1
    19     7    33    1
    20     7    10    1
    21    34    33    1
    22    34    37    1
    23    34    35    2
    24     5    41    2
    25     5     6    1
    26    33    40    1
    27     1     6    2
    28    13    10   ar
    29    13    24   ar
    30    41    40    2
    31    40     8    1
    32     6    16    1
    33    37    38    1
    34    10     9   ar
    35     8    38    1
    36    24    12   ar
    37    38    39    1
    38    38    14    1
    39     9    11   ar
    40    12    11   ar
    41    12    25    1
    42    25    26    1
    43    26    27    1
    44    15    27    2
    45    27    28    1
