@<TRIPOS>MOLECULE
3hl0_NAD_A_1.pdb
 44 48 0 0 0
SMALL
GASTEIGER

@<TRIPOS>ATOM
      1  PA        21.1000  119.2830   23.2440 P.3   402  NAD402      0.2189
      2  O1A       22.4690  118.7960   23.5700 O.3   402  NAD402     -0.4371
      3  O2A       20.9430  120.2040   22.0950 O.2   402  NAD402     -0.5170
      4  O5B       20.4180  119.7990   24.5900 O.3   402  NAD402     -0.3112
      5  C5B       19.2170  120.5730   24.4970 C.3   402  NAD402      0.1813
      6  C4B       19.1580  121.4710   25.7240 C.3   402  NAD402      0.1821
      7  O4B       18.9530  120.6600   26.8800 O.3   402  NAD402     -0.3135
      8  C3B       20.4640  122.2620   25.9250 C.3   402  NAD402      0.2184
      9  O3B       20.2100  123.6340   26.2780 O.3   402  NAD402     -0.2174
     10  C2B       21.1080  121.5110   27.0680 C.3   402  NAD402      0.2570
     11  O2B       21.9640  122.3160   27.8530 O.3   402  NAD402     -0.2130
     12  C1B       19.9000  121.0160   27.8770 C.3   402  NAD402      0.3186
     13  N9A       20.1990  119.8250   28.7080 N.pl3 402  NAD402     -0.1439
     14  C8A       20.7940  118.6480   28.2950 C.3   402  NAD402      0.3377
     15  N7A       20.8790  117.8080   29.3520 N.2   402  NAD402     -0.2095
     16  C5A       20.3610  118.4280   30.4580 C.2   402  NAD402      0.2526
     17  C6A       20.2150  118.0260   31.7850 C.2   402  NAD402      0.4393
     18  N6A       20.3280  116.7400   32.2060 N.pl3 402  NAD402      0.2180
     19  N1A       19.6420  118.9560   32.6540 N.2   402  NAD402      0.0021
     20  C2A       19.2210  120.1900   32.2100 C.3   402  NAD402      0.5254
     21  N3A       19.3530  120.5850   30.9040 N.2   402  NAD402     -0.0055
     22  C4A       19.9260  119.6960   30.0400 C.2   402  NAD402      0.3518
     23  O3        20.1150  118.0380   22.8570 O.3   402  NAD402     -0.2703
     24  PN        20.4550  116.5390   22.3360 P.3   402  NAD402      0.2189
     25  O1N       19.1670  116.0470   21.7640 O.2   402  NAD402     -0.5170
     26  O2N       21.0750  115.8550   23.4690 O.3   402  NAD402     -0.4371
     27  O5D       21.5050  116.7130   21.1420 O.3   402  NAD402     -0.3112
     28  C5D       21.1090  117.1260   19.8370 C.3   402  NAD402      0.1813
     29  C4D       22.3900  117.3850   19.0430 C.3   402  NAD402      0.1799
     30  O4D       23.1940  116.2160   19.1070 O.3   402  NAD402     -0.3327
     31  C3D       22.0570  117.6000   17.5720 C.3   402  NAD402      0.2158
     32  O3D       23.0230  118.5190   17.0380 O.3   402  NAD402     -0.2175
     33  C2D       22.2390  116.2210   16.9830 C.3   402  NAD402      0.2309
     34  O2D       22.4950  116.2050   15.5780 O.3   402  NAD402     -0.2158
     35  C1D       23.4140  115.7100   17.7960 C.3   402  NAD402      0.2263
     36  N1N       23.5080  114.2570   17.8400 N.pl3 402  NAD402     -0.2787
     37  C2N       24.6480  113.7050   17.3380 C.3   402  NAD402      0.1244
     38  C3N       24.7880  112.3330   17.3550 C.2   402  NAD402      0.0544
     39  C7N       26.0740  111.8510   16.8220 C.2   402  NAD402      0.2818
     40  O7N       26.2450  110.5230   16.9200 O.2   402  NAD402     -0.2670
     41  N7N       26.9850  112.6940   16.2770 N.am  402  NAD402     -0.0839
     42  C4N       23.7970  111.4600   17.9260 C.2   402  NAD402      0.0033
     43  C5N       22.6350  112.0490   18.4290 C.2   402  NAD402      0.0157
     44  C6N       22.5020  113.4480   18.3730 C.2   402  NAD402      0.0633
@<TRIPOS>BOND
     1    34    33    1
     2    41    39   am
     3    39    40    2
     4    39    38    1
     5    33    31    1
     6    33    35    1
     7    32    31    1
     8    37    38    1
     9    37    36    1
    10    38    42    2
    11    31    29    1
    12    35    36    1
    13    35    30    1
    14    36    44    1
    15    42    43    1
    16    44    43    2
    17    29    30    1
    18    29    28    1
    19    28    27    1
    20    27    24    1
    21    25    24    2
    22     3     1    2
    23    24    23    1
    24    24    26    1
    25    23     1    1
    26     1     2    1
    27     1     4    1
    28     5     4    1
    29     5     6    1
    30     6     8    1
    31     6     7    1
    32     8     9    1
    33     8    10    1
    34     7    12    1
    35    10    11    1
    36    10    12    1
    37    12    13    1
    38    14    13    1
    39    14    15    1
    40    13    22    1
    41    15    16    2
    42    22    16    1
    43    22    21    2
    44    16    17    1
    45    21    20    1
    46    17    18    1
    47    17    19    2
    48    20    19    1
