@<TRIPOS>MOLECULE
3hl2_SEP_B_1.pdb
 11 10 0 0 0
SMALL
GASTEIGER

@<TRIPOS>ATOM
      1  N        111.0730  -48.0720  -12.1820 N.3   2001  SEP2001    -0.1181
      2  CA       111.9500  -48.9960  -11.4070 C.3   2001  SEP2001     0.2242
      3  CB       111.1160  -49.9080  -10.5000 C.3   2001  SEP2001     0.1842
      4  OG       110.7510  -51.1070  -11.1650 O.3   2001  SEP2001    -0.2681
      5  C        112.8220  -49.8370  -12.3370 C.2   2001  SEP2001     0.3844
      6  O        112.6330  -49.8410  -13.5560 O.co2 2001  SEP2001    -0.2440
      7  OXT      113.7400  -50.5300  -11.8920 O.co2 2001  SEP2001    -0.2440
      8  P        109.9750  -52.1070  -10.1630 P.3   2001  SEP2001     0.5327
      9  O1P      110.3910  -53.6320  -10.4730 O.2   2001  SEP2001    -0.2224
     10  O2P      110.3610  -51.7490   -8.6400 O.3   2001  SEP2001    -0.1145
     11  O3P      108.3880  -51.9270  -10.3650 O.3   2001  SEP2001    -0.1145
@<TRIPOS>BOND
     1     6     5   ar
     2     5     7   ar
     3     5     2    1
     4     1     2    1
     5     2     3    1
     6     4     3    1
     7     4     8    1
     8     9     8    2
     9    11     8    1
    10     8    10    1
