@<TRIPOS>MOLECULE
3hl2_PLR_A_1.pdb
 15 15 0 0 0
SMALL
GASTEIGER

@<TRIPOS>ATOM
      1  N1        46.6990  -55.2890  -10.4960 N.ar  1001  PLR1001    -0.2452
      2  C2        47.1890  -54.2720  -11.2810 C.ar  1001  PLR1001     0.0978
      3  C2A       46.2380  -53.4640  -12.1140 C.3   1001  PLR1001     0.0555
      4  C3        48.5520  -53.9950  -11.2980 C.ar  1001  PLR1001     0.2049
      5  O3        49.0230  -52.9800  -12.0890 O.3   1001  PLR1001    -0.2857
      6  C4        49.4310  -54.7420  -10.5200 C.ar  1001  PLR1001     0.0182
      7  C4A       50.8940  -54.4240  -10.5790 C.3   1001  PLR1001     0.0342
      8  C5        48.9230  -55.7740   -9.7330 C.ar  1001  PLR1001     0.0261
      9  C6        47.5600  -56.0360   -9.7270 C.ar  1001  PLR1001     0.0965
     10  C5A       49.8220  -56.6300   -8.8590 C.3   1001  PLR1001     0.1815
     11  O4P       50.9260  -57.1660   -9.5600 O.3   1001  PLR1001    -0.2653
     12  P         52.0790  -57.9450   -8.7460 P.3   1001  PLR1001     0.5329
     13  O1P       51.4640  -59.1150   -8.0100 O.3   1001  PLR1001    -0.1145
     14  O2P       52.6970  -56.9970   -7.7400 O.3   1001  PLR1001    -0.1145
     15  O3P       53.1200  -58.4310   -9.7230 O.2   1001  PLR1001    -0.2224
@<TRIPOS>BOND
     1     3     2    1
     2     5     4    1
     3     4     2   ar
     4     4     6   ar
     5     2     1   ar
     6     7     6    1
     7     6     8   ar
     8     1     9   ar
     9     8     9   ar
    10     8    10    1
    11    15    12    2
    12    11    10    1
    13    11    12    1
    14    12    13    1
    15    12    14    1
