@<TRIPOS>MOLECULE
3hl4_CDC_A_1.pdb
 31 32 0 0 0
SMALL
GASTEIGER

@<TRIPOS>ATOM
      1  N1        -5.5400   44.2280   10.3030 N.am  237  CDC237     -0.1778
      2  C2        -5.8960   43.8440   11.5710 C.1   237  CDC237      0.2756
      3  N3        -5.6880   44.5880   12.6350 N.2   237  CDC237     -0.3024
      4  C4        -5.1590   45.8060   12.4490 C.2   237  CDC237      0.2346
      5  C5        -4.7560   46.2700   11.1700 C.2   237  CDC237      0.0687
      6  C6        -4.9990   45.4310   10.0910 C.2   237  CDC237      0.0836
      7  O2        -6.4760   42.6780   11.8710 O.2   237  CDC237     -0.1925
      8  N4        -4.9340   46.5480   13.5600 N.pl3 237  CDC237     -0.0921
      9  C1'       -5.8350   43.3480    9.1670 C.3   237  CDC237      0.2400
     10  C2'       -7.0020   43.8450    8.3190 C.3   237  CDC237      0.2319
     11  O2'       -8.2420   43.6660    9.0490 O.3   237  CDC237     -0.2157
     12  C3'       -6.8990   43.0420    7.0850 C.3   237  CDC237      0.2158
     13  C4'       -5.3950   42.7840    6.9860 C.3   237  CDC237      0.1799
     14  O4'       -4.7650   42.9940    8.2880 O.3   237  CDC237     -0.3320
     15  O3'       -7.5960   41.7240    7.3210 O.3   237  CDC237     -0.2175
     16  C5'       -4.7840   43.5690    5.8920 C.3   237  CDC237      0.1813
     17  O5'       -4.9860   44.9510    6.3010 O.3   237  CDC237     -0.3112
     18  PA        -4.4730   46.1560    5.3550 P.3   237  CDC237      0.2189
     19  O1A       -3.0270   45.9390    4.9150 O.2   237  CDC237     -0.5170
     20  O2A       -4.8780   47.5020    5.8940 O.3   237  CDC237     -0.4371
     21  O3A       -5.2270   45.9540    3.9500 O.3   237  CDC237     -0.2703
     22  PB        -6.7320   46.4170    3.5720 P.3   237  CDC237      0.2188
     23  O1B       -6.8310   45.8170    2.1130 O.3   237  CDC237     -0.3161
     24  O2B       -7.6920   45.7920    4.5510 O.3   237  CDC237     -0.4371
     25  O3B       -6.7680   47.8540    3.2440 O.2   237  CDC237     -0.5170
     26  C14       -7.4860   44.5700    1.9240 C.3   237  CDC237      0.1271
     27  C15       -7.1780   44.0490    0.4990 C.3   237  CDC237     -0.0402
     28  N11       -7.7810   44.7960   -0.6090 N.4   237  CDC237      0.3874
     29  C16       -9.2260   45.0000   -0.4420 C.3   237  CDC237     -0.0959
     30  C17       -7.5420   43.9880   -1.8130 C.3   237  CDC237     -0.0959
     31  C18       -7.1850   46.1170   -0.8010 C.3   237  CDC237     -0.0959
@<TRIPOS>BOND
     1    30    28    1
     2    31    28    1
     3    28    29    1
     4    28    27    1
     5    27    26    1
     6    26    23    1
     7    23    22    1
     8    25    22    2
     9    22    21    1
    10    22    24    1
    11    21    18    1
    12    19    18    2
    13    18    20    1
    14    18    17    1
    15    16    17    1
    16    16    13    1
    17    13    12    1
    18    13    14    1
    19    12    15    1
    20    12    10    1
    21    14     9    1
    22    10    11    1
    23    10     9    1
    24     9     1    1
    25     6     1    1
    26     6     5    2
    27     1     2   am
    28     5     4    1
    29     2     7    2
    30     2     3    2
    31     4     3    2
    32     4     8    1
