@<TRIPOS>MOLECULE
3hl5_9JZ_A_1.pdb
 37 40 0 0 0
SMALL
GASTEIGER

@<TRIPOS>ATOM
      1  O3         9.7840   12.4600  -19.7000 O.2     1  9JZ1       -0.2730
      2  C5         8.7630   12.3680  -20.3720 C.2     1  9JZ1        0.2458
      3  C4         8.2410   13.5790  -21.1010 C.3     1  9JZ1        0.1712
      4  C12        8.7570   13.5560  -22.5550 C.3     1  9JZ1        0.0289
      5  C18       10.2850   13.6620  -22.6990 C.3     1  9JZ1        0.0022
      6  C17       10.7280   13.5190  -24.1600 C.3     1  9JZ1        0.0001
      7  C16        9.9800   14.4840  -25.0840 C.3     1  9JZ1        0.0000
      8  C15        8.4630   14.3590  -24.9150 C.3     1  9JZ1        0.0001
      9  C14        8.0540   14.5740  -23.4590 C.3     1  9JZ1        0.0022
     10  N2         8.6620   14.8220  -20.4610 N.am    1  9JZ1       -0.1967
     11  C3         7.8500   15.8680  -20.3170 C.2     1  9JZ1        0.2576
     12  O2         6.6960   15.9000  -20.7290 O.2     1  9JZ1       -0.2718
     13  C2         8.4430   17.0640  -19.6330 C.3     1  9JZ1        0.1505
     14  C13        8.4050   16.8550  -18.1220 C.3     1  9JZ1        0.0287
     15  N1         7.7540   18.2890  -20.0140 N.3     1  9JZ1       -0.2087
     16  C1         7.9220   18.8070  -21.3610 C.3     1  9JZ1        0.1080
     17  N3         8.0770   11.2240  -20.5180 N.am    1  9JZ1       -0.2716
     18  C9         6.8450   11.0300  -21.2960 C.3     1  9JZ1        0.0939
     19  C8         6.2930    9.7010  -20.8050 C.3     1  9JZ1        0.0237
     20  C7         7.5310    8.9340  -20.4120 C.3     1  9JZ1        0.0289
     21  C28        7.2650    7.7770  -19.4560 C.3     1  9JZ1        0.0023
     22  C6         8.4990    9.9800  -19.8640 C.3     1  9JZ1        0.1538
     23  C10        9.8670    9.4940  -20.2350 C.2     1  9JZ1        0.2637
     24  O1        10.5250    8.9130  -19.3870 O.2     1  9JZ1       -0.2712
     25  N4        10.2880    9.7190  -21.4890 N.am    1  9JZ1       -0.1771
     26  C11       11.5270    9.2650  -21.9680 C.ar    1  9JZ1        0.0827
     27  C27       12.6520    9.2010  -21.1370 C.ar    1  9JZ1        0.0173
     28  C26       13.8620    8.7140  -21.6220 C.ar    1  9JZ1        0.0014
     29  C25       13.9600    8.2810  -22.9420 C.ar    1  9JZ1        0.0008
     30  C24       12.8420    8.3280  -23.7700 C.ar    1  9JZ1        0.0113
     31  C19       11.6220    8.8150  -23.2890 C.ar    1  9JZ1        0.0774
     32  C20       10.4640    8.8560  -24.2310 C.1     1  9JZ1        0.0324
     33  N6        10.3960    7.9550  -25.2470 N.2     1  9JZ1       -0.1928
     34  C23        9.3760    7.9750  -26.1190 C.2     1  9JZ1        0.1070
     35  C22        8.3790    8.9380  -25.9920 C.2     1  9JZ1        0.0222
     36  C21        8.4630    9.8620  -24.9520 C.3     1  9JZ1        0.1641
     37  N5         9.5010    9.8070  -24.1000 N.2     1  9JZ1       -0.2151
@<TRIPOS>BOND
     1    34    35    2
     2    34    33    1
     3    35    36    1
     4    33    32    2
     5     7     8    1
     6     7     6    1
     7    36    37    1
     8     8     9    1
     9    32    37    2
    10    32    31    1
    11     6     5    1
    12    30    31   ar
    13    30    29   ar
    14     9     4    1
    15    31    26   ar
    16    29    28   ar
    17     5     4    1
    18     4     3    1
    19    26    25    1
    20    26    27   ar
    21    28    27   ar
    22    25    23   am
    23    16    15    1
    24    18    19    1
    25    18    17    1
    26     3    10    1
    27     3     2    1
    28    19    20    1
    29    12    11    2
    30    17     2   am
    31    17    22    1
    32    10    11   am
    33    20    22    1
    34    20    21    1
    35     2     1    2
    36    11    13    1
    37    23    22    1
    38    23    24    2
    39    15    13    1
    40    13    14    1
