@<TRIPOS>MOLECULE
3hl7_I46_A_1.pdb
 19 21 0 0 0
SMALL
GASTEIGER

@<TRIPOS>ATOM
      1  C1         7.8580   23.0300   14.0330 C.ar  402  I46402     -0.0012
      2  C2         6.4090   21.8150   12.5690 C.ar  402  I46402     -0.0012
      3  C3         7.3770   22.3130   15.1070 C.ar  402  I46402      0.0293
      4  C4         5.9370   21.0830   13.6330 C.ar  402  I46402      0.0293
      5  C5         8.1150   22.0050    8.2770 C.ar  402  I46402      0.0221
      6  C6         8.3750   20.8430    7.6010 C.ar  402  I46402      0.1013
      7  C7         8.9780   20.9800   10.2450 C.ar  402  I46402      0.0509
      8  C8         7.7870   24.9400   11.7770 C.2   402  I46402      0.1057
      9  C9         7.3760   22.7780   12.7680 C.ar  402  I46402     -0.0110
     10  C10        6.4180   21.3520   14.8970 C.ar  402  I46402      0.1401
     11  C11        8.4220   22.0760    9.6180 C.ar  402  I46402      0.0213
     12  C12        9.1820   19.8650    9.4560 C.ar  402  I46402      0.2224
     13  C13        7.7930   23.5730   11.6560 C.3   402  I46402      0.1073
     14  C14        8.1940   23.3170   10.3170 C.2   402  I46402      0.0901
     15  N15        8.1620   25.4260   10.5610 N.2   402  I46402     -0.1507
     16  N16        8.9090   19.7570    8.1550 N.ar  402  I46402     -0.2165
     17  N17        8.4090   24.4690    9.6540 N.2   402  I46402     -0.1519
     18  F18        5.9560   20.6510   15.9300 F     402  I46402     -0.2042
     19  F19        9.7220   18.7830   10.0160 F     402  I46402     -0.1832
@<TRIPOS>BOND
     1     6    16   ar
     2     6     5   ar
     3    16    12   ar
     4     5    11   ar
     5    12    19    1
     6    12     7   ar
     7    11     7   ar
     8    11    14    1
     9    17    14    2
    10    17    15    1
    11    14    13    1
    12    15     8    2
    13    13     8    1
    14    13     9    1
    15     2     9   ar
    16     2     4   ar
    17     9     1   ar
    18     4    10   ar
    19     1     3   ar
    20    10     3   ar
    21    10    18    1
