@<TRIPOS>MOLECULE
3hl7_I47_A_1.pdb
 28 31 0 0 0
SMALL
GASTEIGER

@<TRIPOS>ATOM
      1  C1        35.5390   35.8440   20.0350 C.2   401  I47401      0.0910
      2  N2        35.0130   34.5920   20.1860 N.2   401  I47401     -0.1522
      3  N3        34.3580   34.4200   21.3480 N.2   401  I47401     -0.1563
      4  C4        34.4730   35.5890   21.9900 C.2   401  I47401      0.0689
      5  C5        35.2010   36.5220   21.2070 C.3   401  I47401      0.1198
      6  C6        36.2560   36.2100   18.8410 C.ar  401  I47401      0.0161
      7  C7        35.4600   37.9150   21.5200 C.ar  401  I47401      0.0729
      8  C8        33.8990   35.7960   23.3550 C.3   401  I47401      0.0420
      9  C9        35.7380   35.9390   17.5930 C.ar  401  I47401      0.0021
     10  C10       36.4100   36.3400   16.4530 C.ar  401  I47401      0.0114
     11  C11       37.6080   37.0090   16.5410 C.ar  401  I47401      0.0577
     12  C12       38.1380   37.2580   17.7900 C.ar  401  I47401      0.0114
     13  C13       37.4680   36.8610   18.9240 C.ar  401  I47401      0.0021
     14  C14       35.7230   38.3440   22.8100 C.ar  401  I47401      0.0362
     15  C15       35.8820   39.7000   22.9660 C.ar  401  I47401      0.1019
     16  N16       35.7820   40.5970   21.9740 N.ar  401  I47401     -0.2224
     17  C17       35.5120   40.0750   20.7720 C.ar  401  I47401      0.1986
     18  N18       35.3400   38.7720   20.4930 N.ar  401  I47401     -0.2276
     19  C19       32.5520   35.1500   23.6150 C.3   401  I47401      0.0272
     20  C20       32.0630   35.4080   25.0390 C.3   401  I47401      0.0939
     21  N21       33.0770   35.0640   26.0130 N.am  401  I47401     -0.2774
     22  C22       34.4180   35.5740   25.8200 C.3   401  I47401      0.0939
     23  C23       34.9160   35.3600   24.3950 C.3   401  I47401      0.0272
     24 CL24       38.4230   37.5510   15.1160 Cl    401  I47401     -0.0822
     25  C25       32.7620   34.2800   27.1120 C.2   401  I47401      0.2593
     26  O26       32.0050   33.3140   27.0890 O.2   401  I47401     -0.2720
     27  C27       33.4530   34.7420   28.3700 C.3   401  I47401      0.2665
     28  O28       32.9420   33.9600   29.4480 O.3   401  I47401     -0.2099
@<TRIPOS>BOND
     1    24    11    1
     2    10    11   ar
     3    10     9   ar
     4    11    12   ar
     5     9     6   ar
     6    12    13   ar
     7     6    13   ar
     8     6     1    1
     9     1     2    2
    10     1     5    1
    11     2     3    1
    12    18    17   ar
    13    18     7   ar
    14    17    16   ar
    15     5     7    1
    16     5     4    1
    17     3     4    2
    18     7    14   ar
    19    16    15   ar
    20     4     8    1
    21    14    15   ar
    22     8    19    1
    23     8    23    1
    24    19    20    1
    25    23    22    1
    26    20    21    1
    27    22    21    1
    28    21    25   am
    29    26    25    2
    30    25    27    1
    31    27    28    1
