@<TRIPOS>MOLECULE
3hl8_BBP_A_1.pdb
 35 37 0 0 0
SMALL
GASTEIGER

@<TRIPOS>ATOM
      1 CL1        28.0820    2.1720   55.2170 Cl    501  BBP501     -0.0838
      2  C4        29.6910    2.5310   55.8600 C.2   501  BBP501      0.0389
      3  C3        29.7990    3.7190   56.5620 C.2   501  BBP501     -0.0409
      4  C2        31.0010    4.0730   57.1410 C.2   501  BBP501     -0.0253
      5  C5        30.7790    1.6640   55.7570 C.2   501  BBP501     -0.0405
      6  C6        31.9970    2.0270   56.3490 C.3   501  BBP501      0.1223
      7  S1        33.4180    1.0810   56.2740 S.3   501  BBP501     -0.0552
      8  C7        32.0970    3.2330   57.0410 C.2   501  BBP501      0.1166
      9  N1        33.3540    3.3880   57.5390 N.2   501  BBP501     -0.3829
     10  C1        34.1330    2.3430   57.2330 C.2   501  BBP501      0.2316
     11  N2        35.4210    2.3290   57.6600 N.pl3 501  BBP501     -0.1552
     12  C8        36.3330    1.3730   57.4340 C.3   501  BBP501      0.2088
     13  O1        36.0160    0.1530   56.6810 O.3   501  BBP501     -0.3660
     14  N3        36.0100    3.3650   58.4330 N.2   501  BBP501     -0.1829
     15  C10       37.2820    2.8890   58.5740 C.2   501  BBP501      0.0471
     16  C9        37.6930    1.5600   58.0040 C.3   501  BBP501      0.0400
     17  C11       38.2980    3.6600   59.3770 C.3   501  BBP501      0.0023
     18  C12       37.8570    5.1000   59.5810 C.3   501  BBP501     -0.0549
     19  C13       38.3550    2.9790   60.7400 C.3   501  BBP501     -0.0549
     20  C14       39.6860    3.5980   58.7580 C.3   501  BBP501     -0.0549
     21  H3        28.9440    4.3780   56.6420 H     501  BBP501      0.0633
     22  H2        31.0850    5.0000   57.6910 H     501  BBP501      0.0647
     23  H5        30.6880    0.7300   55.2190 H     501  BBP501      0.0605
     24  HO1       36.6900   -0.5310   56.5670 H     501  BBP501      0.2123
     25  H9        38.4640    1.6370   57.2350 H     501  BBP501      0.0372
     26  H9A       37.9390    0.8230   58.7710 H     501  BBP501      0.0372
     27 H312       36.8740    5.2160   59.2260 H     501  BBP501      0.0238
     28 H212       38.5160    5.7570   59.2460 H     501  BBP501      0.0238
     29 H112       37.7640    5.2220   60.7090 H     501  BBP501      0.0238
     30 H313       37.7490    2.1000   60.7310 H     501  BBP501      0.0238
     31 H213       39.4010    2.5940   60.8640 H     501  BBP501      0.0238
     32 H113       38.1440    3.5950   61.5040 H     501  BBP501      0.0238
     33 H314       39.6320    3.0850   57.8330 H     501  BBP501      0.0238
     34 H214       39.9720    4.6340   58.5240 H     501  BBP501      0.0238
     35 H114       40.3720    3.1910   59.3920 H     501  BBP501      0.0238
@<TRIPOS>BOND
     1     1     2    1
     2    23     5    1
     3     5     2    2
     4     5     6    1
     5     2     3    1
     6     7     6    1
     7     7    10    1
     8     6     8    1
     9     3    21    1
    10     3     4    2
    11    24    13    1
    12    13    12    1
    13     8     4    1
    14     8     9    2
    15     4    22    1
    16    10     9    2
    17    10    11    1
    18    25    16    1
    19    12    11    1
    20    12    16    1
    21    11    14    1
    22    33    20    1
    23    16    15    1
    24    16    26    1
    25    14    15    2
    26    34    20    1
    27    15    17    1
    28    20    17    1
    29    20    35    1
    30    27    18    1
    31    28    18    1
    32    17    18    1
    33    17    19    1
    34    18    29    1
    35    30    19    1
    36    19    31    1
    37    19    32    1
