@<TRIPOS>MOLECULE
3hld_MJA_A_1.pdb
 24 25 0 0 0
SMALL
GASTEIGER

@<TRIPOS>ATOM
      1  O16      -10.0510   15.5860  -30.4600 O.co2 501  MJA501     -0.2456
      2  C15      -10.4080   16.6700  -30.9740 C.2   501  MJA501      0.3674
      3  O15      -10.5510   16.8240  -32.2110 O.co2 501  MJA501     -0.2456
      4  C14      -10.6780   17.8470  -30.0610 C.3   501  MJA501      0.1469
      5  C13       -9.8560   17.7180  -28.7800 C.3   501  MJA501      0.1658
      6  O13      -10.3720   16.6570  -27.9630 O.3   501  MJA501     -0.2225
      7  C12       -9.8970   19.0350  -28.0150 C.3   501  MJA501      0.0663
      8  C11       -8.7920   19.0950  -26.9660 C.3   501  MJA501      0.1546
      9  O11       -9.1470   20.0470  -25.9520 O.3   501  MJA501     -0.2231
     10  C10       -7.4640   19.4880  -27.6120 C.3   501  MJA501      0.0330
     11  C9        -6.4300   19.7470  -26.5320 C.3   501  MJA501      0.0033
     12  C1        -4.9940   19.8210  -27.0570 C.3   501  MJA501      0.0106
     13  C8A       -4.0670   19.9730  -25.8660 C.3   501  MJA501      0.0527
     14  C2        -4.7930   20.9450  -28.0830 C.3   501  MJA501      0.0224
     15  C2M       -5.2170   22.3050  -27.5220 C.3   501  MJA501      0.0047
     16  C3        -3.3490   21.0390  -28.5100 C.2   501  MJA501     -0.0268
     17  C4        -2.3560   20.6710  -27.7050 C.2   501  MJA501     -0.0091
     18  C4A       -2.6590   20.2090  -26.3300 C.2   501  MJA501     -0.0246
     19  C5        -1.6720   20.0750  -25.4510 C.2   501  MJA501     -0.0306
     20  C6        -1.9870   19.8260  -23.9920 C.3   501  MJA501      0.0242
     21  C6M       -0.7480   19.3350  -23.2590 C.3   501  MJA501      0.0047
     22  C7        -3.1380   18.8480  -23.7910 C.3   501  MJA501      0.0375
     23  C8        -4.1030   18.7310  -24.9560 C.3   501  MJA501      0.1563
     24  O8        -3.7760   17.5330  -25.6690 O.3   501  MJA501     -0.2228
@<TRIPOS>BOND
     1     3     2   ar
     2     2     1   ar
     3     2     4    1
     4     4     5    1
     5     5     7    1
     6     5     6    1
     7    16    14    1
     8    16    17    2
     9    14    15    1
    10    14    12    1
    11     7     8    1
    12    17    18    1
    13    10     8    1
    14    10    11    1
    15    12    11    1
    16    12    13    1
    17     8     9    1
    18    18    13    1
    19    18    19    2
    20    13    23    1
    21    24    23    1
    22    19    20    1
    23    23    22    1
    24    20    22    1
    25    20    21    1
