@<TRIPOS>MOLECULE
3hle_MJA_A_1.pdb
 24 25 0 0 0
SMALL
GASTEIGER

@<TRIPOS>ATOM
      1  O16       -9.5970   15.7330  -31.0640 O.co2 500  MJA500     -0.2456
      2  C15      -10.4190   16.6670  -31.2020 C.2   500  MJA500      0.3674
      3  O15      -11.2880   16.6680  -32.1030 O.co2 500  MJA500     -0.2456
      4  C14      -10.3870   17.8420  -30.2470 C.3   500  MJA500      0.1469
      5  C13       -9.2290   17.7560  -29.2580 C.3   500  MJA500      0.1658
      6  O13       -9.2120   16.4870  -28.5900 O.3   500  MJA500     -0.2225
      7  C12       -9.3970   18.8820  -28.2360 C.3   500  MJA500      0.0663
      8  C11       -8.3570   18.8240  -27.1220 C.3   500  MJA500      0.1546
      9  O11       -8.6800   19.8220  -26.1380 O.3   500  MJA500     -0.2231
     10  C10       -6.9720   19.0640  -27.7200 C.3   500  MJA500      0.0330
     11  C9        -5.9400   19.3310  -26.6380 C.3   500  MJA500      0.0033
     12  C1        -4.5050   19.2580  -27.1520 C.3   500  MJA500      0.0106
     13  C8A       -3.5410   19.4910  -25.9960 C.3   500  MJA500      0.0527
     14  C2        -4.2570   20.2390  -28.3120 C.3   500  MJA500      0.0224
     15  C2M       -4.6630   21.6820  -27.9890 C.3   500  MJA500      0.0047
     16  C3        -2.8130   20.2190  -28.7450 C.2   500  MJA500     -0.0268
     17  C4        -1.8420   19.8550  -27.9160 C.2   500  MJA500     -0.0091
     18  C4A       -2.1390   19.4780  -26.5190 C.2   500  MJA500     -0.0246
     19  C5        -1.1260   19.1690  -25.7110 C.2   500  MJA500     -0.0306
     20  C6        -1.3010   19.0610  -24.2090 C.3   500  MJA500      0.0242
     21  C6M       -0.2750   18.0770  -23.6720 C.3   500  MJA500      0.0047
     22  C7        -2.6960   18.6510  -23.7670 C.3   500  MJA500      0.0375
     23  C8        -3.6790   18.4300  -24.8970 C.3   500  MJA500      0.1563
     24  O8        -3.5030   17.1050  -25.4170 O.3   500  MJA500     -0.2228
@<TRIPOS>BOND
     1     3     2   ar
     2     2     1   ar
     3     2     4    1
     4     4     5    1
     5     5     6    1
     6     5     7    1
     7    16    14    1
     8    16    17    2
     9    14    15    1
    10    14    12    1
    11     7     8    1
    12    17    18    1
    13    10     8    1
    14    10    11    1
    15    12    11    1
    16    12    13    1
    17     8     9    1
    18    18    13    1
    19    18    19    2
    20    13    23    1
    21    19    20    1
    22    24    23    1
    23    23    22    1
    24    20    22    1
    25    20    21    1
