@<TRIPOS>MOLECULE
3hlf_SIM_A_1.pdb
 31 32 0 0 0
SMALL
GASTEIGER

@<TRIPOS>ATOM
      1  O1A      -10.8080   14.2100  -30.0490 O.co2 500  SIM500     -0.2456
      2  O1B      -11.0960   14.7380  -32.1590 O.co2 500  SIM500     -0.2456
      3  O3       -10.4550   15.9700  -28.2960 O.3   500  SIM500     -0.2225
      4  O5        -9.5830   19.6640  -27.0240 O.3   500  SIM500     -0.2231
      5  O14       -4.3980   16.5440  -26.2700 O.3   500  SIM500     -0.4519
      6  O18       -5.6030   15.2810  -24.6770 O.2   500  SIM500     -0.2501
      7  C1       -10.8590   15.0590  -30.9720 C.2   500  SIM500      0.3674
      8  C2       -10.6570   16.5340  -30.6680 C.3   500  SIM500      0.1469
      9  C3        -9.9040   16.7700  -29.3590 C.3   500  SIM500      0.1658
     10  C4        -9.9740   18.2560  -28.9970 C.3   500  SIM500      0.0663
     11  C5        -9.0710   18.5710  -27.8040 C.3   500  SIM500      0.1546
     12  C6        -7.6600   18.8960  -28.2820 C.3   500  SIM500      0.0330
     13  C7        -6.7100   19.0300  -27.0940 C.3   500  SIM500      0.0034
     14  C8        -5.2330   18.9370  -27.5130 C.3   500  SIM500      0.0116
     15  C9        -4.8890   19.9650  -28.5980 C.3   500  SIM500      0.0224
     16  C10       -3.4030   20.0350  -28.8700 C.2   500  SIM500     -0.0268
     17  C11       -2.4950   19.7200  -27.9520 C.2   500  SIM500     -0.0091
     18  C12       -2.8960   19.2670  -26.6100 C.2   500  SIM500     -0.0236
     19  C17       -1.9640   19.1150  -25.6560 C.2   500  SIM500     -0.0305
     20  C16       -2.4080   18.7170  -24.2710 C.3   500  SIM500      0.0253
     21  C15       -3.3230   17.5120  -24.4190 C.3   500  SIM500      0.0483
     22  C14       -4.4420   17.7110  -25.4400 C.3   500  SIM500      0.1730
     23  C13       -4.3420   19.0080  -26.2700 C.3   500  SIM500      0.0624
     24  C9A       -5.3540   21.3720  -28.2220 C.3   500  SIM500      0.0047
     25  C18       -5.2470   15.4210  -25.8640 C.2   500  SIM500      0.3158
     26  C19       -5.6160   14.4500  -26.9770 C.3   500  SIM500      0.0896
     27  C20       -7.0110   14.8010  -27.4830 C.3   500  SIM500      0.0106
     28  C21       -7.5740   13.7530  -28.4260 C.3   500  SIM500      0.0006
     29  C22       -5.5300   13.0100  -26.4780 C.3   500  SIM500      0.0111
     30  C23       -4.6170   14.6080  -28.1260 C.3   500  SIM500      0.0111
     31  C24       -1.2370   18.4080  -23.3350 C.3   500  SIM500      0.0048
@<TRIPOS>BOND
     1     2     7   ar
     2     7     8    1
     3     7     1   ar
     4     8     9    1
     5     9    10    1
     6     9     3    1
     7    10    11    1
     8    16    15    1
     9    16    17    2
    10    15    24    1
    11    15    14    1
    12    28    27    1
    13    12    11    1
    14    12    13    1
    15    30    26    1
    16    17    18    1
    17    11     4    1
    18    14    13    1
    19    14    23    1
    20    27    26    1
    21    26    29    1
    22    26    25    1
    23    18    23    1
    24    18    19    2
    25     5    25    1
    26     5    22    1
    27    23    22    1
    28    25     6    2
    29    19    20    1
    30    22    21    1
    31    21    20    1
    32    20    31    1
