@<TRIPOS>MOLECULE
3hlg_LVA_A_1.pdb
 30 31 0 0 0
SMALL
GASTEIGER

@<TRIPOS>ATOM
      1  O1       -10.6140   14.6780  -32.0590 O.co2 500  LVA500     -0.2456
      2  O2       -10.1250   15.9630  -28.2540 O.3   500  LVA500     -0.2225
      3  O3       -10.6470   14.2300  -29.9180 O.co2 500  LVA500     -0.2456
      4  O8        -9.4090   19.8190  -27.1990 O.3   500  LVA500     -0.2231
      5  O4        -4.3990   16.7060  -26.2050 O.3   500  LVA500     -0.4519
      6  C5        -2.3460   19.8590  -27.8460 C.2   500  LVA500     -0.0091
      7  C6        -2.7390   19.3850  -26.5080 C.2   500  LVA500     -0.0236
      8  C7        -8.9100   18.6290  -27.8130 C.3   500  LVA500      0.1546
      9  C8        -3.2660   20.1850  -28.7570 C.2   500  LVA500     -0.0268
     10  C9        -4.1870   19.1230  -26.1590 C.3   500  LVA500      0.0624
     11  C10      -10.6270   15.0460  -30.8680 C.2   500  LVA500      0.3674
     12  C11       -4.7550   20.1000  -28.4680 C.3   500  LVA500      0.0224
     13  C12       -5.0640   19.0220  -27.4150 C.3   500  LVA500      0.0116
     14  C13       -9.7170   16.7890  -29.3580 C.3   500  LVA500      0.1658
     15  C14       -1.7930   19.2030  -25.5710 C.2   500  LVA500     -0.0305
     16  C15       -4.2890   17.8290  -25.3250 C.3   500  LVA500      0.1730
     17  C16       -7.4650   18.8560  -28.2430 C.3   500  LVA500      0.0330
     18  C17       -9.7950   18.2690  -29.0040 C.3   500  LVA500      0.0663
     19  C18       -6.5490   19.0220  -27.0330 C.3   500  LVA500      0.0034
     20  C19       -3.0970   17.5320  -24.4150 C.3   500  LVA500      0.0483
     21  C20       -5.2810   21.4670  -28.0260 C.3   500  LVA500      0.0047
     22  C21      -10.6160   16.5270  -30.5650 C.3   500  LVA500      0.1469
     23  C22       -2.2230   18.7600  -24.2010 C.3   500  LVA500      0.0253
     24  C23       -1.0570   18.4870  -23.2610 C.3   500  LVA500      0.0048
     25  C24       -5.2910   15.6260  -25.8330 C.2   500  LVA500      0.3163
     26  C25       -5.7710   14.7480  -26.9660 C.3   500  LVA500      0.0991
     27  O26       -5.5750   15.4510  -24.6470 O.2   500  LVA500     -0.2501
     28  C27       -6.9260   13.8510  -26.5470 C.3   500  LVA500      0.0111
     29  C28       -4.5930   13.9120  -27.4620 C.3   500  LVA500      0.0116
     30  C29       -7.6310   13.2590  -27.7510 C.3   500  LVA500      0.0006
@<TRIPOS>BOND
     1     1    11   ar
     2    11    22    1
     3    11     3   ar
     4    22    14    1
     5    14    18    1
     6    14     2    1
     7    18     8    1
     8     9    12    1
     9     9     6    2
    10    12    21    1
    11    12    13    1
    12    17     8    1
    13    17    19    1
    14     6     7    1
    15     8     4    1
    16    30    28    1
    17    29    26    1
    18    13    19    1
    19    13    10    1
    20    26    28    1
    21    26    25    1
    22     7    10    1
    23     7    15    2
    24     5    25    1
    25     5    16    1
    26    10    16    1
    27    25    27    2
    28    15    23    1
    29    16    20    1
    30    20    23    1
    31    23    24    1
