@<TRIPOS>MOLECULE
3hlj_V21_A_1.pdb
 18 20 0 0 0
SMALL
GASTEIGER

@<TRIPOS>ATOM
      1  O12       -5.1380    1.1290   18.1250 O.2   262  V21262     -0.1542
      2  S9        -5.6770    0.9340   16.6760 S.O2  262  V21262      0.0801
      3  O11       -7.2340    0.9830   16.6070 O.2   262  V21262     -0.1542
      4  N10       -5.0510   -0.5440   16.0860 N.3   262  V21262      0.0351
      5  C8        -5.0470    2.2600   15.6620 C.3   262  V21262      0.1941
      6  C13       -3.6500    2.3550   15.4960 C.2   262  V21262      0.0058
      7  C1        -3.0820    3.3740   14.7140 C.2   262  V21262      0.0309
      8  C7        -5.8940    3.1990   15.0270 C.2   262  V21262      0.0221
      9  C6        -5.3120    4.2240   14.2390 C.2   262  V21262      0.0987
     10  C2        -3.9270    4.2930   14.0940 C.2   262  V21262      0.1472
     11  N5        -5.8040    5.2390   13.4850 N.pl3 262  V21262     -0.1787
     12  S15       -6.7530    6.8560   12.1320 S.3   262  V21262     -0.0088
     13  N14       -6.9680    5.6650   13.1620 N.3   262  V21262     -0.0634
     14  C16       -5.1370    6.8210   12.0190 C.3   262  V21262      0.1807
     15  C4        -4.7640    5.8370   12.9160 C.2   262  V21262      0.2004
     16  N3        -3.5910    5.3250   13.3080 N.2   262  V21262     -0.3868
     17  S17       -4.1530    7.8500   10.9770 S.3   262  V21262     -0.1195
     18  C18       -5.1930    9.2170   10.4030 C.3   262  V21262      0.0705
@<TRIPOS>BOND
     1    18    17    1
     2    17    14    1
     3    14    12    1
     4    14    15    1
     5    12    13    1
     6    15    16    2
     7    15    11    1
     8    13    11    1
     9    16    10    2
    10    11     9    1
    11    10     9    1
    12    10     7    1
    13     9     8    2
    14     7     6    2
    15     8     5    1
    16     6     5    1
    17     5     2    1
    18     4     2    1
    19     3     2    2
    20     2     1    2
