@<TRIPOS>MOLECULE
3hll_I46_A_1.pdb
 19 21 0 0 0
SMALL
GASTEIGER

@<TRIPOS>ATOM
      1  C1         7.9140   22.7980   14.0750 C.ar  402  I46402     -0.0012
      2  C2         6.3920   21.7440   12.5710 C.ar  402  I46402     -0.0012
      3  C3         7.4400   21.9970   15.0930 C.ar  402  I46402      0.0293
      4  C4         5.9250   20.9290   13.5810 C.ar  402  I46402      0.0293
      5  C5         7.9710   22.1090    8.2730 C.ar  402  I46402      0.0221
      6  C6         8.1550   20.9930    7.4950 C.ar  402  I46402      0.1013
      7  C7         8.8090   20.8850   10.1300 C.ar  402  I46402      0.0509
      8  C8         7.8510   24.9020   11.8950 C.2   402  I46402      0.1057
      9  C9         7.3850   22.6730   12.8100 C.ar  402  I46402     -0.0110
     10  C10        6.4440   21.0720   14.8430 C.ar  402  I46402      0.1401
     11  C11        8.2980   22.0640    9.6160 C.ar  402  I46402      0.0213
     12  C12        8.9430   19.8230    9.2500 C.ar  402  I46402      0.2224
     13  C13        7.7920   23.5350   11.7350 C.3   402  I46402      0.1073
     14  C14        8.1530   23.2930   10.3780 C.2   402  I46402      0.0901
     15  N15        8.2330   25.4170   10.6860 N.2   402  I46402     -0.1507
     16  N16        8.6410   19.8380    7.9470 N.ar  402  I46402     -0.2165
     17  N17        8.4210   24.4630    9.7550 N.2   402  I46402     -0.1519
     18  F18        5.9830   20.2730   15.8280 F     402  I46402     -0.2042
     19  F19        9.4450   18.6610    9.6900 F     402  I46402     -0.1832
@<TRIPOS>BOND
     1     6    16   ar
     2     6     5   ar
     3    16    12   ar
     4     5    11   ar
     5    12    19    1
     6    12     7   ar
     7    11     7   ar
     8    11    14    1
     9    17    14    2
    10    17    15    1
    11    14    13    1
    12    15     8    2
    13    13     8    1
    14    13     9    1
    15     2     9   ar
    16     2     4   ar
    17     9     1   ar
    18     4    10   ar
    19     1     3   ar
    20    10     3   ar
    21    10    18    1
