@<TRIPOS>MOLECULE
3hll_I45_A_1.pdb
 30 32 0 0 0
SMALL
GASTEIGER

@<TRIPOS>ATOM
      1  C1        36.6840   36.6680   18.2600 C.ar  401  I45401      0.0488
      2  C2        38.0040   37.0480   18.1550 C.ar  401  I45401      0.1418
      3  C3        38.5950   37.3040   16.9450 C.ar  401  I45401      0.0590
      4  C4        37.8490   37.1850   15.8030 C.ar  401  I45401      0.1424
      5  C5        36.5260   36.8090   15.8790 C.ar  401  I45401      0.0296
      6  C6        35.9440   36.5560   17.1050 C.ar  401  I45401      0.0039
      7  C7        36.0660   36.4280   19.5890 C.3   401  I45401      0.2342
      8  O8        35.6680   37.7740   19.9480 O.3   401  I45401     -0.4699
      9  C9        35.3280   37.9990   21.2810 C.ar  401  I45401      0.1509
     10  C10       35.0660   39.2620   21.6780 C.ar  401  I45401      0.1248
     11  C11       34.6970   39.5170   23.0960 C.ar  401  I45401      0.2736
     12  N12       34.6460   38.4050   23.9230 N.ar  401  I45401     -0.2779
     13  C13       34.9310   37.1250   23.4710 C.ar  401  I45401      0.0476
     14  C14       35.2580   36.9000   22.1960 C.ar  401  I45401      0.0507
     15  C15       34.2270   38.6030   25.2470 C.ar  401  I45401      0.0627
     16  C16       35.1530   39.0970   26.1480 C.ar  401  I45401      0.0218
     17  C17       34.7600   39.2740   27.4600 C.ar  401  I45401      0.0565
     18  C18       33.4800   38.9770   27.8680 C.ar  401  I45401      0.0043
     19  C19       32.5700   38.4900   26.9640 C.ar  401  I45401     -0.0027
     20  C20       32.9380   38.2980   25.6500 C.ar  401  I45401     -0.0056
     21  F21       38.7710   37.1710   19.2450 F     401  I45401     -0.2043
     22  F22       38.4340   37.4590   14.6230 F     401  I45401     -0.2041
     23 BR23       35.1590   40.6940   20.5260 Br    401  I45401     -0.0408
     24  O24       34.4600   40.6580   23.4590 O.2   401  I45401     -0.2660
     25  C25       34.8520   35.9970   24.4400 C.3   401  I45401      0.0506
     26  C26       35.7200   39.8060   28.4400 C.2   401  I45401      0.2649
     27  O27       36.5860   40.5800   28.0490 O.2   401  I45401     -0.2684
     28  N28       35.5210   39.4160   29.7530 N.am  401  I45401     -0.1998
     29  C29       35.5240   38.0420   30.2060 C.3   401  I45401      0.1388
     30  C30       31.8930   37.7630   24.7270 C.3   401  I45401      0.0326
@<TRIPOS>BOND
     1    22     4    1
     2     4     5   ar
     3     4     3   ar
     4     5     6   ar
     5     3     2   ar
     6     6     1   ar
     7     2     1   ar
     8     2    21    1
     9     1     7    1
    10     7     8    1
    11     8     9    1
    12    23    10    1
    13     9    10   ar
    14     9    14   ar
    15    10    11   ar
    16    14    13   ar
    17    11    24    2
    18    11    12   ar
    19    13    12   ar
    20    13    25    1
    21    12    15    1
    22    30    20    1
    23    15    20   ar
    24    15    16   ar
    25    20    19   ar
    26    16    17   ar
    27    19    18   ar
    28    17    18   ar
    29    17    26    1
    30    27    26    2
    31    26    28   am
    32    28    29    1
