@<TRIPOS>MOLECULE
3hlv_J2Z_A_1.pdb
 21 24 0 0 0
SMALL
GASTEIGER

@<TRIPOS>ATOM
      1  O1        -0.6780    3.1300   -5.4030 O.2     1  J2Z1       -0.2934
      2  C7         0.4750    3.1400   -5.0000 C.2     1  J2Z1        0.1799
      3  C8         0.8230    3.2800   -3.5580 C.3     1  J2Z1        0.2086
      4  O2         0.1040    4.3890   -3.0170 O.3     1  J2Z1       -0.2151
      5  C9         2.3300    3.5580   -3.5560 C.3     1  J2Z1        0.0410
      6  C10        2.7060    3.8340   -5.0050 C.3     1  J2Z1        0.0099
      7  C5         1.7240    3.0310   -5.8400 C.3     1  J2Z1        0.0541
      8  C6         2.0840    1.5450   -5.8910 C.3     1  J2Z1        0.0074
      9  C12        4.1260    3.5140   -5.4460 C.3     1  J2Z1        0.0049
     10  C2         4.2250    4.0870   -6.8480 C.3     1  J2Z1        0.0220
     11  C3         3.1580    3.5100   -7.7940 C.3     1  J2Z1        0.0048
     12  C4         1.7190    3.5810   -7.2640 C.3     1  J2Z1        0.0073
     13  C14        5.1810    4.1100   -4.5210 C.3     1  J2Z1        0.0050
     14  C15        6.6130    4.0690   -5.0640 C.3     1  J2Z1        0.0261
     15  C16        6.7090    3.8630   -6.5620 C.ar    1  J2Z1       -0.0230
     16  C21        5.5870    3.8620   -7.3850 C.ar    1  J2Z1       -0.0263
     17  C17        7.9670    3.6520   -7.1250 C.ar    1  J2Z1        0.0375
     18  C18        8.1090    3.4600   -8.5000 C.ar    1  J2Z1        0.1954
     19  O3         9.3320    3.2520   -9.0630 O.3     1  J2Z1       -0.2866
     20  C19        6.9860    3.4660   -9.3140 C.ar    1  J2Z1        0.0417
     21  C20        5.7320    3.6710   -8.7560 C.ar    1  J2Z1       -0.0013
@<TRIPOS>BOND
     1    20    21   ar
     2    20    18   ar
     3    19    18    1
     4    21    16   ar
     5    18    17   ar
     6    11    12    1
     7    11    10    1
     8    16    10    1
     9    16    15   ar
    10    12     7    1
    11    17    15   ar
    12    10     9    1
    13    15    14    1
    14     8     7    1
    15     7     6    1
    16     7     2    1
    17     9     6    1
    18     9    13    1
    19     1     2    2
    20    14    13    1
    21     6     5    1
    22     2     3    1
    23     3     5    1
    24     3     4    1
