@<TRIPOS>MOLECULE
3hlw_CE3_A_1.pdb
 30 32 0 0 0
SMALL
GASTEIGER

@<TRIPOS>ATOM
      1  C         23.3790   53.6280    9.4720 C.3   301  CE3301      0.1570
      2  C1        23.4670   55.1950    9.5040 C.3   301  CE3301      0.2005
      3  S         23.9490   52.7120   10.8970 S.3   301  CE3301     -0.1140
      4  C2        22.8530   51.3240   10.7610 C.3   301  CE3301      0.0862
      5  C3        21.4050   51.8020   10.7370 C.2   301  CE3301      0.0301
      6  C4        21.0130   52.9910   10.2410 C.2   301  CE3301      0.1314
      7  N         21.9170   53.8370    9.6280 N.am  301  CE3301     -0.2420
      8  C5        21.9950   55.1520    9.7100 C.2   301  CE3301      0.2526
      9  O         21.1480   56.0600    9.6990 O.2   301  CE3301     -0.2726
     10  N1        24.1750   55.7540   10.6470 N.am  301  CE3301     -0.1899
     11  C6        25.5050   55.6330   10.7510 C.2   301  CE3301      0.2884
     12  O2        26.1420   55.0320    9.8930 O.2   301  CE3301     -0.2665
     13  C7        26.1800   56.1750   11.9350 C.2   301  CE3301      0.2002
     14  N2        27.2340   56.8630   11.8590 N.2   301  CE3301     -0.0759
     15  O1        27.8240   57.2450   10.7350 O.2   301  CE3301     -0.3729
     16  C8        29.0750   57.9340   10.8990 C.3   301  CE3301      0.2885
     17  C14       25.6960   55.9140   13.2910 C.2   301  CE3301      0.1478
     18  N3        26.3510   56.4730   14.4000 N.2   301  CE3301     -0.3794
     19  C15       25.7370   56.1610   15.5350 C.2   301  CE3301      0.2461
     20  N4        26.2130   56.5400   16.7470 N.pl3 301  CE3301     -0.0867
     21  S1        24.4340   55.0900   15.3160 S.3   301  CE3301     -0.0564
     22  C13       24.6010   55.0830   13.5990 C.3   301  CE3301      0.1266
     23  C9        20.3390   50.9040   11.3230 C.3   301  CE3301      0.2331
     24  O3        20.8820   50.0670   12.3340 O.3   301  CE3301     -0.4438
     25  C10       20.2950   48.7530   12.4840 C.2   301  CE3301      0.3179
     26  O4        19.2000   48.5640   11.9710 O.2   301  CE3301     -0.2501
     27  C11       21.0370   47.6930   13.2410 C.3   301  CE3301      0.1212
     28  C12       19.5720   53.3610   10.3730 C.2   301  CE3301      0.4007
     29  O5        18.8350   53.3070    9.3890 O.co2 301  CE3301     -0.2392
     30  O6        19.0930   53.6120   11.5180 O.co2 301  CE3301     -0.2392
@<TRIPOS>BOND
     1    29    28   ar
     2     1     2    1
     3     1     7    1
     4     1     3    1
     5     2     8    1
     6     2    10    1
     7     7     8   am
     8     7     6    1
     9     9     8    2
    10    12    11    2
    11     6    28    1
    12     6     5    2
    13    28    30   ar
    14    10    11   am
    15    15    16    1
    16    15    14    1
    17     5     4    1
    18     5    23    1
    19    11    13    1
    20     4     3    1
    21    23    24    1
    22    14    13    2
    23    13    17    1
    24    26    25    2
    25    24    25    1
    26    25    27    1
    27    17    22    1
    28    17    18    2
    29    22    21    1
    30    18    19    2
    31    21    19    1
    32    19    20    1
