@<TRIPOS>MOLECULE
3hlx_PQQ_A_1.pdb
 24 26 0 0 0
SMALL
GASTEIGER

@<TRIPOS>ATOM
      1  N1       -31.1100   15.7420   -1.6590 N.2   500  PQQ500     -0.3986
      2  C2       -31.2570   14.4070   -1.3580 C.2   500  PQQ500      0.2104
      3  C2X      -30.6170   13.3430   -2.1910 C.2   500  PQQ500      0.4168
      4  O2A      -30.1720   13.7270   -3.3070 O.co2 500  PQQ500     -0.2377
      5  O2B      -30.7890   12.1490   -1.8740 O.co2 500  PQQ500     -0.2377
      6  C3       -32.1750   14.2630   -0.3060 C.2   500  PQQ500      0.0444
      7  C3A      -32.6060   15.5760    0.0940 C.2   500  PQQ500      0.0711
      8  C1A      -31.8650   16.5140   -0.7790 C.2   500  PQQ500      0.1232
      9  C4       -33.5830   16.0630    1.0580 C.2   500  PQQ500      0.2387
     10  O4       -34.1990   15.2910    1.8890 O.2   500  PQQ500     -0.2830
     11  C5       -33.8000   17.5040    1.1390 C.2   500  PQQ500      0.2601
     12  O5       -34.6500   18.0300    1.9810 O.2   500  PQQ500     -0.2807
     13  C6A      -33.0040   18.3980    0.2510 C.2   500  PQQ500      0.1617
     14  N6       -33.2300   19.7170    0.4100 N.2   500  PQQ500     -0.3954
     15  C7       -32.6000   20.6440   -0.3090 C.2   500  PQQ500      0.2103
     16  C7X      -33.0190   22.0820   -0.0930 C.2   500  PQQ500      0.4168
     17  O7A      -33.9650   22.2390    0.7440 O.co2 500  PQQ500     -0.2377
     18  O7B      -32.5010   22.9840   -0.8040 O.co2 500  PQQ500     -0.2377
     19  C8       -31.7050   20.2810   -1.3240 C.2   500  PQQ500      0.0420
     20  C9       -31.3540   18.9380   -1.5550 C.2   500  PQQ500      0.0734
     21  C9X      -30.2900   18.6470   -2.5500 C.2   500  PQQ500      0.3847
     22  O9A      -29.2270   19.3880   -2.4630 O.co2 500  PQQ500     -0.2409
     23  O9B      -30.3550   17.6520   -3.3030 O.co2 500  PQQ500     -0.2409
     24  C9A      -32.0280   17.9070   -0.7450 C.3   500  PQQ500      0.1366
@<TRIPOS>BOND
     1     4     3   ar
     2    23    21   ar
     3    21    22   ar
     4    21    20    1
     5     3     5   ar
     6     3     2    1
     7     1     2    2
     8     1     8    2
     9    20    19    2
    10    20    24    1
    11     2     6    1
    12    19    15    1
    13    18    16   ar
    14     8    24    1
    15     8     7    1
    16    24    13    1
    17    15    16    1
    18    15    14    2
    19     6     7    2
    20    16    17   ar
    21     7     9    1
    22    13    14    2
    23    13    11    1
    24     9    11    2
    25     9    10    1
    26    11    12    1
