@<TRIPOS>MOLECULE
3hm1_J3Z_A_1.pdb
 20 23 0 0 0
SMALL
GASTEIGER

@<TRIPOS>ATOM
      1  C2         5.6330    3.5170   -6.4850 C.3     2  J3Z2        0.0220
      2  C4         3.3130    2.5280   -6.9890 C.3     2  J3Z2        0.0073
      3  C5         3.1750    2.2730   -5.4990 C.3     2  J3Z2        0.0515
      4  C6         3.6460    0.8720   -5.1320 C.3     2  J3Z2        0.0073
      5  O1         0.7660    2.1360   -5.3840 O.2     2  J3Z2       -0.2961
      6  O3        11.0910    3.2900   -7.9400 O.3     2  J3Z2       -0.2866
      7  C7         1.8230    2.5020   -4.8840 C.2     2  J3Z2        0.1498
      8  C8         1.9170    3.1430   -3.5150 C.3     2  J3Z2        0.0645
      9  C9         3.4070    3.4450   -3.3650 C.3     2  J3Z2        0.0082
     10  C10        3.9450    3.3700   -4.7970 C.3     2  J3Z2        0.0073
     11  C12        5.4330    3.1930   -5.0130 C.3     2  J3Z2        0.0048
     12  C3         4.7960    2.5750   -7.3630 C.3     2  J3Z2        0.0048
     13  C14        6.2600    4.1030   -4.1180 C.3     2  J3Z2        0.0050
     14  C15        7.7500    4.1510   -4.4810 C.3     2  J3Z2        0.0261
     15  C16        8.0690    3.7610   -5.9190 C.ar    2  J3Z2       -0.0230
     16  C21        7.0780    3.4630   -6.8520 C.ar    2  J3Z2       -0.0263
     17  C17        9.4180    3.6910   -6.2960 C.ar    2  J3Z2        0.0375
     18  C18        9.7710    3.3470   -7.5890 C.ar    2  J3Z2        0.1954
     19  C19        8.7730    3.0520   -8.5280 C.ar    2  J3Z2        0.0417
     20  C20        7.4300    3.1080   -8.1580 C.ar    2  J3Z2       -0.0013
@<TRIPOS>BOND
     1    19    20   ar
     2    19    18   ar
     3    20    16   ar
     4     6    18    1
     5    18    17   ar
     6    12     2    1
     7    12     1    1
     8     2     3    1
     9    16     1    1
    10    16    15   ar
    11     1    11    1
    12    17    15   ar
    13    15    14    1
    14     3     4    1
    15     3     7    1
    16     3    10    1
    17     5     7    2
    18    11    10    1
    19    11    13    1
    20     7     8    1
    21    10     9    1
    22    14    13    1
    23     8     9    1
