@<TRIPOS>MOLECULE
3hm8_GLC_A_1.pdb
 12 12 0 0 0
SMALL
GASTEIGER

@<TRIPOS>ATOM
      1  C1        10.2280   -2.3030  -22.8280 C.3   1001  GLC1001     0.3024
      2  C2         9.4800   -1.3570  -21.9030 C.3   1001  GLC1001     0.2434
      3  C3         8.9730   -0.1010  -22.6440 C.3   1001  GLC1001     0.2199
      4  C4        10.0520    0.5490  -23.5200 C.3   1001  GLC1001     0.2144
      5  C5        10.8300   -0.5120  -24.3240 C.3   1001  GLC1001     0.1836
      6  C6        12.0250    0.1170  -25.1890 C.3   1001  GLC1001     0.2142
      7  O1         9.2210   -2.7860  -23.7890 O.3   1001  GLC1001    -0.1869
      8  O2         8.3610   -2.0600  -21.3480 O.3   1001  GLC1001    -0.2148
      9  O3         8.5660    0.8410  -21.6660 O.3   1001  GLC1001    -0.2174
     10  O4         9.4600    1.5430  -24.3560 O.3   1001  GLC1001    -0.2176
     11  O5        11.3310   -1.5420  -23.4350 O.3   1001  GLC1001    -0.3236
     12  O6        12.9900    0.7590  -24.3480 O.3   1001  GLC1001    -0.2176
@<TRIPOS>BOND
     1     6    12    1
     2     6     5    1
     3    10     4    1
     4     5     4    1
     5     5    11    1
     6     7     1    1
     7     4     3    1
     8    11     1    1
     9     1     2    1
    10     3     2    1
    11     3     9    1
    12     2     8    1
