@<TRIPOS>MOLECULE
3hm8_BG6_A_1.pdb
 16 16 0 0 0
SMALL
GASTEIGER

@<TRIPOS>ATOM
      1  C1        18.0750    5.6570  -27.3530 C.3   1002  BG61002     0.3024
      2  C2        16.9550    6.5370  -26.7730 C.3   1002  BG61002     0.2434
      3  O1        18.7270    6.3510  -28.4420 O.3   1002  BG61002    -0.1869
      4  O5        17.5420    4.3410  -27.7640 O.3   1002  BG61002    -0.3237
      5  C3        16.3520    5.8630  -25.5500 C.3   1002  BG61002     0.2199
      6  O2        17.4550    7.8340  -26.4180 O.3   1002  BG61002    -0.2148
      7  C4        15.8370    4.4430  -25.9380 C.3   1002  BG61002     0.2143
      8  O3        15.2760    6.6590  -25.0030 O.3   1002  BG61002    -0.2174
      9  C5        16.9600    3.6220  -26.6260 C.3   1002  BG61002     0.1808
     10  O4        15.3400    3.7400  -24.7530 O.3   1002  BG61002    -0.2176
     11  C6        16.4010    2.2660  -27.0690 C.3   1002  BG61002     0.1859
     12  O6        17.3490    1.5730  -27.8810 O.3   1002  BG61002    -0.2675
     13  P         18.5680    0.7950  -27.2130 P.3   1002  BG61002     0.5327
     14  O1P       18.1500   -0.1520  -26.1340 O.3   1002  BG61002    -0.1145
     15  O2P       19.5990    1.9290  -26.6690 O.3   1002  BG61002    -0.1145
     16  O3P       19.3030    0.0170  -28.4290 O.2   1002  BG61002    -0.2224
@<TRIPOS>BOND
     1     3     1    1
     2    16    13    2
     3    12    13    1
     4    12    11    1
     5     4     1    1
     6     4     9    1
     7     1     2    1
     8    13    15    1
     9    13    14    1
    10    11     9    1
    11     2     6    1
    12     2     5    1
    13     9     7    1
    14     7     5    1
    15     7    10    1
    16     5     8    1
