@<TRIPOS>MOLECULE
3hmi_DKI_A_1.pdb
 28 30 0 0 0
SMALL
GASTEIGER

@<TRIPOS>ATOM
      1  FAF      -29.6650    6.3000  -10.4390 F       1  DKI1       -0.2027
      2  CAU      -28.3610    6.5820  -10.6380 C.ar    1  DKI1        0.1575
      3  CAI      -27.3580    6.0500   -9.8180 C.ar    1  DKI1        0.0311
      4  CAH      -26.0170    6.3580  -10.0780 C.ar    1  DKI1        0.0047
      5  CAJ      -25.7140    7.2150  -11.1360 C.ar    1  DKI1        0.0311
      6  CAV      -26.7360    7.7570  -11.9290 C.ar    1  DKI1        0.1575
      7  FAG      -26.4200    8.5540  -12.9440 F       1  DKI1       -0.2027
      8  CAZ      -28.0690    7.4590  -11.6650 C.ar    1  DKI1        0.1271
      9  NAQ      -29.1290    7.9070  -12.3620 N.am    1  DKI1       -0.1854
     10  CAS      -29.6990    9.2020  -12.0970 C.2     1  DKI1        0.1862
     11  SAE      -29.6790    9.7430  -10.3650 S.2     1  DKI1       -0.0145
     12  NBA      -30.8590    9.5270  -12.8790 N.am    1  DKI1       -0.1152
     13  NAP      -30.8920    9.1060  -14.0770 N.2     1  DKI1       -0.0877
     14  CAT      -31.7700   10.4880  -12.6450 C.2     1  DKI1        0.3142
     15  NAA      -32.0110   11.2080  -11.5160 N.pl3   1  DKI1       -0.0755
     16  NAO      -32.4810   10.5840  -13.7600 N.2     1  DKI1       -0.2988
     17  CAX      -31.9270    9.7350  -14.6400 C.1     1  DKI1        0.1878
     18  NAR      -32.3900    9.5800  -15.8910 N.pl3   1  DKI1       -0.1347
     19  CAW      -31.9760    8.6580  -16.8350 C.ar    1  DKI1        0.0827
     20  CAL      -32.8330    8.5010  -17.9250 C.ar    1  DKI1        0.0187
     21  CAN      -32.5680    7.6130  -18.9520 C.ar    1  DKI1        0.0214
     22  CAK      -30.8010    7.9190  -16.8450 C.ar    1  DKI1        0.0187
     23  CAM      -30.5190    7.0140  -17.8920 C.ar    1  DKI1        0.0214
     24  CAY      -31.4260    6.8850  -18.9420 C.ar    1  DKI1        0.1251
     25  SBB      -31.1790    5.7800  -20.2750 S.O2    1  DKI1        0.0935
     26  OAC      -29.9620    5.0150  -20.0110 O.2     1  DKI1       -0.1503
     27  OAD      -32.4030    4.9260  -20.2920 O.2     1  DKI1       -0.1503
     28  NAB      -31.0640    6.5340  -21.7430 N.3     1  DKI1        0.0392
@<TRIPOS>BOND
     1    28    25    1
     2    27    25    2
     3    25    26    2
     4    25    24    1
     5    21    24   ar
     6    21    20   ar
     7    24    23   ar
     8    20    19   ar
     9    23    22   ar
    10    22    19   ar
    11    19    18    1
    12    18    17    1
    13    17    13    2
    14    17    16    2
    15    13    12    1
    16    16    14    2
    17     7     6    1
    18    12    14    1
    19    12    10    1
    20    14    15    1
    21     9    10    1
    22     9     8    1
    23    10    11    2
    24     6     8   ar
    25     6     5   ar
    26     8     2   ar
    27     5     4   ar
    28     2     1    1
    29     2     3   ar
    30     4     3   ar
