@<TRIPOS>MOLECULE
3hmj_FMN_G_1.pdb
 31 33 0 0 0
SMALL
GASTEIGER

@<TRIPOS>ATOM
      1  N1       123.2130   -6.6160   38.1290 N.2   3051  FMN3051    -0.2887
      2  C2       123.9290   -5.5740   37.2680 C.1   3051  FMN3051     0.3669
      3  O2       124.5150   -4.4700   37.9040 O.2   3051  FMN3051    -0.1744
      4  N3       124.0080   -5.7410   35.7580 N.2   3051  FMN3051    -0.2300
      5  C4       123.3940   -6.9220   35.0720 C.1   3051  FMN3051     0.2513
      6  O4       123.4710   -7.0560   33.6590 O.2   3051  FMN3051    -0.2057
      7  C4A      122.6830   -7.9680   35.9350 C.2   3051  FMN3051     0.2703
      8  N5       122.0400   -9.1810   35.3070 N.2   3051  FMN3051    -0.3882
      9  C5A      121.3270  -10.1920   36.1720 C.2   3051  FMN3051     0.1277
     10  C6       120.6510  -11.4530   35.4980 C.3   3051  FMN3051     0.0820
     11  C7       119.9080  -12.5050   36.4040 C.2   3051  FMN3051    -0.0408
     12  C7M      119.2540  -13.7370   35.7430 C.3   3051  FMN3051     0.0265
     13  C8       119.8390  -12.3050   37.9660 C.2   3051  FMN3051    -0.0280
     14  C8M      119.1290  -13.3240   38.8770 C.3   3051  FMN3051     0.0304
     15  C9       120.5050  -11.0620   38.6190 C.2   3051  FMN3051     0.0123
     16  C9A      121.2530   -9.9950   37.7050 C.2   3051  FMN3051     0.0793
     17  N10      121.9030   -8.8020   38.3360 N.pl3 3051  FMN3051    -0.2545
     18  C10      122.6110   -7.7890   37.4670 C.2   3051  FMN3051     0.2449
     19  C1'      121.8430   -8.5580   39.7840 C.3   3051  FMN3051     0.1336
     20  C2'      120.4060   -8.0380   40.1170 C.3   3051  FMN3051     0.2048
     21  O2'      120.1730   -6.8490   39.3890 O.3   3051  FMN3051    -0.2185
     22  C3'      120.2560   -7.7330   41.6270 C.3   3051  FMN3051     0.2165
     23  O3'      121.3630   -6.9990   42.1100 O.3   3051  FMN3051    -0.2175
     24  C4'      120.1220   -9.0770   42.3660 C.3   3051  FMN3051     0.2147
     25  O4'      119.5110   -9.9910   41.4730 O.3   3051  FMN3051    -0.2176
     26  C5'      119.1490   -8.9180   43.5440 C.3   3051  FMN3051     0.1892
     27  O5'      119.2040  -10.1420   44.2210 O.3   3051  FMN3051    -0.2674
     28  P        117.8360  -11.0470   44.3060 P.3   3051  FMN3051     0.5327
     29  O1P      118.0240  -12.1370   45.2770 O.3   3051  FMN3051    -0.1145
     30  O2P      116.5880  -10.0360   44.7070 O.3   3051  FMN3051    -0.1145
     31  O3P      117.5990  -11.6910   42.8120 O.2   3051  FMN3051    -0.2224
@<TRIPOS>BOND
     1     6     5    2
     2     5     4    2
     3     5     7    1
     4     8     7    2
     5     8     9    2
     6    10     9    1
     7    10    11    1
     8    12    11    1
     9     4     2    2
    10     7    18    1
    11     9    16    1
    12    11    13    2
    13     2     3    2
    14     2     1    2
    15    18     1    2
    16    18    17    1
    17    16    17    1
    18    16    15    2
    19    13    15    1
    20    13    14    1
    21    17    19    1
    22    21    20    1
    23    19    20    1
    24    20    22    1
    25    25    24    1
    26    22    23    1
    27    22    24    1
    28    24    26    1
    29    31    28    2
    30    26    27    1
    31    27    28    1
    32    28    30    1
    33    28    29    1
