@<TRIPOS>MOLECULE
3hmk_PLP_A_1.pdb
 15 15 0 0 0
SMALL
GASTEIGER

@<TRIPOS>ATOM
      1  N1        -4.3550   -5.0870  -53.0790 N.ar  350  PLP350     -0.2452
      2  C2        -3.1590   -4.6410  -52.6330 C.ar  350  PLP350      0.0978
      3  C2A       -2.5570   -5.2440  -51.3900 C.3   350  PLP350      0.0555
      4  C3        -2.4910   -3.6340  -53.3160 C.ar  350  PLP350      0.2049
      5  O3        -1.2830   -3.1840  -52.8690 O.3   350  PLP350     -0.2857
      6  C4        -3.0530   -3.0910  -54.4640 C.ar  350  PLP350      0.0182
      7  C4A       -2.3250   -1.9930  -55.2050 C.3   350  PLP350      0.0342
      8  C5        -4.2850   -3.5690  -54.9030 C.ar  350  PLP350      0.0261
      9  C6        -4.9200   -4.5800  -54.1850 C.ar  350  PLP350      0.0965
     10  C5A       -4.9610   -3.0150  -56.1370 C.3   350  PLP350      0.1815
     11  O4P       -4.2480   -3.3710  -57.3180 O.3   350  PLP350     -0.2653
     12  P         -4.5090   -2.5820  -58.6900 P.3   350  PLP350      0.5329
     13  O1P       -4.1280   -1.1540  -58.3770 O.3   350  PLP350     -0.1145
     14  O2P       -5.9900   -2.7580  -58.9520 O.3   350  PLP350     -0.1145
     15  O3P       -3.6070   -3.2870  -59.6640 O.2   350  PLP350     -0.2224
@<TRIPOS>BOND
     1    15    12    2
     2    14    12    1
     3    12    13    1
     4    12    11    1
     5    11    10    1
     6    10     8    1
     7     7     6    1
     8     8     6   ar
     9     8     9   ar
    10     6     4   ar
    11     9     1   ar
    12     4     5    1
    13     4     2   ar
    14     1     2   ar
    15     2     3    1
