@<TRIPOS>MOLECULE
3hml_PQQ_A_1.pdb
 24 26 0 0 0
SMALL
GASTEIGER

@<TRIPOS>ATOM
      1  N1         4.3010   43.5050    0.5710 N.2   259  PQQ259     -0.3950
      2  C2         4.1030   44.8100    0.3640 C.2   259  PQQ259      0.2108
      3  C2X        4.6790   45.8230    1.2470 C.2   259  PQQ259      0.4168
      4  O2A        4.4460   47.0240    1.0190 O.co2 259  PQQ259     -0.2377
      5  O2B        5.2900   45.4070    2.2470 O.co2 259  PQQ259     -0.2377
      6  C3         3.2460   45.0590   -0.6990 C.2   259  PQQ259      0.0447
      7  C3A        2.8820   43.7840   -1.1460 C.2   259  PQQ259      0.0747
      8  C1A        3.5990   42.8050   -0.3050 C.2   259  PQQ259      0.1373
      9  C4         2.0100   43.2880   -2.2770 C.2   259  PQQ259      0.2393
     10  O4         1.4020   44.0720   -3.0540 O.2   259  PQQ259     -0.2830
     11  C5         1.9080   41.8190   -2.4810 C.2   259  PQQ259      0.2635
     12  O5         1.1890   41.4180   -3.4330 O.2   259  PQQ259     -0.2804
     13  C6A        2.6950   40.9040   -1.5560 C.2   259  PQQ259      0.1755
     14  N6         2.6150   39.5760   -1.6760 N.2   259  PQQ259     -0.3958
     15  C7         3.2660   38.6900   -0.8930 C.2   259  PQQ259      0.1928
     16  C7X        3.0310   37.2530   -1.2430 C.2   259  PQQ259      0.4130
     17  O7A        2.0830   36.9980   -2.0410 O.co2 259  PQQ259     -0.2380
     18  O7B        3.7400   36.3780   -0.7150 O.co2 259  PQQ259     -0.2380
     19  C8         4.0790   39.0790    0.1900 C.3   259  PQQ259      0.0991
     20  C9         4.2490   40.4420    0.4420 C.2   259  PQQ259      0.0698
     21  C9X        5.1520   40.8330    1.5620 C.2   259  PQQ259      0.3844
     22  O9A        6.1930   40.1670    1.7000 O.co2 259  PQQ259     -0.2409
     23  O9B        4.8840   41.7740    2.3180 O.co2 259  PQQ259     -0.2409
     24  C9A        3.5470   41.4250   -0.4560 C.2   259  PQQ259      0.0653
@<TRIPOS>BOND
     1    12    11    2
     2    10     9    2
     3    11     9    1
     4    11    13    1
     5     9     7    1
     6    17    16   ar
     7    14    13    2
     8    14    15    2
     9    13    24    1
    10    16    15    1
    11    16    18   ar
    12     7     6    2
    13     7     8    1
    14    15    19    1
    15     6     2    1
    16    24     8    1
    17    24    20    2
    18     8     1    2
    19    19    20    1
    20     2     1    2
    21     2     3    1
    22    20    21    1
    23     4     3   ar
    24     3     5   ar
    25    21    22   ar
    26    21    23   ar
