@<TRIPOS>MOLECULE
3hmm_855_A_1.pdb
 24 27 0 0 0
SMALL
GASTEIGER

@<TRIPOS>ATOM
      1  C1        10.3020   63.9450    5.4270 C.3   857  855857      0.0664
      2  C2        11.6880   64.0670    4.8800 C.2   857  855857      0.1096
      3  C3        12.0500   63.4210    3.6830 C.2   857  855857      0.0234
      4  C4        13.3770   63.5740    3.2040 C.2   857  855857     -0.0156
      5  C5        14.3050   64.3710    3.9220 C.3   857  855857      0.0977
      6  C6        13.8720   64.9950    5.1220 C.2   857  855857      0.1972
      7  N7        12.5740   64.8380    5.5860 N.2   857  855857     -0.3982
      8  C8        14.7430   65.8590    5.9240 C.1   857  855857      0.1655
      9  N9        15.6620   66.5790    5.2540 N.2   857  855857     -0.3248
     10  C10       16.4740   67.4160    5.9310 C.2   857  855857      0.2030
     11  C12       17.3780   68.5460    3.8100 C.ar  857  855857      0.0759
     12  C17       16.2130   68.4070    2.9780 C.ar  857  855857      0.0373
     13  C16       16.2750   68.8500    1.6470 C.ar  857  855857      0.1002
     14  N15       17.4040   69.4140    1.0990 N.ar  857  855857     -0.2422
     15  C14       18.5140   69.5380    1.9100 C.ar  857  855857      0.1002
     16  C13       18.5400   69.1230    3.2500 C.ar  857  855857      0.0373
     17  C18       16.4010   67.5660    7.3360 C.3   857  855857      0.1446
     18  C19       17.2160   68.4350    8.1520 C.2   857  855857     -0.0109
     19  C20       17.0370   68.4860    9.5570 C.2   857  855857     -0.0036
     20  C21       16.0500   67.6780   10.1650 C.2   857  855857      0.0020
     21  C22       15.2370   66.8210    9.3670 C.2   857  855857      0.0293
     22  C23       15.3920   66.7510    7.9650 C.2   857  855857      0.1333
     23  N24       14.5800   65.9150    7.2720 N.2   857  855857     -0.3418
     24  N5        17.3950   68.1280    5.1530 N.pl3 857  855857     -0.1858
@<TRIPOS>BOND
     1    14    13   ar
     2    14    15   ar
     3    13    12   ar
     4    15    16   ar
     5    12    11   ar
     6     4     3    2
     7     4     5    1
     8    16    11   ar
     9     3     2    1
    10    11    24    1
    11     5     6    1
    12     2     1    1
    13     2     7    2
    14     6     7    2
    15     6     8    1
    16    24    10    1
    17     9     8    2
    18     9    10    2
    19     8    23    2
    20    10    17    1
    21    23    22    2
    22    17    22    1
    23    17    18    1
    24    22    21    1
    25    18    19    2
    26    21    20    2
    27    19    20    1
