@<TRIPOS>MOLECULE
3hmn_ATP_A_1.pdb
 31 33 0 0 0
SMALL
GASTEIGER

@<TRIPOS>ATOM
      1  PG         6.2730  -43.0850  -16.9790 P.3     1  ATP1        0.5373
      2  O1G        5.7390  -42.0140  -17.9010 O.2     1  ATP1       -0.2221
      3  O2G        6.8010  -44.3010  -17.6740 O.3     1  ATP1       -0.1143
      4  O3G        7.1530  -42.6080  -15.8520 O.3     1  ATP1       -0.1143
      5  PB         4.5160  -42.7020  -15.0090 P.3     1  ATP1        0.2277
      6  O1B        3.8930  -43.6670  -14.0190 O.3     1  ATP1       -0.4368
      7  O2B        3.7210  -41.5170  -15.5170 O.2     1  ATP1       -0.5168
      8  O3B        5.0240  -43.5550  -16.2810 O.3     1  ATP1       -0.2258
      9  PA         6.2710  -42.1710  -12.8430 P.3     1  ATP1        0.2189
     10  O1A        7.4100  -41.2000  -12.6130 O.2     1  ATP1       -0.5170
     11  O2A        6.4180  -43.6210  -12.4330 O.3     1  ATP1       -0.4371
     12  O3A        5.9070  -42.1310  -14.4150 O.3     1  ATP1       -0.2700
     13  O5'        4.9450  -41.5740  -12.1420 O.3     1  ATP1       -0.3112
     14  C5'        4.6530  -40.1780  -12.2220 C.3     1  ATP1        0.1813
     15  C4'        3.3340  -39.8800  -11.5190 C.3     1  ATP1        0.1821
     16  O4'        3.2630  -38.4810  -11.2270 O.3     1  ATP1       -0.3135
     17  C3'        2.1140  -40.2270  -12.3670 C.3     1  ATP1        0.2184
     18  O3'        1.2610  -41.1460  -11.6740 O.3     1  ATP1       -0.2174
     19  C2'        1.4120  -38.9050  -12.6260 C.3     1  ATP1        0.2570
     20  O2'       -0.0130  -39.0100  -12.5340 O.3     1  ATP1       -0.2130
     21  C1'        1.9680  -37.9760  -11.5570 C.3     1  ATP1        0.3186
     22  N9         2.0370  -36.5690  -12.0240 N.pl3   1  ATP1       -0.1439
     23  C8         2.6810  -36.1150  -13.1160 C.3     1  ATP1        0.3377
     24  N7         2.5300  -34.7700  -13.2410 N.2     1  ATP1       -0.2095
     25  C5         1.7780  -34.3470  -12.2110 C.2     1  ATP1        0.2526
     26  C6         1.2410  -33.0470  -11.7370 C.2     1  ATP1        0.4393
     27  N6         1.4990  -31.9150  -12.4270 N.pl3   1  ATP1        0.2180
     28  N1         0.4960  -33.0430  -10.6040 N.2     1  ATP1        0.0021
     29  C2         0.2390  -34.1820   -9.9180 C.3     1  ATP1        0.5254
     30  N3         0.6960  -35.3920  -10.2950 N.2     1  ATP1       -0.0055
     31  C4         1.4560  -35.5390  -11.4100 C.2     1  ATP1        0.3518
@<TRIPOS>BOND
     1     2     1    2
     2     3     1    1
     3     1     8    1
     4     1     4    1
     5     8     5    1
     6     7     5    2
     7     5    12    1
     8     5     6    1
     9    12     9    1
    10    24    23    1
    11    24    25    2
    12    23    22    1
    13     9    10    2
    14     9    11    1
    15     9    13    1
    16    19    20    1
    17    19    17    1
    18    19    21    1
    19    27    26    1
    20    17    18    1
    21    17    15    1
    22    14    13    1
    23    14    15    1
    24    25    26    1
    25    25    31    1
    26    22    21    1
    27    22    31    1
    28    26    28    2
    29    21    16    1
    30    15    16    1
    31    31    30    2
    32    28    29    1
    33    30    29    1
