@<TRIPOS>MOLECULE
3hmo_STU_A_1.pdb
 35 42 0 0 0
SMALL
GASTEIGER

@<TRIPOS>ATOM
      1  O4       -37.9990  -13.1420  -11.2830 O.3     1  STU1       -0.3186
      2  C25      -36.7560  -13.0270  -10.6490 C.3     1  STU1        0.2078
      3  C24      -35.7640  -12.0900  -11.3400 C.3     1  STU1        0.0739
      4  C23      -36.4490  -11.4710  -12.5740 C.3     1  STU1        0.1086
      5  C22      -37.0540  -12.5740  -13.4870 C.3     1  STU1        0.1761
      6  C21      -38.0170  -13.4410  -12.6470 C.3     1  STU1        0.1915
      7  C26      -39.4210  -12.9600  -13.0210 C.3     1  STU1        0.0566
      8  N2       -37.9740  -14.8920  -12.8960 N.ar    1  STU1       -0.3054
      9  C18      -37.2940  -15.7700  -12.0520 C.ar    1  STU1        0.0774
     10  C19      -36.5400  -15.5270  -10.8870 C.ar    1  STU1        0.0783
     11  C6       -35.9310  -16.5890  -10.2040 C.ar    1  STU1        0.0293
     12  C7       -36.0860  -17.9110  -10.7100 C.ar    1  STU1        0.0822
     13  C10      -36.8300  -18.1340  -11.8690 C.ar    1  STU1        0.0154
     14  C11      -37.4270  -17.0820  -12.5340 C.ar    1  STU1        0.0173
     15  C12      -38.2430  -17.0040  -13.7320 C.ar    1  STU1        0.0171
     16  C17      -38.5580  -15.6330  -13.9200 C.ar    1  STU1        0.0617
     17  C16      -39.3450  -15.2720  -15.0240 C.ar    1  STU1        0.0172
     18  C15      -39.7770  -16.2830  -15.8780 C.ar    1  STU1        0.0015
     19  C14      -39.4550  -17.6160  -15.6760 C.ar    1  STU1        0.0001
     20  C13      -38.6810  -18.0110  -14.5980 C.ar    1  STU1        0.0015
     21  C9       -36.8130  -19.6120  -12.1550 C.3     1  STU1        0.1650
     22  N1       -36.0150  -20.1960  -11.0800 N.2     1  STU1       -0.1976
     23  C8       -35.6000  -19.2170  -10.2560 C.1     1  STU1        0.1501
     24  O5       -34.9140  -19.3920   -9.2770 O.2     1  STU1       -0.2222
     25  C5       -35.2440  -15.9790   -9.0590 C.ar    1  STU1        0.0180
     26  C20      -35.4880  -14.5810   -9.1290 C.ar    1  STU1        0.0618
     27  C1       -34.9680  -13.7070   -8.1690 C.ar    1  STU1        0.0172
     28  C2       -34.2100  -14.2620   -7.1490 C.ar    1  STU1        0.0015
     29  C3       -33.9690  -15.6260   -7.0780 C.ar    1  STU1        0.0001
     30  C4       -34.4740  -16.5130   -8.0190 C.ar    1  STU1        0.0015
     31  N3       -36.2650  -14.3520  -10.2610 N.ar    1  STU1       -0.3039
     32  O6       -36.0150  -13.2920  -14.2070 O.3     1  STU1       -0.3478
     33  C27      -35.1680  -14.1320  -13.4170 C.3     1  STU1        0.1743
     34  N4       -35.5100  -10.6420  -13.3460 N.3     1  STU1       -0.2152
     35  C28      -36.0310   -9.6830  -14.3290 C.3     1  STU1        0.1075
@<TRIPOS>BOND
     1    18    19   ar
     2    18    17   ar
     3    19    20   ar
     4    17    16   ar
     5    20    15   ar
     6    35    34    1
     7    32     5    1
     8    32    33    1
     9    16    15   ar
    10    16     8   ar
    11    15    14   ar
    12     5     6    1
    13     5     4    1
    14    34     4    1
    15     7     6    1
    16     8     6    1
    17     8     9   ar
    18     6     1    1
    19     4     3    1
    20    14     9   ar
    21    14    13   ar
    22    21    13    1
    23    21    22    1
    24     9    10   ar
    25    13    12   ar
    26     3     2    1
    27     1     2    1
    28    22    23    2
    29    10    31   ar
    30    10    11   ar
    31    12    23    1
    32    12    11   ar
    33     2    31    1
    34    31    26   ar
    35    23    24    2
    36    11    25   ar
    37    26    25   ar
    38    26    27   ar
    39    25    30   ar
    40    27    28   ar
    41    30    29   ar
    42    28    29   ar
