@<TRIPOS>MOLECULE
3hmp_CX4_A_1.pdb
 16 18 0 0 0
SMALL
GASTEIGER

@<TRIPOS>ATOM
      1  CAF      -33.9980  -15.4210   -5.6650 C.3     1  CX41        0.0044
      2  CAG      -34.9880  -16.5700   -5.8940 C.3     1  CX41        0.0044
      3  CAP      -34.6760  -15.5890   -7.0260 C.3     1  CX41        0.0512
      4  CAH      -33.7660  -16.1340   -8.1280 C.3     1  CX41        0.2510
      5  NAK      -34.5750  -16.9000   -9.0850 N.pl3   1  CX41       -0.0316
      6  C6       -35.1530  -16.3300  -10.1480 C.2     1  CX41        0.3593
      7  C5       -35.9620  -17.0620  -11.0250 C.2     1  CX41        0.0990
      8  CAD      -36.2030  -18.4320  -10.8580 C.2     1  CX41       -0.0115
      9  CAB      -37.0090  -19.1190  -11.7690 C.3     1  CX41        0.0642
     10  CAL      -37.5780  -18.4260  -12.8410 C.2     1  CX41        0.0413
     11 CLAA      -38.5940  -19.2230  -13.9780 Cl      1  CX41       -0.0865
     12  CAE      -37.3420  -17.0630  -13.0100 C.2     1  CX41        0.0264
     13  C4       -36.5340  -16.3780  -12.1070 C.2     1  CX41        0.0880
     14  N3       -36.3040  -15.0660  -12.2780 N.2     1  CX41       -0.2184
     15  C2       -35.5360  -14.4130  -11.4240 C.3     1  CX41        0.3919
     16  N1       -34.9700  -15.0170  -10.3850 N.2     1  CX41       -0.0331
@<TRIPOS>BOND
     1    11    10    1
     2    12    10    2
     3    12    13    1
     4    10     9    1
     5    14    13    2
     6    14    15    1
     7    13     7    1
     8     9     8    1
     9    15    16    1
    10     7     8    2
    11     7     6    1
    12    16     6    2
    13     6     5    1
    14     5     4    1
    15     4     3    1
    16     3     2    1
    17     3     1    1
    18     2     1    1
