@<TRIPOS>MOLECULE
3hmq_NAD_A_1.pdb
 44 48 0 0 0
SMALL
GASTEIGER

@<TRIPOS>ATOM
      1  PA       -14.3260   44.0830   17.0100 P.3   300  NAD300      0.2189
      2  O1A      -15.5330   44.1430   17.9010 O.3   300  NAD300     -0.4371
      3  O2A      -14.1090   42.9520   16.0620 O.2   300  NAD300     -0.5170
      4  O5B      -14.2000   45.4680   16.2440 O.3   300  NAD300     -0.3112
      5  C5B      -13.0930   45.6930   15.3470 C.3   300  NAD300      0.1813
      6  C4B      -13.5560   45.5590   13.9040 C.3   300  NAD300      0.1821
      7  O4B      -14.4700   46.6210   13.5980 O.3   300  NAD300     -0.3135
      8  C3B      -12.3990   45.6850   12.9150 C.3   300  NAD300      0.2184
      9  O3B      -11.8390   44.4190   12.5370 O.3   300  NAD300     -0.2174
     10  C2B      -13.0480   46.3620   11.7320 C.3   300  NAD300      0.2570
     11  O2B      -13.6010   45.3370   10.8830 O.3   300  NAD300     -0.2130
     12  C1B      -14.1500   47.2010   12.3250 C.3   300  NAD300      0.3186
     13  N9A      -13.7890   48.6280   12.5300 N.pl3 300  NAD300     -0.1439
     14  C8A      -12.7980   49.1210   13.3100 C.3   300  NAD300      0.3377
     15  N7A      -12.8290   50.4750   13.2570 N.2   300  NAD300     -0.2095
     16  C5A      -13.8310   50.8270   12.4290 C.2   300  NAD300      0.2526
     17  C6A      -14.3410   52.0490   11.9940 C.2   300  NAD300      0.4393
     18  N6A      -13.8030   53.2380   12.4080 N.pl3 300  NAD300      0.2180
     19  N1A      -15.4000   52.0470   11.1450 N.2   300  NAD300      0.0021
     20  C2A      -15.9550   50.8840   10.7370 C.3   300  NAD300      0.5254
     21  N3A      -15.5060   49.6940   11.1580 N.2   300  NAD300     -0.0055
     22  C4A      -14.4430   49.6460   12.0000 C.2   300  NAD300      0.3518
     23  O3       -12.9860   43.9790   17.9110 O.3   300  NAD300     -0.2703
     24  PN       -12.3530   45.0470   18.9240 P.3   300  NAD300      0.2189
     25  O1N      -10.9090   45.2250   18.4730 O.2   300  NAD300     -0.5170
     26  O2N      -13.2060   46.2500   19.1690 O.3   300  NAD300     -0.4371
     27  O5D      -12.2130   44.1840   20.2530 O.3   300  NAD300     -0.3112
     28  C5D      -13.3960   43.8330   20.9610 C.3   300  NAD300      0.1813
     29  C4D      -13.0360   43.0790   22.2260 C.3   300  NAD300      0.1799
     30  O4D      -12.0730   43.8150   23.0040 O.3   300  NAD300     -0.3327
     31  C3D      -14.2930   42.9200   23.0740 C.3   300  NAD300      0.2158
     32  O3D      -14.2760   41.7110   23.8280 O.3   300  NAD300     -0.2175
     33  C2D      -14.1690   44.1050   23.9850 C.3   300  NAD300      0.2309
     34  O2D      -14.9500   44.0190   25.1840 O.3   300  NAD300     -0.2158
     35  C1D      -12.6620   44.1790   24.2520 C.3   300  NAD300      0.2263
     36  N1N      -12.4560   45.5770   24.7020 N.pl3 300  NAD300     -0.2787
     37  C2N      -12.1780   45.6770   26.0820 C.3   300  NAD300      0.1244
     38  C3N      -11.4470   46.7250   26.6070 C.2   300  NAD300      0.0544
     39  C7N      -11.2740   46.8470   28.0980 C.2   300  NAD300      0.2818
     40  O7N      -11.7320   46.0010   28.8680 O.2   300  NAD300     -0.2670
     41  N7N      -10.6240   47.9110   28.5420 N.am  300  NAD300     -0.0839
     42  C4N      -10.8620   47.6410   25.7490 C.2   300  NAD300      0.0033
     43  C5N      -11.0350   47.5160   24.3800 C.2   300  NAD300      0.0157
     44  C6N      -11.7600   46.4600   23.8530 C.2   300  NAD300      0.0633
@<TRIPOS>BOND
     1    20    19    1
     2    20    21    1
     3    11    10    1
     4    19    17    2
     5    21    22    2
     6    10    12    1
     7    10     8    1
     8    17    18    1
     9    17    16    1
    10    22    16    1
    11    22    13    1
    12    12    13    1
    13    12     7    1
    14    16    15    2
    15    13    14    1
    16     9     8    1
    17     8     6    1
    18    15    14    1
    19     7     6    1
    20     6     5    1
    21     5     4    1
    22     3     1    2
    23     4     1    1
    24     1     2    1
    25     1    23    1
    26    23    24    1
    27    25    24    2
    28    24    26    1
    29    24    27    1
    30    27    28    1
    31    28    29    1
    32    29    30    1
    33    29    31    1
    34    30    35    1
    35    31    32    1
    36    31    33    1
    37    44    43    2
    38    44    36    1
    39    33    35    1
    40    33    34    1
    41    35    36    1
    42    43    42    1
    43    36    37    1
    44    42    38    2
    45    37    38    1
    46    38    39    1
    47    39    41   am
    48    39    40    2
