@<TRIPOS>MOLECULE
3hmv_HBT_A_1.pdb
 25 27 0 0 0
SMALL
GASTEIGER

@<TRIPOS>ATOM
      1  O2       -12.7450  -24.1940   -2.0670 O.2   530  HBT530     -0.1261
      2  N2       -12.8960  -24.9860   -2.9700 N.pl3 530  HBT530      0.0578
      3  O3       -12.0970  -25.2350   -3.8460 O.2   530  HBT530     -0.1261
      4  C13      -14.2260  -25.5790   -3.0080 C.ar  530  HBT530      0.1473
      5  C12      -15.2070  -24.8730   -2.3150 C.ar  530  HBT530      0.0242
      6  C11      -16.4960  -25.3380   -2.3460 C.ar  530  HBT530      0.0017
      7  C10      -16.7920  -26.4970   -3.0600 C.ar  530  HBT530      0.0002
      8  C9       -15.7900  -27.1810   -3.7540 C.ar  530  HBT530      0.0063
      9  C8       -14.4690  -26.7130   -3.7470 C.ar  530  HBT530      0.0778
     10  C7       -13.4050  -27.4540   -4.4580 C.2   530  HBT530      0.2711
     11  O1       -12.3460  -27.6900   -3.9010 O.2   530  HBT530     -0.2679
     12  N1       -13.6740  -27.8790   -5.7220 N.am  530  HBT530     -0.1687
     13  C6       -12.8290  -28.6540   -6.5280 C.ar  530  HBT530      0.1069
     14  C14      -13.0270  -28.8700   -7.9140 C.ar  530  HBT530      0.0743
     15  C15      -14.0970  -28.2810   -8.6440 C.2   530  HBT530      0.2856
     16  N3       -13.9610  -28.0210   -9.9490 N.am  530  HBT530     -0.0837
     17  O4       -15.1430  -27.9790   -8.1010 O.2   530  HBT530     -0.2666
     18  S1       -11.4630  -29.4540   -5.9120 S.2   530  HBT530     -0.0750
     19  C5       -11.1590  -30.1250   -7.4240 C.ar  530  HBT530      0.0047
     20  C4        -9.9550  -31.0290   -7.5870 C.3   530  HBT530      0.0327
     21  C3        -9.5630  -31.2310   -9.0790 C.3   530  HBT530      0.0052
     22  C1        -8.6830  -32.4940   -9.1930 C.3   530  HBT530      0.0004
     23  C2       -10.8030  -31.3360   -9.9880 C.3   530  HBT530      0.0050
     24  C17      -11.8520  -30.2130   -9.8360 C.3   530  HBT530      0.0268
     25  C16      -12.0250  -29.7480   -8.3960 C.ar  530  HBT530     -0.0139
@<TRIPOS>BOND
     1    23    24    1
     2    23    21    1
     3    16    15   am
     4    24    25    1
     5    22    21    1
     6    21    20    1
     7    15    17    2
     8    15    14    1
     9    25    14   ar
    10    25    19   ar
    11    14    13   ar
    12    20    19    1
    13    19    18   ar
    14    13    18   ar
    15    13    12    1
    16    12    10   am
    17    10    11    2
    18    10     9    1
    19     3     2    2
    20     8     9   ar
    21     8     7   ar
    22     9     4   ar
    23     7     6   ar
    24     4     2    1
    25     4     5   ar
    26     2     1    2
    27     6     5   ar
