@<TRIPOS>MOLECULE
3hmy_SIA_A_1.pdb
 20 20 0 0 0
SMALL
GASTEIGER

@<TRIPOS>ATOM
      1  C1        57.5070   41.7690   78.7290 C.2     5  SIA5        0.3914
      2  C2        55.9550   41.5570   78.7070 C.3     5  SIA5        0.2203
      3  C3        55.5170   40.9700   77.3280 C.3     5  SIA5        0.0760
      4  C4        55.9310   39.4740   77.2230 C.3     5  SIA5        0.1773
      5  C5        55.3800   38.5860   78.3570 C.3     5  SIA5        0.1552
      6  C6        55.9640   39.1950   79.6680 C.3     5  SIA5        0.1710
      7  C7        55.4610   38.4010   80.8830 C.3     5  SIA5        0.2134
      8  C8        56.1570   38.7650   82.2390 C.3     5  SIA5        0.2173
      9  C9        56.0230   40.1840   82.7950 C.3     5  SIA5        0.2175
     10  C10       54.9660   36.0980   78.2660 C.2     5  SIA5        0.2420
     11  C11       55.1420   34.8620   77.5010 C.3     5  SIA5        0.0964
     12  N5        55.8230   37.1220   78.2470 N.am    5  SIA5       -0.2020
     13  O1A       58.1200   42.1580   77.7530 O.co2   5  SIA5       -0.2430
     14  O1B       58.0920   41.5330   79.7530 O.co2   5  SIA5       -0.2430
     15  O4        55.4910   39.0770   75.9560 O.3     5  SIA5       -0.2211
     16  O6        55.5660   40.5950   79.7740 O.3     5  SIA5       -0.3429
     17  O7        54.0680   38.5590   81.0270 O.3     5  SIA5       -0.2176
     18  O8        55.6160   37.9270   83.2760 O.3     5  SIA5       -0.2175
     19  O9        56.4950   40.2810   84.1230 O.3     5  SIA5       -0.2175
     20  O10       53.9760   36.1990   78.9410 O.2     5  SIA5       -0.2733
@<TRIPOS>BOND
     1    15     4    1
     2     4     3    1
     3     4     5    1
     4     3     2    1
     5    11    10    1
     6    13     1   ar
     7    12    10   am
     8    12     5    1
     9    10    20    2
    10     5     6    1
    11     2     1    1
    12     2    16    1
    13     1    14   ar
    14     6    16    1
    15     6     7    1
    16     7    17    1
    17     7     8    1
    18     8     9    1
    19     8    18    1
    20     9    19    1
