@<TRIPOS>MOLECULE
3hmz_FMN_A_1.pdb
 31 33 0 0 0
SMALL
GASTEIGER

@<TRIPOS>ATOM
      1  N1        50.1880   41.0160   -0.7330 N.2   500  FMN500     -0.2887
      2  C2        49.6230   41.8270    0.2220 C.1   500  FMN500      0.3669
      3  O2        48.9190   42.7710   -0.1360 O.2   500  FMN500     -0.1744
      4  N3        49.8350   41.5420    1.5580 N.2   500  FMN500     -0.2300
      5  C4        50.6140   40.5110    1.9840 C.1   500  FMN500      0.2513
      6  O4        50.7740   40.3420    3.2220 O.2   500  FMN500     -0.2057
      7  C4A       51.2020   39.7040    0.9970 C.2   500  FMN500      0.2703
      8  N5        51.9920   38.6230    1.3440 N.2   500  FMN500     -0.3882
      9  C5A       52.4220   37.6930    0.4090 C.2   500  FMN500      0.1277
     10  C6        53.0650   36.5090    0.8020 C.3   500  FMN500      0.0820
     11  C7        53.5170   35.5860   -0.1350 C.2   500  FMN500     -0.0408
     12  C7M       54.1840   34.3190    0.3010 C.3   500  FMN500      0.0265
     13  C8        53.3270   35.8510   -1.4940 C.2   500  FMN500     -0.0280
     14  C8M       53.8090   34.8820   -2.5550 C.3   500  FMN500      0.0304
     15  C9        52.6800   37.0210   -1.8660 C.2   500  FMN500      0.0123
     16  C9A       52.2150   37.9630   -0.9610 C.2   500  FMN500      0.0793
     17  N10       51.5500   39.1320   -1.3210 N.pl3 500  FMN500     -0.2545
     18  C10       50.9870   39.9550   -0.3590 C.2   500  FMN500      0.2449
     19  C1'       51.1920   39.4290   -2.7520 C.3   500  FMN500      0.1336
     20  C2'       49.7810   39.0010   -3.1780 C.3   500  FMN500      0.2048
     21  O2'       49.4480   37.6860   -2.7030 O.3   500  FMN500     -0.2185
     22  C3'       49.7690   39.0610   -4.7010 C.3   500  FMN500      0.2165
     23  O3'       49.9230   40.4180   -5.1080 O.3   500  FMN500     -0.2175
     24  C4'       48.5590   38.3580   -5.3480 C.3   500  FMN500      0.2147
     25  O4'       48.9140   38.0910   -6.7010 O.3   500  FMN500     -0.2176
     26  C5'       47.2730   39.1590   -5.3050 C.3   500  FMN500      0.1892
     27  O5'       46.2800   38.4070   -6.0040 O.3   500  FMN500     -0.2674
     28  P         44.9050   39.1000   -6.4400 P.3   500  FMN500      0.5327
     29  O1P       44.2550   38.0410   -7.3130 O.2   500  FMN500     -0.2224
     30  O2P       44.1040   39.4710   -5.2240 O.3   500  FMN500     -0.1145
     31  O3P       45.2390   40.3480   -7.2150 O.3   500  FMN500     -0.1145
@<TRIPOS>BOND
     1    29    28    2
     2    31    28    1
     3    25    24    1
     4    28    27    1
     5    28    30    1
     6    27    26    1
     7    24    26    1
     8    24    22    1
     9    23    22    1
    10    22    20    1
    11    20    19    1
    12    20    21    1
    13    19    17    1
    14    14    13    1
    15    15    13    1
    16    15    16    2
    17    13    11    2
    18    17    16    1
    19    17    18    1
    20    16     9    1
    21     1    18    2
    22     1     2    2
    23    18     7    1
    24     3     2    2
    25    11    12    1
    26    11    10    1
    27     2     4    2
    28     9    10    1
    29     9     8    2
    30     7     8    2
    31     7     5    1
    32     4     5    2
    33     5     6    2
