@<TRIPOS>MOLECULE
3hn1_GLA_A_1.pdb
 12 12 0 0 0
SMALL
GASTEIGER

@<TRIPOS>ATOM
      1  C1        10.8550   22.7990   76.7250 C.3     7  GLA7        0.3024
      2  C2        12.2920   22.7500   76.0530 C.3     7  GLA7        0.2434
      3  C3        12.1850   22.1680   74.6230 C.3     7  GLA7        0.2199
      4  C4        11.1650   23.0810   73.8340 C.3     7  GLA7        0.2144
      5  C5         9.7610   23.1680   74.5110 C.3     7  GLA7        0.1836
      6  C6         8.8700   21.8970   74.4890 C.3     7  GLA7        0.2142
      7  O1        10.9070   23.3440   78.0360 O.3     7  GLA7       -0.1869
      8  O2        12.8220   24.0670   75.9610 O.3     7  GLA7       -0.2148
      9  O3        11.6870   20.8070   74.7260 O.3     7  GLA7       -0.2174
     10  O4        10.9870   22.6360   72.4990 O.3     7  GLA7       -0.2176
     11  O5         9.9240   23.6150   75.9210 O.3     7  GLA7       -0.3236
     12  O6         8.3230   21.6480   73.1970 O.3     7  GLA7       -0.2176
@<TRIPOS>BOND
     1    10     4    1
     2    12     6    1
     3     4     5    1
     4     4     3    1
     5     6     5    1
     6     5    11    1
     7     3     9    1
     8     3     2    1
     9    11     1    1
    10     8     2    1
    11     2     1    1
    12     1     7    1
