@<TRIPOS>MOLECULE
3hn1_SIA_A_1.pdb
 20 20 0 0 0
SMALL
GASTEIGER

@<TRIPOS>ATOM
      1  C1        23.3720   42.0110   79.0520 C.2     5  SIA5        0.3914
      2  C2        21.9400   41.5120   78.7760 C.3     5  SIA5        0.2203
      3  C3        21.7860   40.7250   77.4460 C.3     5  SIA5        0.0760
      4  C4        22.3130   39.2840   77.6160 C.3     5  SIA5        0.1773
      5  C5        21.6770   38.4990   78.8040 C.3     5  SIA5        0.1552
      6  C6        22.0380   39.3280   80.0710 C.3     5  SIA5        0.1710
      7  C7        21.4320   38.6820   81.3310 C.3     5  SIA5        0.2134
      8  C8        22.5570   38.4750   82.3850 C.3     5  SIA5        0.2173
      9  C9        23.1490   39.7800   82.9500 C.3     5  SIA5        0.2175
     10  C10       21.4130   36.0640   78.7600 C.2     5  SIA5        0.2420
     11  C11       21.6690   35.0100   77.7290 C.3     5  SIA5        0.0964
     12  N5        22.2230   37.0990   78.9780 N.am    5  SIA5       -0.2020
     13  O1A       24.3030   41.8000   78.2830 O.co2   5  SIA5       -0.2430
     14  O1B       23.5460   42.6240   80.0750 O.co2   5  SIA5       -0.2430
     15  O4        22.0960   38.7090   76.3560 O.3     5  SIA5       -0.2211
     16  O6        21.5100   40.6630   79.8980 O.3     5  SIA5       -0.3429
     17  O7        20.4650   39.5450   81.9060 O.3     5  SIA5       -0.2176
     18  O8        22.0940   37.8210   83.5920 O.3     5  SIA5       -0.2175
     19  O9        24.1460   40.3100   82.1240 O.3     5  SIA5       -0.2175
     20  O10       20.4250   35.9580   79.4410 O.2     5  SIA5       -0.2733
@<TRIPOS>BOND
     1    15     4    1
     2     3     4    1
     3     3     2    1
     4     4     5    1
     5    11    10    1
     6    13     1   ar
     7    10    12   am
     8    10    20    2
     9     2     1    1
    10     2    16    1
    11     5    12    1
    12     5     6    1
    13     1    14   ar
    14    16     6    1
    15     6     7    1
    16     7    17    1
    17     7     8    1
    18    19     9    1
    19     8     9    1
    20     8    18    1
