@<TRIPOS>MOLECULE
3hn3_BMA_E_1.pdb
 11 11 0 0 0
SMALL
GASTEIGER

@<TRIPOS>ATOM
      1  C1        84.9380   94.5290   79.5220 C.3   653  BMA653      0.1777
      2  C2        84.2180   94.8570   80.8200 C.3   653  BMA653      0.2141
      3  C3        84.4270   96.3110   81.2180 C.3   653  BMA653      0.2173
      4  C4        85.9200   96.6030   81.2730 C.3   653  BMA653      0.2142
      5  C5        86.5830   96.1800   79.9780 C.3   653  BMA653      0.1810
      6  C6        88.0930   96.3580   80.0710 C.3   653  BMA653      0.2141
      7  O2        84.7340   94.0310   81.8830 O.3   653  BMA653     -0.2176
      8  O3        83.8700   96.4620   82.5210 O.3   653  BMA653     -0.2175
      9  O4        86.1580   97.9930   81.5090 O.3   653  BMA653     -0.2176
     10  O5        86.3150   94.7980   79.7040 O.3   653  BMA653     -0.3481
     11  O6        88.5910   96.1470   78.7550 O.3   653  BMA653     -0.2176
@<TRIPOS>BOND
     1    11     6    1
     2     1    10    1
     3     1     2    1
     4    10     5    1
     5     5     6    1
     6     5     4    1
     7     2     3    1
     8     2     7    1
     9     3     4    1
    10     3     8    1
    11     4     9    1
