@<TRIPOS>MOLECULE
3hn3_MAN_A_1.pdb
 11 11 0 0 0
SMALL
GASTEIGER

@<TRIPOS>ATOM
      1  C1        59.9810   99.2250  118.0500 C.3   657  MAN657      0.1777
      2  C2        60.1190   99.4910  116.5600 C.3   657  MAN657      0.2141
      3  C3        60.8940   98.3410  115.9190 C.3   657  MAN657      0.2173
      4  C4        62.2560   98.2350  116.5870 C.3   657  MAN657      0.2142
      5  C5        62.0550   98.0330  118.0920 C.3   657  MAN657      0.1810
      6  C6        63.3860   98.0250  118.8370 C.3   657  MAN657      0.2141
      7  O2        60.7950  100.7260  116.5540 O.3   657  MAN657     -0.2176
      8  O3        61.0180   98.5050  114.5200 O.3   657  MAN657     -0.2175
      9  O4        62.9450   97.1470  116.0080 O.3   657  MAN657     -0.2176
     10  O5        61.2620   99.0740  118.6410 O.3   657  MAN657     -0.3481
     11  O6        63.9620   99.3080  118.7540 O.3   657  MAN657     -0.2176
@<TRIPOS>BOND
     1     8     3    1
     2     3     2    1
     3     3     4    1
     4     9     4    1
     5     7     2    1
     6     2     1    1
     7     4     5    1
     8     1    10    1
     9     5    10    1
    10     5     6    1
    11    11     6    1
