@<TRIPOS>MOLECULE
3hna_SAH_A_1.pdb
 26 28 0 0 0
SMALL
GASTEIGER

@<TRIPOS>ATOM
      1  N         41.1790    5.5060    2.4390 N.3   101  SAH101     -0.1208
      2  CA        40.2730    4.3320    2.6570 C.3   101  SAH101      0.1952
      3  CB        39.2580    4.6550    3.7490 C.3   101  SAH101      0.0422
      4  CG        39.7210    4.1990    5.1300 C.3   101  SAH101      0.0597
      5  SD        39.7780    2.3980    5.2640 S.3   101  SAH101     -0.1375
      6  C         39.6010    3.9140    1.3570 C.2   101  SAH101      0.3819
      7  O         38.7880    2.9810    1.3650 O.co2 101  SAH101     -0.2441
      8  OXT       39.8670    4.4910    0.3050 O.co2 101  SAH101     -0.2441
      9  C5'       41.3930    2.2400    6.0690 C.3   101  SAH101      0.0899
     10  C4'       42.5300    2.0340    5.0780 C.3   101  SAH101      0.1630
     11  O4'       42.8490    3.2960    4.5030 O.3   101  SAH101     -0.3153
     12  C3'       43.8320    1.5890    5.7420 C.3   101  SAH101      0.2168
     13  O3'       43.9680    0.1960    5.9470 O.3   101  SAH101     -0.2175
     14  C2'       44.8730    2.1380    4.7780 C.3   101  SAH101      0.2569
     15  O2'       44.9550    1.3670    3.5950 O.3   101  SAH101     -0.2130
     16  C1'       44.2560    3.4770    4.4220 C.3   101  SAH101      0.3185
     17  N9        44.6160    4.5170    5.4060 N.pl3 101  SAH101     -0.1439
     18  C8        43.7840    5.1360    6.3180 C.3   101  SAH101      0.3377
     19  N7        44.4860    6.0190    7.0430 N.2   101  SAH101     -0.2095
     20  C5        45.7810    5.9940    6.6180 C.2   101  SAH101      0.2526
     21  C6        46.9200    6.7020    7.0110 C.2   101  SAH101      0.4393
     22  N6        46.9290    7.6250    7.9770 N.pl3 101  SAH101      0.2180
     23  N1        48.1020    6.4000    6.3690 N.2   101  SAH101      0.0021
     24  C2        48.1420    5.4660    5.3610 C.3   101  SAH101      0.5254
     25  N3        47.0320    4.7690    4.9660 N.2   101  SAH101     -0.0055
     26  C4        45.8560    5.0580    5.5870 C.2   101  SAH101      0.3518
@<TRIPOS>BOND
     1     8     6   ar
     2     6     7   ar
     3     6     2    1
     4     1     2    1
     5     2     3    1
     6    15    14    1
     7     3     4    1
     8    16    11    1
     9    16    14    1
    10    16    17    1
    11    11    10    1
    12    14    12    1
    13    25    24    1
    14    25    26    2
    15    10    12    1
    16    10     9    1
    17     4     5    1
    18     5     9    1
    19    24    23    1
    20    17    26    1
    21    17    18    1
    22    26    20    1
    23    12    13    1
    24    18    19    1
    25    23    21    2
    26    20    21    1
    27    20    19    2
    28    21    22    1
