@<TRIPOS>MOLECULE
3hnb_768_M_1.pdb
 31 34 0 0 0
SMALL
GASTEIGER

@<TRIPOS>ATOM
      1  O1        -5.2350    5.3340   28.5120 O.3     1  7681       -0.2173
      2  C16       -3.9490    5.1060   29.0890 C.3     1  7681        0.2150
      3  C17       -3.8450    3.6510   29.5730 C.3     1  7681        0.2398
      4  O2        -2.5180    3.1310   29.4730 O.3     1  7681       -0.4718
      5  C18       -1.8110    2.5440   30.4990 C.ar    1  7681        0.1492
      6  C19       -2.1260    1.2640   30.9490 C.ar    1  7681        0.0386
      7  C20       -1.3660    0.6830   31.9690 C.ar    1  7681        0.0146
      8  C21       -0.2750    1.3720   32.5290 C.ar    1  7681        0.0587
      9 CL1         0.5470    0.7770   33.6380 Cl      1  7681       -0.0822
     10  C22        0.0910    2.6510   32.1000 C.ar    1  7681        0.0258
     11  C23       -0.6210    3.2430   31.0870 C.ar    1  7681        0.0924
     12 CL2        -0.2090    4.6100   30.6660 Cl      1  7681       -0.0791
     13  C15       -2.9740    5.4610   27.9600 C.3     1  7681        0.1303
     14  N3        -2.8770    6.9220   28.0110 N.pl3   1  7681       -0.2746
     15  C14       -3.4780    7.8020   27.2950 C.3     1  7681        0.2477
     16  N4        -4.3080    7.3540   26.3140 N.3     1  7681       -0.0883
     17  C13       -2.1850    7.6060   28.9070 C.ar    1  7681        0.0636
     18  C12       -1.3350    7.2150   29.9240 C.ar    1  7681        0.0158
     19  C11       -0.6910    8.1750   30.6950 C.ar    1  7681        0.0014
     20  C10       -0.8900    9.5400   30.4460 C.ar    1  7681        0.0014
     21  C9        -1.7360    9.9850   29.4260 C.ar    1  7681        0.0158
     22  C8        -2.3930    9.0520   28.6320 C.ar    1  7681        0.0636
     23  N2        -3.2550    9.1050   27.6220 N.pl3   1  7681       -0.2759
     24  C7        -3.7540   10.3220   27.0010 C.3     1  7681        0.1109
     25  C6        -4.7130   10.0880   25.8440 C.3     1  7681        0.0939
     26  N1        -6.0500   10.1050   26.3990 N.3     1  7681       -0.2712
     27  C5        -6.3960    9.3020   27.5640 C.3     1  7681        0.0721
     28  C4        -6.3980   10.3750   28.6510 C.3     1  7681        0.0174
     29  C3        -7.2940   11.5670   28.2960 C.3     1  7681        0.0029
     30  C2        -7.1750   12.0720   26.8410 C.3     1  7681        0.0174
     31  C1        -7.1190   10.9310   25.8270 C.3     1  7681        0.0721
@<TRIPOS>BOND
     1    31    26    1
     2    31    30    1
     3    25    26    1
     4    25    24    1
     5    16    15    1
     6    26    27    1
     7    30    29    1
     8    24    23    1
     9    15    23    1
    10    15    14    1
    11    27    28    1
    12    23    22    1
    13    13    14    1
    14    13     2    1
    15    14    17    1
    16    29    28    1
    17     1     2    1
    18    22    17   ar
    19    22    21   ar
    20    17    18   ar
    21     2     3    1
    22    21    20   ar
    23     4     3    1
    24     4     5    1
    25    18    19   ar
    26    20    19   ar
    27     5     6   ar
    28     5    11   ar
    29    12    11    1
    30     6     7   ar
    31    11    10   ar
    32     7     8   ar
    33    10     8   ar
    34     8     9    1
