@<TRIPOS>MOLECULE
3hnc_TTP_A_1.pdb
 29 30 0 0 0
SMALL
GASTEIGER

@<TRIPOS>ATOM
      1  PA        -5.8190   -3.8010  -36.2780 P.3   802  TTP802      0.2189
      2  O1A       -5.6600   -3.9110  -34.7850 O.3   802  TTP802     -0.4371
      3  O2A       -4.5210   -3.4330  -36.9550 O.2   802  TTP802     -0.5170
      4  O3A       -6.4230   -5.1460  -36.9290 O.3   802  TTP802     -0.2700
      5  PB        -5.5450   -6.2980  -37.6670 P.3   802  TTP802      0.2277
      6  O1B       -6.0350   -7.6430  -37.1740 O.3   802  TTP802     -0.4368
      7  O2B       -4.0600   -6.1520  -37.3920 O.2   802  TTP802     -0.5168
      8  O3B       -5.9060   -6.1150  -39.2350 O.3   802  TTP802     -0.2258
      9  PG        -4.8450   -5.6220  -40.3610 P.3   802  TTP802      0.5373
     10  O1G       -3.9050   -6.7390  -40.7540 O.3   802  TTP802     -0.1143
     11  O2G       -5.6540   -5.2230  -41.5710 O.2   802  TTP802     -0.2221
     12  O3G       -3.9880   -4.4970  -39.8400 O.3   802  TTP802     -0.1143
     13  O5'       -6.9640   -2.7510  -36.6630 O.3   802  TTP802     -0.3112
     14  C5'       -6.8030   -2.0150  -37.8750 C.3   802  TTP802      0.1812
     15  C4'       -7.7140   -0.7970  -37.9270 C.3   802  TTP802      0.1773
     16  O4'       -9.0720   -1.2210  -37.8210 O.3   802  TTP802     -0.3339
     17  C3'       -7.4430    0.1920  -36.7960 C.3   802  TTP802      0.1857
     18  O3'       -7.3610    1.4980  -37.3690 O.3   802  TTP802     -0.2203
     19  C2'       -8.6590    0.0920  -35.8970 C.3   802  TTP802      0.0874
     20  C1'       -9.7400   -0.5200  -36.7800 C.3   802  TTP802      0.2090
     21  N1       -10.5820   -1.4680  -36.0550 N.am  802  TTP802     -0.1794
     22  C2       -11.9430   -1.1280  -35.8120 C.1   802  TTP802      0.2844
     23  O2       -12.4030   -0.0360  -36.2070 O.2   802  TTP802     -0.1918
     24  N3       -12.7600   -1.9650  -35.1530 N.2   802  TTP802     -0.2455
     25  C4       -12.3150   -3.1480  -34.7100 C.1   802  TTP802      0.2134
     26  O4       -13.0880   -3.9090  -34.0950 O.2   802  TTP802     -0.2088
     27  C5       -10.9040   -3.5350  -34.9470 C.2   802  TTP802      0.0891
     28  C5M      -10.3910   -4.8600  -34.4670 C.3   802  TTP802      0.0462
     29  C6       -10.0820   -2.6500  -35.6350 C.2   802  TTP802      0.0877
@<TRIPOS>BOND
     1    11     9    2
     2    10     9    1
     3     9    12    1
     4     9     8    1
     5     8     5    1
     6    15    14    1
     7    15    16    1
     8    15    17    1
     9    14    13    1
    10    16    20    1
    11     5     7    2
    12     5     6    1
    13     5     4    1
    14    18    17    1
    15     3     1    2
    16     4     1    1
    17    17    19    1
    18    20    21    1
    19    20    19    1
    20    13     1    1
    21     1     2    1
    22    23    22    2
    23    21    22   am
    24    21    29    1
    25    22    24    2
    26    29    27    2
    27    24    25    2
    28    27    25    1
    29    27    28    1
    30    25    26    2
