@<TRIPOS>MOLECULE
3hnd_GDP_A_1.pdb
 28 30 0 0 0
SMALL
GASTEIGER

@<TRIPOS>ATOM
      1  PB        -3.9100  -30.9900   19.6920 P.3   803  GDP803      0.5373
      2  O1B       -2.6870  -31.6620   20.2830 O.3   803  GDP803     -0.1143
      3  O2B       -3.3590  -30.0810   18.6300 O.2   803  GDP803     -0.2221
      4  O3B       -4.9310  -31.9500   19.1340 O.3   803  GDP803     -0.1143
      5  O3A       -4.7330  -30.0960   20.7570 O.3   803  GDP803     -0.2261
      6  PA        -4.6970  -30.1690   22.3850 P.3   803  GDP803      0.2231
      7  O1A       -5.9920  -29.5860   22.9360 O.3   803  GDP803     -0.4370
      8  O2A       -4.5320  -31.5650   22.9090 O.2   803  GDP803     -0.5169
      9  O5'       -3.4300  -29.2820   22.8090 O.3   803  GDP803     -0.3111
     10  C5'       -3.5400  -28.5000   23.9940 C.3   803  GDP803      0.1813
     11  C4'       -3.4720  -26.9980   23.7120 C.3   803  GDP803      0.1799
     12  O4'       -4.2230  -26.5670   22.5640 O.3   803  GDP803     -0.3326
     13  C3'       -4.0370  -26.2040   24.8740 C.3   803  GDP803      0.2158
     14  O3'       -3.0420  -26.0010   25.8790 O.3   803  GDP803     -0.2175
     15  C2'       -4.5550  -24.9240   24.2350 C.3   803  GDP803      0.2310
     16  O2'       -3.6130  -23.8570   24.3970 O.3   803  GDP803     -0.2158
     17  C1'       -4.7880  -25.2640   22.7590 C.3   803  GDP803      0.2293
     18  N9        -6.2470  -25.3540   22.4650 N.pl3 803  GDP803     -0.2354
     19  C8        -7.0190  -26.4260   22.7790 C.3   803  GDP803      0.2246
     20  N7        -8.3120  -26.2390   22.3980 N.2   803  GDP803     -0.2322
     21  C5        -8.3920  -25.0190   21.8310 C.2   803  GDP803      0.2182
     22  C6        -9.4770  -24.2080   21.2330 C.1   803  GDP803      0.2372
     23  O6       -10.6330  -24.6700   21.1740 O.2   803  GDP803     -0.2069
     24  N1        -9.1860  -22.9840   20.7600 N.2   803  GDP803     -0.2485
     25  C2        -7.9370  -22.4790   20.8080 C.1   803  GDP803      0.2531
     26  N2        -7.7410  -21.2410   20.2890 N.pl3 803  GDP803     -0.0226
     27  N3        -6.8810  -23.1680   21.3480 N.2   803  GDP803     -0.3074
     28  C4        -7.0360  -24.4260   21.8690 C.2   803  GDP803      0.2300
@<TRIPOS>BOND
     1     3     1    2
     2     4     1    1
     3     1     2    1
     4     1     5    1
     5    26    25    1
     6     5     6    1
     7    24    25    2
     8    24    22    2
     9    25    27    2
    10    23    22    2
    11    22    21    1
    12    27    28    2
    13    21    28    1
    14    21    20    2
    15    28    18    1
    16     6     9    1
    17     6     8    2
    18     6     7    1
    19    20    19    1
    20    18    17    1
    21    18    19    1
    22    12    17    1
    23    12    11    1
    24    17    15    1
    25     9    10    1
    26    11    10    1
    27    11    13    1
    28    15    16    1
    29    15    13    1
    30    13    14    1
