@<TRIPOS>MOLECULE
3hnd_TTP_A_1.pdb
 29 30 0 0 0
SMALL
GASTEIGER

@<TRIPOS>ATOM
      1  PA        -8.4670    3.5530   36.2960 P.3   802  TTP802      0.2189
      2  O1A       -8.5850    3.8610   34.8270 O.2   802  TTP802     -0.5170
      3  O2A       -7.0740    3.0740   36.6790 O.3   802  TTP802     -0.4371
      4  O3A       -8.9460    4.8580   37.0910 O.3   802  TTP802     -0.2700
      5  PB        -8.0080    6.1160   37.4470 P.3   802  TTP802      0.2277
      6  O1B       -8.8730    7.1140   38.1800 O.3   802  TTP802     -0.4368
      7  O2B       -7.3230    6.7500   36.2590 O.2   802  TTP802     -0.5168
      8  O3B       -6.8760    5.5480   38.4170 O.3   802  TTP802     -0.2258
      9  PG        -7.1400    5.3230   39.9910 P.3   802  TTP802      0.5373
     10  O1G       -6.3040    6.3370   40.7290 O.3   802  TTP802     -0.1143
     11  O2G       -8.5840    5.4450   40.4700 O.3   802  TTP802     -0.1143
     12  O3G       -6.5900    3.9140   40.1670 O.2   802  TTP802     -0.2221
     13  O5'       -9.6000    2.5000   36.7180 O.3   802  TTP802     -0.3112
     14  C5'       -9.2020    1.3960   37.5120 C.3   802  TTP802      0.1812
     15  C4'      -10.3740    0.4690   37.7370 C.3   802  TTP802      0.1773
     16  O4'      -11.5900    1.1880   37.5550 O.3   802  TTP802     -0.3339
     17  C3'      -10.3340   -0.6440   36.7200 C.3   802  TTP802      0.1857
     18  O3'      -10.3750   -1.8730   37.4510 O.3   802  TTP802     -0.2203
     19  C2'      -11.5750   -0.4540   35.8510 C.3   802  TTP802      0.0874
     20  C1'      -12.4450    0.4980   36.6460 C.3   802  TTP802      0.2090
     21  N1       -13.1500    1.4750   35.8320 N.am  802  TTP802     -0.1794
     22  C2       -14.4660    1.1710   35.4740 C.1   802  TTP802      0.2844
     23  O2       -14.9140    0.0820   35.8630 O.2   802  TTP802     -0.1918
     24  N3       -15.2290    1.9920   34.7310 N.2   802  TTP802     -0.2455
     25  C4       -14.7320    3.1690   34.3310 C.1   802  TTP802      0.2134
     26  O4       -15.4200    3.9650   33.6500 O.2   802  TTP802     -0.2088
     27  C5       -13.3430    3.5110   34.7100 C.2   802  TTP802      0.0891
     28  C5M      -12.7570    4.8080   34.2600 C.3   802  TTP802      0.0462
     29  C6       -12.5950    2.6250   35.4660 C.2   802  TTP802      0.0877
@<TRIPOS>BOND
     1    26    25    2
     2    28    27    1
     3    25    27    1
     4    25    24    2
     5    27    29    2
     6    24    22    2
     7     2     1    2
     8    29    21    1
     9    22    21   am
    10    22    23    2
    11    21    20    1
    12    19    20    1
    13    19    17    1
    14     7     5    2
    15     1     3    1
    16     1    13    1
    17     1     4    1
    18    20    16    1
    19    13    14    1
    20    17    18    1
    21    17    15    1
    22     4     5    1
    23     5     6    1
    24     5     8    1
    25    14    15    1
    26    16    15    1
    27     8     9    1
    28     9    12    2
    29     9    11    1
    30     9    10    1
