@<TRIPOS>MOLECULE
3hne_ATP_B_1.pdb
 31 33 0 0 0
SMALL
GASTEIGER

@<TRIPOS>ATOM
      1  PG       -32.5900  -37.5910  -62.4130 P.3   807  ATP807      0.5373
      2  O1G      -32.7720  -36.9520  -63.7830 O.2   807  ATP807     -0.2221
      3  O2G      -32.3960  -39.0790  -62.6900 O.3   807  ATP807     -0.1143
      4  O3G      -33.5110  -37.2000  -61.2400 O.3   807  ATP807     -0.1143
      5  PB       -30.5080  -35.6820  -61.2340 P.3   807  ATP807      0.2277
      6  O1B      -30.5630  -35.5870  -59.7040 O.3   807  ATP807     -0.4368
      7  O2B      -29.1310  -35.7340  -61.8670 O.2   807  ATP807     -0.5168
      8  O3B      -31.1300  -37.0780  -61.8580 O.3   807  ATP807     -0.2258
      9  PA       -30.4210  -32.9160  -61.5820 P.3   807  ATP807      0.2189
     10  O1A      -28.9550  -33.2060  -61.7550 O.3   807  ATP807     -0.4371
     11  O2A      -30.8360  -31.8500  -62.5800 O.2   807  ATP807     -0.5170
     12  O3A      -31.1970  -34.3300  -61.8250 O.3   807  ATP807     -0.2700
     13  O5'      -30.6660  -32.5720  -59.9910 O.3   807  ATP807     -0.3112
     14  C5'      -31.4450  -33.3160  -59.0510 C.3   807  ATP807      0.1813
     15  C4'      -32.7840  -32.6440  -58.5990 C.3   807  ATP807      0.1821
     16  O4'      -33.6710  -32.0650  -59.6080 O.3   807  ATP807     -0.3135
     17  C3'      -33.7390  -33.6160  -57.8870 C.3   807  ATP807      0.2184
     18  O3'      -34.5470  -32.8960  -56.9590 O.3   807  ATP807     -0.2174
     19  C2'      -34.6950  -34.1260  -58.9510 C.3   807  ATP807      0.2570
     20  O2'      -35.9170  -34.6620  -58.4580 O.3   807  ATP807     -0.2130
     21  C1'      -34.9140  -32.8400  -59.7320 C.3   807  ATP807      0.3186
     22  N9       -35.2770  -33.2090  -61.1380 N.pl3 807  ATP807     -0.1439
     23  C8       -34.4730  -33.8060  -62.0460 C.3   807  ATP807      0.3377
     24  N7       -35.1190  -33.9670  -63.2270 N.2   807  ATP807     -0.2095
     25  C5       -36.3730  -33.4910  -63.0920 C.2   807  ATP807      0.2526
     26  C6       -37.5860  -33.3540  -63.9470 C.2   807  ATP807      0.4393
     27  N6       -37.6470  -33.7770  -65.2290 N.pl3 807  ATP807      0.2180
     28  N1       -38.6690  -32.7880  -63.3900 N.2   807  ATP807      0.0021
     29  C2       -38.6630  -32.3580  -62.1210 C.3   807  ATP807      0.5254
     30  N3       -37.6160  -32.4400  -61.2900 N.2   807  ATP807     -0.0055
     31  C4       -36.4630  -32.9960  -61.7070 C.2   807  ATP807      0.3518
@<TRIPOS>BOND
     1    27    26    1
     2    26    28    2
     3    26    25    1
     4     2     1    2
     5    28    29    1
     6    24    25    2
     7    24    23    1
     8    25    31    1
     9     3     1    1
    10    11     9    2
    11     1     8    1
    12     1     4    1
    13    29    30    1
    14    23    22    1
    15     7     5    2
    16     8     5    1
    17    12     9    1
    18    12     5    1
    19    10     9    1
    20    31    30    2
    21    31    22    1
    22     9    13    1
    23     5     6    1
    24    22    21    1
    25    13    14    1
    26    21    16    1
    27    21    19    1
    28    16    15    1
    29    14    15    1
    30    19    20    1
    31    19    17    1
    32    15    17    1
    33    17    18    1
