@<TRIPOS>MOLECULE
3hne_TTP_A_1.pdb
 29 30 0 0 0
SMALL
GASTEIGER

@<TRIPOS>ATOM
      1  PA        -6.3230   -3.9700  -36.5670 P.3   806  TTP806      0.2189
      2  O1A       -6.1790   -3.8720  -35.0640 O.3   806  TTP806     -0.4371
      3  O2A       -5.0090   -3.7290  -37.2650 O.2   806  TTP806     -0.5170
      4  O3A       -6.9090   -5.3580  -37.0510 O.3   806  TTP806     -0.2700
      5  PB        -5.9050   -6.4820  -37.5560 P.3   806  TTP806      0.2277
      6  O1B       -6.2500   -7.8190  -36.9560 O.3   806  TTP806     -0.4368
      7  O2B       -4.4370   -6.2040  -37.2600 O.2   806  TTP806     -0.5168
      8  O3B       -6.3660   -6.5050  -39.0850 O.3   806  TTP806     -0.2258
      9  PG        -5.3990   -5.9490  -40.2300 P.3   806  TTP806      0.5373
     10  O1G       -4.6560   -7.0970  -40.8960 O.3   806  TTP806     -0.1143
     11  O2G       -6.2830   -5.2320  -41.2320 O.2   806  TTP806     -0.2221
     12  O3G       -4.3740   -5.0090  -39.6180 O.3   806  TTP806     -0.1143
     13  O5'       -7.4660   -2.9570  -37.0610 O.3   806  TTP806     -0.3112
     14  C5'       -7.1180   -1.8720  -37.9160 C.3   806  TTP806      0.1812
     15  C4'       -8.1660   -0.7620  -37.9740 C.3   806  TTP806      0.1773
     16  O4'       -9.4780   -1.3080  -37.8770 O.3   806  TTP806     -0.3339
     17  C3'       -8.0490    0.2840  -36.8680 C.3   806  TTP806      0.1857
     18  O3'       -8.2950    1.5750  -37.4440 O.3   806  TTP806     -0.2203
     19  C2'       -9.1730   -0.0380  -35.9090 C.3   806  TTP806      0.0874
     20  C1'      -10.2140   -0.6530  -36.8360 C.3   806  TTP806      0.2090
     21  N1       -11.1050   -1.6050  -36.1750 N.am  806  TTP806     -0.1794
     22  C2       -12.4920   -1.3040  -36.1350 C.1   806  TTP806      0.2844
     23  O2       -12.9350   -0.2360  -36.6370 O.2   806  TTP806     -0.1918
     24  N3       -13.3620   -2.1390  -35.5610 N.2   806  TTP806     -0.2455
     25  C4       -12.9410   -3.2770  -35.0160 C.1   806  TTP806      0.2134
     26  O4       -13.7770   -4.0400  -34.4680 O.2   806  TTP806     -0.2088
     27  C5       -11.4860   -3.6040  -35.0610 C.2   806  TTP806      0.0891
     28  C5M      -10.9650   -4.8740  -34.4600 C.3   806  TTP806      0.0462
     29  C6       -10.6080   -2.7320  -35.6590 C.2   806  TTP806      0.0877
@<TRIPOS>BOND
     1    11     9    2
     2    10     9    1
     3     9    12    1
     4     9     8    1
     5     8     5    1
     6    15    14    1
     7    15    16    1
     8    15    17    1
     9    14    13    1
    10    16    20    1
    11     5     7    2
    12     5     4    1
    13     5     6    1
    14    18    17    1
    15     3     1    2
    16    13     1    1
    17     4     1    1
    18    17    19    1
    19    20    21    1
    20    20    19    1
    21    23    22    2
    22     1     2    1
    23    21    22   am
    24    21    29    1
    25    22    24    2
    26    29    27    2
    27    24    25    2
    28    27    25    1
    29    27    28    1
    30    25    26    2
