@<TRIPOS>MOLECULE
3hnf_DTP_B_1.pdb
 30 32 0 0 0
SMALL
GASTEIGER

@<TRIPOS>ATOM
      1  PG       -30.1080  -33.9650  -61.5290 P.3   805  DTP805      0.5373
      2  O1G      -29.0290  -34.2110  -60.4910 O.3   805  DTP805     -0.1143
      3  O2G      -29.6040  -33.7530  -62.9460 O.2   805  DTP805     -0.2221
      4  O3G      -31.2680  -34.9240  -61.4180 O.3   805  DTP805     -0.1143
      5  PB       -32.2000  -32.0310  -61.2080 P.3   805  DTP805      0.2277
      6  O1B      -33.0590  -33.1220  -61.7870 O.3   805  DTP805     -0.4368
      7  O2B      -32.1730  -30.7110  -61.9220 O.2   805  DTP805     -0.5168
      8  O3B      -30.6660  -32.5070  -61.1180 O.3   805  DTP805     -0.2258
      9  PA       -32.4970  -32.9120  -58.4350 P.3   805  DTP805      0.2189
     10  O1A      -31.2520  -32.6860  -57.6000 O.3   805  DTP805     -0.4371
     11  O2A      -32.8100  -34.2740  -59.0130 O.2   805  DTP805     -0.5170
     12  O3A      -32.5980  -31.8120  -59.6420 O.3   805  DTP805     -0.2700
     13  O5'      -33.7300  -32.5450  -57.4720 O.3   805  DTP805     -0.3112
     14  C5'      -33.8910  -31.2420  -56.9140 C.3   805  DTP805      0.1813
     15  C4'      -35.3730  -30.8850  -56.9060 C.3   805  DTP805      0.1795
     16  O4'      -35.8050  -30.6580  -58.2480 O.3   805  DTP805     -0.3155
     17  C3'      -36.2340  -32.0190  -56.3710 C.3   805  DTP805      0.1883
     18  O3'      -37.1030  -31.5060  -55.3580 O.3   805  DTP805     -0.2202
     19  C2'      -37.0560  -32.5190  -57.5480 C.3   805  DTP805      0.1151
     20  C1'      -37.0500  -31.3270  -58.4900 C.3   805  DTP805      0.2873
     21  N9       -37.2380  -31.7050  -59.9190 N.pl3 805  DTP805     -0.1460
     22  C8       -36.2970  -32.1850  -60.7480 C.3   805  DTP805      0.3377
     23  N7       -36.7990  -32.4170  -61.9870 N.2   805  DTP805     -0.2095
     24  C5       -38.0960  -32.0730  -61.9650 C.2   805  DTP805      0.2526
     25  C6       -39.2220  -32.0640  -62.9350 C.2   805  DTP805      0.4393
     26  N6       -39.0290  -32.4860  -64.2070 N.pl3 805  DTP805      0.2180
     27  N1       -40.4350  -31.6200  -62.5100 N.2   805  DTP805      0.0021
     28  C2       -40.6310  -31.1960  -61.2450 C.3   805  DTP805      0.5254
     29  N3       -39.6500  -31.1780  -60.3180 N.2   805  DTP805     -0.0055
     30  C4       -38.3840  -31.5970  -60.6030 C.2   805  DTP805      0.3518
@<TRIPOS>BOND
     1    26    25    1
     2     3     1    2
     3    25    27    2
     4    25    24    1
     5    27    28    1
     6    23    24    2
     7    23    22    1
     8    24    30    1
     9     7     5    2
    10     6     5    1
    11     1     4    1
    12     1     8    1
    13     1     2    1
    14    28    29    1
    15     5     8    1
    16     5    12    1
    17    22    21    1
    18    30    29    2
    19    30    21    1
    20    21    20    1
    21    12     9    1
    22    11     9    2
    23    20    16    1
    24    20    19    1
    25     9    10    1
    26     9    13    1
    27    16    15    1
    28    19    17    1
    29    13    14    1
    30    14    15    1
    31    15    17    1
    32    17    18    1
