@<TRIPOS>MOLECULE
3hnf_TTP_A_1.pdb
 29 30 0 0 0
SMALL
GASTEIGER

@<TRIPOS>ATOM
      1  PA        -5.4330   -3.8890  -36.3890 P.3   804  TTP804      0.2189
      2  O1A       -6.1280   -3.8100  -35.0590 O.3   804  TTP804     -0.4371
      3  O2A       -3.9440   -3.9080  -36.1620 O.2   804  TTP804     -0.5170
      4  O3A       -5.8930   -5.2190  -37.2030 O.3   804  TTP804     -0.2700
      5  PB        -4.8780   -6.3640  -37.7930 P.3   804  TTP804      0.2277
      6  O1B       -5.2250   -7.7310  -37.2490 O.3   804  TTP804     -0.4368
      7  O2B       -3.4290   -6.0810  -37.4900 O.2   804  TTP804     -0.5168
      8  O3B       -5.1920   -6.3670  -39.3870 O.3   804  TTP804     -0.2258
      9  PG        -4.2350   -5.6980  -40.5010 P.3   804  TTP804      0.5373
     10  O1G       -2.8030   -6.1590  -40.3400 O.3   804  TTP804     -0.1143
     11  O2G       -4.7930   -6.0990  -41.8380 O.2   804  TTP804     -0.2221
     12  O3G       -4.2340   -4.2010  -40.3730 O.3   804  TTP804     -0.1143
     13  O5'       -5.7840   -2.6040  -37.3130 O.3   804  TTP804     -0.3112
     14  C5'       -6.9740   -2.5470  -38.0990 C.3   804  TTP804      0.1812
     15  C4'       -7.7180   -1.2060  -38.0380 C.3   804  TTP804      0.1773
     16  O4'       -9.1270   -1.4460  -37.8770 O.3   804  TTP804     -0.3339
     17  C3'       -7.3240   -0.3320  -36.8710 C.3   804  TTP804      0.1857
     18  O3'       -7.4050    1.0180  -37.3180 O.3   804  TTP804     -0.2203
     19  C2'       -8.3580   -0.6420  -35.7880 C.3   804  TTP804      0.0874
     20  C1'       -9.5900   -1.1430  -36.5460 C.3   804  TTP804      0.2090
     21  N1       -10.3670   -2.2590  -35.9190 N.am  804  TTP804     -0.1794
     22  C2       -11.7170   -2.0280  -35.4720 C.1   804  TTP804      0.2844
     23  O2       -12.2430   -0.8970  -35.5810 O.2   804  TTP804     -0.1918
     24  N3       -12.5020   -2.9690  -34.9150 N.2   804  TTP804     -0.2455
     25  C4       -12.0500   -4.1970  -34.7600 C.1   804  TTP804      0.2134
     26  O4       -12.8050   -5.0450  -34.2380 O.2   804  TTP804     -0.2088
     27  C5       -10.6570   -4.4830  -35.2190 C.2   804  TTP804      0.0891
     28  C5M      -10.0910   -5.8590  -35.0690 C.3   804  TTP804      0.0462
     29  C6        -9.8590   -3.4910  -35.7890 C.2   804  TTP804      0.0877
@<TRIPOS>BOND
     1    11     9    2
     2     9    12    1
     3     9    10    1
     4     9     8    1
     5     8     5    1
     6    14    15    1
     7    14    13    1
     8    15    16    1
     9    15    17    1
    10    16    20    1
    11     5     7    2
    12     5     6    1
    13     5     4    1
    14    18    17    1
    15    13     1    1
    16     4     1    1
    17    17    19    1
    18    20    21    1
    19    20    19    1
    20     1     3    2
    21     1     2    1
    22    21    29    1
    23    21    22   am
    24    29    27    2
    25    23    22    2
    26    22    24    2
    27    27    28    1
    28    27    25    1
    29    24    25    2
    30    25    26    2
