@<TRIPOS>MOLECULE
3hng_8ST_A_1.pdb
 24 26 0 0 0
SMALL
GASTEIGER

@<TRIPOS>ATOM
      1 CL16        5.5950   23.5560   28.5450 Cl    2001  8ST2001    -0.0822
      2  C13        5.8570   22.5350   29.9480 C.ar  2001  8ST2001     0.0578
      3  C12        7.1320   22.4270   30.4910 C.ar  2001  8ST2001     0.0127
      4  C11        7.2760   21.5260   31.6030 C.ar  2001  8ST2001     0.0175
      5  C14        4.6440   21.8010   30.4440 C.ar  2001  8ST2001     0.0127
      6  C15        4.8000   20.9790   31.5490 C.ar  2001  8ST2001     0.0175
      7  C10        6.1240   20.7310   31.9900 C.ar  2001  8ST2001     0.0737
      8  N9         6.1910   19.9470   33.1760 N.am  2001  8ST2001    -0.1754
      9  C7         5.6500   18.6140   33.1600 C.2   2001  8ST2001     0.2702
     10  O8         5.1610   18.1740   32.1770 O.2   2001  8ST2001    -0.2680
     11  C2         5.7740   17.9040   34.5140 C.ar  2001  8ST2001     0.0702
     12  C3         5.4180   16.5660   34.7250 C.ar  2001  8ST2001     0.0701
     13  C4         5.3230   15.9940   36.0290 C.ar  2001  8ST2001     0.0162
     14  C5         5.6340   16.8190   37.1680 C.ar  2001  8ST2001     0.0013
     15  C6         5.9390   18.2230   36.9840 C.ar  2001  8ST2001     0.0002
     16  C1         5.9890   18.7690   35.6840 C.ar  2001  8ST2001     0.0059
     17  N17        5.0380   15.6590   33.7080 N.pl3 2001  8ST2001    -0.2327
     18  C18        4.6180   14.3170   33.3600 C.3   2001  8ST2001     0.1386
     19  C19        3.2400   13.9760   33.9390 C.ar  2001  8ST2001     0.0024
     20  C24        2.8250   12.6960   33.9880 C.ar  2001  8ST2001     0.0181
     21  C23        1.4910   12.4340   34.4180 C.ar  2001  8ST2001     0.0986
     22  N22        0.5460   13.4920   34.4960 N.ar  2001  8ST2001    -0.2423
     23  C21        0.9730   14.8240   34.3800 C.ar  2001  8ST2001     0.0986
     24  C20        2.2690   15.0700   33.9830 C.ar  2001  8ST2001     0.0181
@<TRIPOS>BOND
     1     1     2    1
     2     2     5   ar
     3     2     3   ar
     4     5     6   ar
     5     3     4   ar
     6     6     7   ar
     7     4     7   ar
     8     7     8    1
     9    10     9    2
    10     9     8   am
    11     9    11    1
    12    18    17    1
    13    18    19    1
    14    17    12    1
    15    19    24   ar
    16    19    20   ar
    17    24    23   ar
    18    20    21   ar
    19    23    22   ar
    20    21    22   ar
    21    11    12   ar
    22    11    16   ar
    23    12    13   ar
    24    16    15   ar
    25    13    14   ar
    26    15    14   ar
