@<TRIPOS>MOLECULE
3hnh_AHQ_A_1.pdb
 24 26 0 0 0
SMALL
GASTEIGER

@<TRIPOS>ATOM
      1  O5        -3.3640  -40.2330  -19.2810 O.2   259  AHQ259     -0.2822
      2  C5        -4.0550  -40.7370  -18.4080 C.2   259  AHQ259      0.2436
      3  C4        -4.1280  -42.0960  -18.2940 C.2   259  AHQ259      0.2177
      4  O4        -3.4800  -42.7500  -19.0910 O.2   259  AHQ259     -0.2875
      5  C3A       -4.9270  -42.6610  -17.3000 C.3   259  AHQ259      0.1037
      6  C3        -5.1620  -44.1260  -16.9910 C.3   259  AHQ259      0.0494
      7  C2        -6.3800  -44.0240  -16.1000 C.3   259  AHQ259      0.2057
      8  C2X       -6.3220  -45.0960  -15.0160 C.2   259  AHQ259      0.3866
      9  O2B       -6.6750  -44.8260  -13.8890 O.co2 259  AHQ259     -0.2435
     10  O2A       -5.9400  -46.1850  -15.3840 O.co2 259  AHQ259     -0.2435
     11  N1        -6.3130  -42.6620  -15.5660 N.2   259  AHQ259     -0.2686
     12  C1A       -5.6560  -41.8650  -16.4090 C.2   259  AHQ259      0.0450
     13  C9A       -5.5770  -40.4680  -16.5480 C.3   259  AHQ259      0.0899
     14  C6A       -4.7620  -39.9380  -17.5440 C.2   259  AHQ259      0.1013
     15  N6        -4.6180  -38.5920  -17.7410 N.2   259  AHQ259     -0.2615
     16  C7        -5.2890  -37.6020  -16.9080 C.3   259  AHQ259      0.2059
     17  C7X       -5.4820  -36.3100  -17.7270 C.2   259  AHQ259      0.3866
     18  O7B       -4.7940  -36.2050  -18.7530 O.co2 259  AHQ259     -0.2435
     19  O7A       -6.2550  -35.4510  -17.2790 O.co2 259  AHQ259     -0.2435
     20  C8        -6.5950  -38.1850  -16.4030 C.3   259  AHQ259      0.0479
     21  C9        -6.2780  -39.4470  -15.6310 C.3   259  AHQ259      0.1167
     22  C9X       -7.4950  -39.9500  -14.8630 C.2   259  AHQ259      0.3651
     23  O9B       -8.5580  -39.3770  -15.0220 O.co2 259  AHQ259     -0.2456
     24  O9A       -7.2880  -40.8290  -14.0350 O.co2 259  AHQ259     -0.2456
@<TRIPOS>BOND
     1     1     2    2
     2     4     3    2
     3    18    17   ar
     4     2     3    1
     5     2    14    1
     6     3     5    1
     7    15    14    2
     8    15    16    1
     9    17    19   ar
    10    17    16    1
    11    14    13    1
    12     5     6    1
    13     5    12    1
    14     6     7    1
    15    16    20    1
    16    13    12    1
    17    13    21    1
    18    12    11    2
    19    20    21    1
    20     7    11    1
    21     7     8    1
    22    21    22    1
    23    10     8   ar
    24    23    22   ar
    25     8     9   ar
    26    22    24   ar
