@<TRIPOS>MOLECULE
3hni_HEM_A_1.pdb
 43 50 0 0 0
SMALL
GASTEIGER

@<TRIPOS>ATOM
      1  CHA      -23.5320   26.5100    4.9050 C.2   150  HEM150      0.0000
      2  CHB      -21.9550   22.3800    2.9900 C.2   150  HEM150      0.0000
      3  CHC      -22.0820   24.1960   -1.4920 C.2   150  HEM150      0.0000
      4  CHD      -23.3740   28.4910    0.4190 C.2   150  HEM150      0.0000
      5  C1A      -23.0890   25.2070    4.7990 C.2   150  HEM150      0.0000
      6  C2A      -22.9400   24.2430    5.8770 C.2   150  HEM150      0.0000
      7  C3A      -22.4880   23.1070    5.3320 C.2   150  HEM150      0.0000
      8  C4A      -22.3610   23.3140    3.9030 C.2   150  HEM150      0.0000
      9  CMA      -22.1760   21.7630    6.0340 C.3   150  HEM150      0.0000
     10  CAA      -23.2460   24.5150    7.3620 C.3   150  HEM150      0.0000
     11  CBA      -24.7630   24.6200    7.5950 C.3   150  HEM150      0.0000
     12  CGA      -25.2130   23.7780    8.7850 C.2   150  HEM150      0.0000
     13  O1A      -26.3930   23.3020    8.7850 O.co2 150  HEM150      0.0000
     14  O2A      -24.3970   23.5730    9.7380 O.co2 150  HEM150      0.0000
     15  C1B      -21.8820   22.4920    1.6220 C.ar  150  HEM150      0.0000
     16  C2B      -21.4800   21.4250    0.7080 C.ar  150  HEM150      0.0000
     17  C3B      -21.5140   21.9220   -0.5550 C.ar  150  HEM150      0.0000
     18  C4B      -21.9220   23.3170   -0.4540 C.ar  150  HEM150      0.0000
     19  CMB      -21.0900   19.9900    1.1420 C.3   150  HEM150      0.0000
     20  CAB      -21.1770   21.1770   -1.8780 C.2   150  HEM150      0.0000
     21  CBB      -21.6640   19.9700   -2.2080 C.2   150  HEM150      0.0000
     22  C1C      -22.4540   25.5230   -1.3600 C.2   150  HEM150      0.0000
     23  C2C      -22.6890   26.4450   -2.4580 C.2   150  HEM150      0.0000
     24  C3C      -23.0530   27.6310   -1.9170 C.2   150  HEM150      0.0000
     25  C4C      -23.0540   27.4900   -0.4750 C.2   150  HEM150      0.0000
     26  CMC      -22.5320   26.0670   -3.9570 C.3   150  HEM150      0.0000
     27  CAC      -23.4260   28.9630   -2.6350 C.2   150  HEM150      0.0000
     28  CBC      -23.3640   29.1060   -3.9670 C.2   150  HEM150      0.0000
     29  C1D      -23.5410   28.3750    1.7790 C.ar  150  HEM150      0.0000
     30  C2D      -23.9320   29.4390    2.6630 C.ar  150  HEM150      0.0000
     31  C3D      -23.9980   28.8170    4.0600 C.ar  150  HEM150      0.0000
     32  C4D      -23.6240   27.4340    3.8850 C.ar  150  HEM150      0.0000
     33  CMD      -24.2530   30.8980    2.3070 C.3   150  HEM150      0.0000
     34  CAD      -24.3590   29.5350    5.3710 C.3   150  HEM150      0.0000
     35  CBD      -25.8250   29.3680    5.7270 C.3   150  HEM150      0.0000
     36  CGD      -25.9070   29.3940    7.2360 C.2   150  HEM150      0.0000
     37  O1D      -25.7530   30.4970    7.8430 O.co2 150  HEM150      0.0000
     38  O2D      -26.1020   28.2910    7.8250 O.co2 150  HEM150      0.0000
     39  NA       -22.7220   24.5970    3.6070 N.2   150  HEM150      0.0000
     40  NB       -22.1290   23.6300    0.8870 N.ar  150  HEM150      0.0000
     41  NC       -22.6830   26.1970   -0.1730 N.2   150  HEM150      0.0000
     42  ND       -23.3690   27.2140    2.5310 N.ar  150  HEM150      0.0000
     43 FE        -22.7740   25.3910    1.6990 Fe    150  HEM150      0.0000
@<TRIPOS>BOND
     1    28    27    2
     2    26    23    1
     3    27    24    1
     4    23    24    2
     5    23    22    1
     6    21    20    2
     7    24    25    1
     8    20    17    1
     9     3    22    2
    10     3    18    1
    11    22    41    1
    12    17    18   ar
    13    17    16   ar
    14    25    41    2
    15    25     4    1
    16    18    40   ar
    17    41    43    1
    18     4    29    2
    19    16    19    1
    20    16    15   ar
    21    40    15   ar
    22    40    43    1
    23    15     2    1
    24    43    42    1
    25    43    39    1
    26    29    42   ar
    27    29    30   ar
    28    33    30    1
    29    42    32   ar
    30    30    31   ar
    31     2     8    2
    32    39     8    1
    33    39     5    2
    34    32    31   ar
    35    32     1    2
    36     8     7    1
    37    31    34    1
    38     5     1    1
    39     5     6    1
    40     7     6    2
    41     7     9    1
    42    34    35    1
    43    35    36    1
    44     6    10    1
    45    36    38   ar
    46    36    37   ar
    47    10    11    1
    48    11    12    1
    49    12    13   ar
    50    12    14   ar
