@<TRIPOS>MOLECULE
3hnj_HEM_A_1.pdb
 43 50 0 0 0
SMALL
GASTEIGER

@<TRIPOS>ATOM
      1  CHA       11.2450    8.8610   14.2560 C.2   150  HEM150      0.0000
      2  CHB        8.3580    6.8030   17.5900 C.2   150  HEM150      0.0000
      3  CHC        9.9290    2.4000   16.3960 C.2   150  HEM150      0.0000
      4  CHD       12.9200    4.3840   13.1330 C.2   150  HEM150      0.0000
      5  C1A       10.3050    8.7170   15.2620 C.2   150  HEM150      0.0000
      6  C2A        9.5080    9.7580   15.8940 C.2   150  HEM150      0.0000
      7  C3A        8.7240    9.1690   16.8180 C.2   150  HEM150      0.0000
      8  C4A        8.9760    7.7440   16.7930 C.2   150  HEM150      0.0000
      9  CMA        7.7010    9.8450   17.7600 C.3   150  HEM150      0.0000
     10  CAA        9.5630   11.2840   15.5860 C.3   150  HEM150      0.0000
     11  CBA        9.5390   11.5520   14.0750 C.3   150  HEM150      0.0000
     12  CGA        8.2800   12.2730   13.6470 C.2   150  HEM150      0.0000
     13  O1A        7.2090   11.6140   13.5570 O.co2 150  HEM150      0.0000
     14  O2A        8.3560   13.5100   13.3830 O.co2 150  HEM150      0.0000
     15  C1B        8.4970    5.4320   17.5450 C.ar  150  HEM150      0.0000
     16  C2B        7.7580    4.4480   18.3270 C.ar  150  HEM150      0.0000
     17  C3B        8.1950    3.2250   17.9800 C.ar  150  HEM150      0.0000
     18  C4B        9.2270    3.4060   16.9950 C.ar  150  HEM150      0.0000
     19  CMB        6.6630    4.8070   19.3440 C.3   150  HEM150      0.0000
     20  CAB        7.7750    1.8190   18.4840 C.2   150  HEM150      0.0000
     21  CBB        6.5250    1.5150   18.8760 C.2   150  HEM150      0.0000
     22  C1C       10.8550    2.5660   15.4030 C.2   150  HEM150      0.0000
     23  C2C       11.5040    1.4890   14.7160 C.2   150  HEM150      0.0000
     24  C3C       12.3240    2.0210   13.8040 C.2   150  HEM150      0.0000
     25  C4C       12.2250    3.4640   13.9010 C.2   150  HEM150      0.0000
     26  CMC       11.2540   -0.0030   15.0120 C.3   150  HEM150      0.0000
     27  CAC       13.2240    1.2440   12.8070 C.2   150  HEM150      0.0000
     28  CBC       13.1070   -0.0790   12.5910 C.2   150  HEM150      0.0000
     29  C1D       12.7810    5.7600   13.1440 C.ar  150  HEM150      0.0000
     30  C2D       13.5490    6.6940   12.3270 C.ar  150  HEM150      0.0000
     31  C3D       13.0210    8.0800   12.6780 C.ar  150  HEM150      0.0000
     32  C4D       11.9830    7.8610   13.6620 C.ar  150  HEM150      0.0000
     33  CMD       14.6700    6.3690   11.3140 C.3   150  HEM150      0.0000
     34  CAD       13.4910    9.4240   12.0940 C.3   150  HEM150      0.0000
     35  CBD       12.5960    9.7370   10.8990 C.3   150  HEM150      0.0000
     36  CGD       12.7070   11.1910   10.4930 C.2   150  HEM150      0.0000
     37  O1D       13.4450   11.9710   11.1540 O.co2 150  HEM150      0.0000
     38  O2D       12.0460   11.5730    9.4940 O.co2 150  HEM150      0.0000
     39  NA         9.9480    7.5080   15.8320 N.2   150  HEM150      0.0000
     40  NB         9.3850    4.7490   16.7550 N.ar  150  HEM150      0.0000
     41  NC        11.3210    3.7620   14.8970 N.2   150  HEM150      0.0000
     42  ND        11.8700    6.4850   13.9100 N.ar  150  HEM150      0.0000
     43 FE         10.5170    5.6660   15.3470 Fe    150  HEM150      0.0000
@<TRIPOS>BOND
     1    38    36   ar
     2    36    35    1
     3    36    37   ar
     4    35    34    1
     5    33    30    1
     6    34    31    1
     7    30    31   ar
     8    30    29   ar
     9    28    27    2
    10    31    32   ar
    11    27    24    1
    12     4    29    2
    13     4    25    1
    14    29    42   ar
    15    14    12   ar
    16    13    12   ar
    17    12    11    1
    18    32    42   ar
    19    32     1    2
    20    24    25    1
    21    24    23    2
    22    25    41    2
    23    42    43    1
    24    11    10    1
    25     1     5    1
    26    23    26    1
    27    23    22    1
    28    41    43    1
    29    41    22    1
    30     5    39    2
    31     5     6    1
    32    43    39    1
    33    43    40    1
    34    22     3    2
    35    10     6    1
    36    39     8    1
    37     6     7    2
    38     3    18    1
    39    40    18   ar
    40    40    15   ar
    41     8     7    1
    42     8     2    2
    43     7     9    1
    44    18    17   ar
    45    15     2    1
    46    15    16   ar
    47    17    16   ar
    48    17    20    1
    49    16    19    1
    50    20    21    2
