@<TRIPOS>MOLECULE
3hnk_HEM_A_1.pdb
 43 50 0 0 0
SMALL
GASTEIGER

@<TRIPOS>ATOM
      1  CHA      -21.4110   -8.5910    2.2370 C.2   150  HEM150      0.0000
      2  CHB      -16.7520   -7.3810    2.8750 C.2   150  HEM150      0.0000
      3  CHC      -17.9250   -2.6990    2.4820 C.2   150  HEM150      0.0000
      4  CHD      -22.5740   -3.8400    1.8300 C.2   150  HEM150      0.0000
      5  C1A      -20.0440   -8.6870    2.4190 C.2   150  HEM150      0.0000
      6  C2A      -19.2700   -9.9150    2.5240 C.2   150  HEM150      0.0000
      7  C3A      -17.9840   -9.5760    2.7060 C.2   150  HEM150      0.0000
      8  C4A      -17.8980   -8.1270    2.7180 C.2   150  HEM150      0.0000
      9  CMA      -16.7890  -10.5440    2.8680 C.3   150  HEM150      0.0000
     10  CAA      -19.8320  -11.3590    2.4530 C.3   150  HEM150      0.0000
     11  CBA      -20.6070  -11.5790    1.1520 C.3   150  HEM150      0.0000
     12  CGA      -19.7010  -12.1140    0.0800 C.2   150  HEM150      0.0000
     13  O1A      -18.7440  -11.3900   -0.2880 O.co2 150  HEM150      0.0000
     14  O2A      -19.9340  -13.2570   -0.4080 O.co2 150  HEM150      0.0000
     15  C1B      -16.6520   -6.0050    2.7940 C.ar  150  HEM150      0.0000
     16  C2B      -15.4290   -5.2250    2.8680 C.ar  150  HEM150      0.0000
     17  C3B      -15.7610   -3.9330    2.7440 C.ar  150  HEM150      0.0000
     18  C4B      -17.2010   -3.8560    2.6150 C.ar  150  HEM150      0.0000
     19  CMB      -14.0040   -5.8000    3.0440 C.3   150  HEM150      0.0000
     20  CAB      -14.8160   -2.6950    2.7570 C.2   150  HEM150      0.0000
     21  CBB      -13.7050   -2.6200    2.0030 C.2   150  HEM150      0.0000
     22  C1C      -19.2800   -2.5870    2.2930 C.2   150  HEM150      0.0000
     23  C2C      -20.0160   -1.3470    2.1440 C.2   150  HEM150      0.0000
     24  C3C      -21.3040   -1.6520    1.9500 C.2   150  HEM150      0.0000
     25  C4C      -21.4200   -3.1050    1.9830 C.2   150  HEM150      0.0000
     26  CMC      -19.3840    0.0590    2.1990 C.3   150  HEM150      0.0000
     27  CAC      -22.4940   -0.6740    1.7340 C.2   150  HEM150      0.0000
     28  CBC      -22.3550    0.6370    1.4850 C.2   150  HEM150      0.0000
     29  C1D      -22.7180   -5.2140    1.9100 C.ar  150  HEM150      0.0000
     30  C2D      -23.9770   -5.9220    1.8630 C.ar  150  HEM150      0.0000
     31  C3D      -23.6110   -7.4060    2.0000 C.ar  150  HEM150      0.0000
     32  C4D      -22.1710   -7.4460    2.1060 C.ar  150  HEM150      0.0000
     33  CMD      -25.3900   -5.3100    1.7160 C.3   150  HEM150      0.0000
     34  CAD      -24.5740   -8.6060    1.9920 C.3   150  HEM150      0.0000
     35  CBD      -24.6960   -9.0570    0.5380 C.3   150  HEM150      0.0000
     36  CGD      -25.6070  -10.2560    0.4050 C.2   150  HEM150      0.0000
     37  O1D      -25.8790  -10.6470   -0.7560 O.co2 150  HEM150      0.0000
     38  O2D      -26.0640  -10.8280    1.4360 O.co2 150  HEM150      0.0000
     39  NA       -19.1740   -7.6260    2.5440 N.2   150  HEM150      0.0000
     40  NB       -17.7120   -5.1310    2.6410 N.ar  150  HEM150      0.0000
     41  NC       -20.1660   -3.6340    2.1890 N.2   150  HEM150      0.0000
     42  ND       -21.6930   -6.1450    2.0480 N.ar  150  HEM150      0.0000
     43 FE        -19.7260   -5.6520    2.3490 Fe    150  HEM150      0.0000
@<TRIPOS>BOND
     1    37    36   ar
     2    14    12   ar
     3    13    12   ar
     4    12    11    1
     5    36    35    1
     6    36    38   ar
     7    35    34    1
     8    11    10    1
     9    28    27    2
    10    33    30    1
    11    27    24    1
    12     4    29    2
    13     4    25    1
    14    30    29   ar
    15    30    31   ar
    16    29    42   ar
    17    24    25    1
    18    24    23    2
    19    25    41    2
    20    34    31    1
    21    31    32   ar
    22    21    20    2
    23    42    32   ar
    24    42    43    1
    25    32     1    2
    26    23    26    1
    27    23    22    1
    28    41    22    1
    29    41    43    1
    30     1     5    1
    31    22     3    2
    32    43    39    1
    33    43    40    1
    34     5     6    1
    35     5    39    2
    36    10     6    1
    37     3    18    1
    38     6     7    2
    39    39     8    1
    40    18    40   ar
    41    18    17   ar
    42    40    15   ar
    43     7     8    1
    44     7     9    1
    45     8     2    2
    46    17    20    1
    47    17    16   ar
    48    15    16   ar
    49    15     2    1
    50    16    19    1
