@<TRIPOS>MOLECULE
3hnl_HEM_A_1.pdb
 43 50 0 0 0
SMALL
GASTEIGER

@<TRIPOS>ATOM
      1  CHA       19.4130  -17.9940   17.1630 C.2   150  HEM150      0.0000
      2  CHB       16.2940  -17.8770   20.8580 C.2   150  HEM150      0.0000
      3  CHC       13.8660  -14.2830   18.7170 C.2   150  HEM150      0.0000
      4  CHD       16.8820  -14.3940   14.9360 C.2   150  HEM150      0.0000
      5  C1A       18.8310  -18.2530   18.3880 C.2   150  HEM150      0.0000
      6  C2A       19.3370  -19.1160   19.4400 C.2   150  HEM150      0.0000
      7  C3A       18.4670  -19.0750   20.4620 C.2   150  HEM150      0.0000
      8  C4A       17.3890  -18.1940   20.0890 C.2   150  HEM150      0.0000
      9  CMA       18.5500  -19.8130   21.8230 C.3   150  HEM150      0.0000
     10  CAA       20.6640  -19.9170   19.3710 C.3   150  HEM150      0.0000
     11  CBA       20.4210  -21.4200   19.4440 C.3   150  HEM150      0.0000
     12  CGA       20.1760  -21.9930   18.0700 C.2   150  HEM150      0.0000
     13  O1A       19.7500  -23.1670   18.0220 O.co2 150  HEM150      0.0000
     14  O2A       20.4000  -21.3040   17.0310 O.co2 150  HEM150      0.0000
     15  C1B       15.3810  -16.8810   20.5980 C.ar  150  HEM150      0.0000
     16  C2B       14.2630  -16.5070   21.4550 C.ar  150  HEM150      0.0000
     17  C3B       13.6050  -15.5060   20.8580 C.ar  150  HEM150      0.0000
     18  C4B       14.2680  -15.2400   19.6090 C.ar  150  HEM150      0.0000
     19  CMB       13.9290  -17.1690   22.8170 C.3   150  HEM150      0.0000
     20  CAB       12.3440  -14.7380   21.3470 C.2   150  HEM150      0.0000
     21  CBB       12.1490  -14.3820   22.6270 C.2   150  HEM150      0.0000
     22  C1C       14.4500  -14.0100   17.5040 C.2   150  HEM150      0.0000
     23  C2C       13.9750  -13.0290   16.5700 C.2   150  HEM150      0.0000
     24  C3C       14.8040  -13.0400   15.5230 C.2   150  HEM150      0.0000
     25  C4C       15.8290  -14.0410   15.7650 C.2   150  HEM150      0.0000
     26  CMC       12.7310  -12.1470   16.7950 C.3   150  HEM150      0.0000
     27  CAC       14.6940  -12.1320   14.2580 C.2   150  HEM150      0.0000
     28  CBC       14.1090  -10.9200   14.2890 C.2   150  HEM150      0.0000
     29  C1D       17.8380  -15.3680   15.1690 C.ar  150  HEM150      0.0000
     30  C2D       18.9120  -15.7180   14.2680 C.ar  150  HEM150      0.0000
     31  C3D       19.6920  -16.8340   14.9710 C.ar  150  HEM150      0.0000
     32  C4D       19.0260  -17.0540   16.2260 C.ar  150  HEM150      0.0000
     33  CMD       19.2280  -15.1030   12.8820 C.3   150  HEM150      0.0000
     34  CAD       20.9570  -17.5600   14.4560 C.3   150  HEM150      0.0000
     35  CBD       22.1540  -16.8410   15.0810 C.3   150  HEM150      0.0000
     36  CGD       23.4410  -17.2550   14.4170 C.2   150  HEM150      0.0000
     37  O1D       24.4080  -16.4560   14.4300 O.co2 150  HEM150      0.0000
     38  O2D       23.4990  -18.3870   13.8750 O.co2 150  HEM150      0.0000
     39  NA        17.6430  -17.7200   18.8250 N.2   150  HEM150      0.0000
     40  NB        15.3550  -16.0830   19.4700 N.ar  150  HEM150      0.0000
     41  NC        15.5760  -14.6020   16.9870 N.2   150  HEM150      0.0000
     42  ND        17.9430  -16.1750   16.3060 N.ar  150  HEM150      0.0000
     43 FE         16.6580  -16.1790   17.9110 Fe    150  HEM150      0.0000
@<TRIPOS>BOND
     1    33    30    1
     2    38    36   ar
     3    27    28    2
     4    27    24    1
     5    30    31   ar
     6    30    29   ar
     7    36    37   ar
     8    36    35    1
     9    34    31    1
    10    34    35    1
    11     4    29    2
    12     4    25    1
    13    31    32   ar
    14    29    42   ar
    15    24    25    1
    16    24    23    2
    17    25    41    2
    18    32    42   ar
    19    32     1    2
    20    42    43    1
    21    23    26    1
    22    23    22    1
    23    41    22    1
    24    41    43    1
    25    14    12   ar
    26     1     5    1
    27    22     3    2
    28    43    39    1
    29    43    40    1
    30    13    12   ar
    31    12    11    1
    32     5    39    2
    33     5     6    1
    34     3    18    1
    35    39     8    1
    36    10     6    1
    37    10    11    1
    38     6     7    2
    39    40    18   ar
    40    40    15   ar
    41    18    17   ar
    42     8     7    1
    43     8     2    2
    44     7     9    1
    45    15     2    1
    46    15    16   ar
    47    17    20    1
    48    17    16   ar
    49    20    21    2
    50    16    19    1
