@<TRIPOS>MOLECULE
3hns_AXR_H_1.pdb
 11 11 0 0 0
SMALL
GASTEIGER

@<TRIPOS>ATOM
      1  O5        12.8890   38.8310   -1.5810 O.3   221  AXR221     -0.2176
      2  C5        14.1470   38.1210   -1.6150 C.3   221  AXR221      0.2142
      3  C4        15.1820   39.1900   -1.9560 C.3   221  AXR221      0.1836
      4  O4        15.1530   40.1110   -0.8630 O.3   221  AXR221     -0.3256
      5  C3        16.5510   38.5440   -1.7490 C.3   221  AXR221      0.2168
      6  O3        16.9240   37.9770   -3.0110 O.3   221  AXR221     -0.2175
      7  C2        17.3560   39.8350   -1.6300 C.3   221  AXR221      0.2404
      8  O2        18.5530   39.5460   -0.8960 O.3   221  AXR221     -0.2149
      9  C1        16.4680   40.6570   -0.6970 C.3   221  AXR221      0.2695
     10  O1        16.5150   41.9890   -1.2160 O.3   221  AXR221     -0.3259
     11  C6        15.8990   42.8900   -0.2860 C.3   221  AXR221      0.1769
@<TRIPOS>BOND
     1     6     5    1
     2     3     5    1
     3     3     2    1
     4     3     4    1
     5     5     7    1
     6     7     8    1
     7     7     9    1
     8     2     1    1
     9    10     9    1
    10    10    11    1
    11     4     9    1
