@<TRIPOS>MOLECULE
3hnt_AXR_H_1.pdb
 11 11 0 0 0
SMALL
GASTEIGER

@<TRIPOS>ATOM
      1  O5        12.8880   38.8530   -1.7900 O.3   221  AXR221     -0.2176
      2  C5        14.1400   38.1480   -1.6950 C.3   221  AXR221      0.2142
      3  C4        15.1830   39.1930   -2.0690 C.3   221  AXR221      0.1836
      4  O4        15.1690   40.1740   -1.0300 O.3   221  AXR221     -0.3256
      5  C3        16.5330   38.5240   -1.8270 C.3   221  AXR221      0.2168
      6  O3        16.8520   37.8430   -3.0440 O.3   221  AXR221     -0.2175
      7  C2        17.3650   39.8010   -1.8120 C.3   221  AXR221      0.2404
      8  O2        18.5660   39.5070   -1.0840 O.3   221  AXR221     -0.2149
      9  C1        16.5050   40.6880   -0.9040 C.3   221  AXR221      0.2695
     10  O1        16.5750   41.9920   -1.4820 O.3   221  AXR221     -0.3259
     11  C6        15.9620   42.9320   -0.5960 C.3   221  AXR221      0.1769
@<TRIPOS>BOND
     1     6     5    1
     2     3     5    1
     3     3     2    1
     4     3     4    1
     5     5     7    1
     6     7     8    1
     7     7     9    1
     8     1     2    1
     9    10     9    1
    10    10    11    1
    11     4     9    1
