@<TRIPOS>MOLECULE
3hnv_AXR_H_1.pdb
 11 11 0 0 0
SMALL
GASTEIGER

@<TRIPOS>ATOM
      1  O5        12.8220   38.3620   -2.0480 O.3   221  AXR221     -0.2176
      2  C5        14.0800   37.6930   -1.8760 C.3   221  AXR221      0.2142
      3  C4        15.0910   38.7790   -2.2090 C.3   221  AXR221      0.1836
      4  O4        14.9810   39.7380   -1.1600 O.3   221  AXR221     -0.3256
      5  C3        16.4580   38.1890   -1.8950 C.3   221  AXR221      0.2168
      6  O3        16.8960   37.5500   -3.0960 O.3   221  AXR221     -0.2175
      7  C2        17.2190   39.5110   -1.8220 C.3   221  AXR221      0.2404
      8  O2        18.3330   39.2850   -0.9550 O.3   221  AXR221     -0.2149
      9  C1        16.2440   40.3960   -1.0380 C.3   221  AXR221      0.2695
     10  O1        16.2050   41.6330   -1.7560 O.3   221  AXR221     -0.3259
     11  C6        15.4190   42.6010   -1.0550 C.3   221  AXR221      0.1769
@<TRIPOS>BOND
     1     6     5    1
     2     3     5    1
     3     3     2    1
     4     3     4    1
     5     1     2    1
     6     5     7    1
     7     7     9    1
     8     7     8    1
     9    10    11    1
    10    10     9    1
    11     4     9    1
