@<TRIPOS>MOLECULE
3hnz_PMN_A_1.pdb
 32 36 0 0 0
SMALL
GASTEIGER

@<TRIPOS>ATOM
      1  O16       62.3860   34.5770    5.6180 O.3   413  PMN413     -0.3610
      2  O19       60.1370   31.5270    0.6930 O.2   413  PMN413     -0.2914
      3  O20       60.8400   28.3140    3.9820 O.2   413  PMN413     -0.2730
      4  O30       63.6440   27.6490    7.0920 O.3   413  PMN413     -0.2851
      5  O31       59.0090   28.7640    6.4860 O.3   413  PMN413     -0.2848
      6  O32       57.3720   27.4260    7.9980 O.co2 413  PMN413     -0.2404
      7  O33       58.3810   25.9640    9.5690 O.co2 413  PMN413     -0.2404
      8  N28       61.4970   29.2530    5.7580 N.am  413  PMN413     -0.1727
      9  C1        61.2910   29.3190    4.4860 C.2   413  PMN413      0.2458
     10  C2        61.6100   30.5960    3.7340 C.3   413  PMN413      0.0876
     11  C3        60.4030   31.3960    3.9380 C.3   413  PMN413      0.0170
     12  C4        60.2410   32.6630    3.0110 C.3   413  PMN413      0.0585
     13  C5        60.5690   32.4310    1.4680 C.2   413  PMN413      0.1721
     14  C6        61.4810   33.3830    0.9040 C.2   413  PMN413      0.0328
     15  C7        62.0350   34.4100    1.5030 C.2   413  PMN413     -0.0237
     16  C8        61.8060   34.8610    2.8500 C.3   413  PMN413      0.0237
     17  C9        61.3190   33.6250    3.6770 C.3   413  PMN413      0.0379
     18  C10       61.0930   34.0940    5.1120 C.3   413  PMN413      0.1157
     19  C11       60.2820   35.4260    5.0910 C.3   413  PMN413      0.0319
     20  C12       61.2300   36.4410    4.4210 C.3   413  PMN413      0.0277
     21  C13       60.8980   36.1040    2.9440 C.3   413  PMN413      0.0066
     22  C14       63.0910   35.4260    3.4930 C.3   413  PMN413      0.0313
     23  C15       62.6190   35.8450    4.8640 C.3   413  PMN413      0.0930
     24  C17       63.5290   36.6240    5.8230 C.3   413  PMN413      0.0296
     25  C18       58.7530   33.2200    2.8960 C.3   413  PMN413      0.0078
     26  C21       58.3150   26.8100    8.5490 C.2   413  PMN413      0.3909
     27  C22       59.6750   27.0760    8.0950 C.ar  413  PMN413      0.1201
     28  C23       59.9520   28.0190    7.1210 C.ar  413  PMN413      0.2203
     29  C24       61.3050   28.2390    6.7560 C.ar  413  PMN413      0.1511
     30  C25       62.3200   27.4990    7.3780 C.ar  413  PMN413      0.2140
     31  C26       61.9610   26.5680    8.3280 C.ar  413  PMN413      0.0438
     32  C27       60.6790   26.3570    8.6860 C.ar  413  PMN413      0.0132
@<TRIPOS>BOND
     1     2    13    2
     2    14    13    1
     3    14    15    2
     4    13    12    1
     5    15    16    1
     6    16    21    1
     7    16    22    1
     8    16    17    1
     9    25    12    1
    10    21    20    1
    11    12    17    1
    12    12    11    1
    13    22    23    1
    14    17    18    1
    15    10    11    1
    16    10     9    1
    17     3     9    2
    18    20    23    1
    19    20    19    1
    20     9     8   am
    21    23     1    1
    22    23    24    1
    23    19    18    1
    24    18     1    1
    25     8    29    1
    26     5    28    1
    27    29    28   ar
    28    29    30   ar
    29     4    30    1
    30    28    27   ar
    31    30    31   ar
    32     6    26   ar
    33    27    26    1
    34    27    32   ar
    35    31    32   ar
    36    26     7   ar
