@<TRIPOS>MOLECULE
3ho0_DKD_A_1.pdb
 26 28 0 0 0
SMALL
GASTEIGER

@<TRIPOS>ATOM
      1  CAK       17.0730   61.5000   16.5580 C.ar    1  DKD1       -0.0041
      2  CAG       16.8570   61.3270   15.1960 C.ar    1  DKD1       -0.0003
      3  CAD       17.9370   61.1620   14.3370 C.ar    1  DKD1       -0.0000
      4  CAH       19.2340   61.1670   14.8390 C.ar    1  DKD1       -0.0003
      5  CAL       19.4490   61.3360   16.2030 C.ar    1  DKD1       -0.0041
      6  CAX       18.3700   61.5040   17.0620 C.ar    1  DKD1       -0.0180
      7  CAS       18.6020   61.6700   18.5650 C.3     1  DKD1        0.0818
      8  CAZ       19.2600   63.0060   18.9160 C.3     1  DKD1        0.2719
      9  CAU       19.4210   62.9950   20.4380 C.2     1  DKD1        0.4044
     10  OAB       20.5380   62.7070   20.9200 O.co2   1  DKD1       -0.2416
     11  OAA       18.4050   63.2470   21.1230 O.co2   1  DKD1       -0.2416
     12  OAT       20.5180   63.0840   18.2260 O.3     1  DKD1       -0.4673
     13  CAY       21.1940   64.2550   18.3760 C.ar    1  DKD1        0.1392
     14  CAP       22.5580   64.2790   18.1040 C.ar    1  DKD1        0.0366
     15  CAN       23.2580   65.4780   18.1200 C.ar    1  DKD1       -0.0011
     16  CAO       20.5370   65.4430   18.6830 C.ar    1  DKD1        0.0366
     17  CAM       21.2380   66.6430   18.7060 C.ar    1  DKD1       -0.0011
     18  CAW       22.5980   66.6660   18.4150 C.ar    1  DKD1       -0.0217
     19  CAR       23.3540   67.9930   18.3190 C.3     1  DKD1        0.0310
     20  CAQ       22.4040   69.1920   18.3000 C.3     1  DKD1        0.0310
     21  CAV       23.1050   70.4420   17.7650 C.ar    1  DKD1       -0.0218
     22  CAI       23.1120   71.6210   18.5020 C.ar    1  DKD1       -0.0043
     23  CAE       23.7230   72.7590   17.9890 C.ar    1  DKD1       -0.0003
     24  CAC       24.3300   72.7230   16.7380 C.ar    1  DKD1       -0.0000
     25  CAF       24.3260   71.5450   16.0010 C.ar    1  DKD1       -0.0003
     26  CAJ       23.7140   70.4080   16.5160 C.ar    1  DKD1       -0.0043
@<TRIPOS>BOND
     1     3     4   ar
     2     3     2   ar
     3     4     5   ar
     4     2     1   ar
     5    25    26   ar
     6    25    24   ar
     7     5     6   ar
     8    26    21   ar
     9     1     6   ar
    10    24    23   ar
    11     6     7    1
    12    21    20    1
    13    21    22   ar
    14    23    22   ar
    15    14    15   ar
    16    14    13   ar
    17    15    18   ar
    18    12    13    1
    19    12     8    1
    20    20    19    1
    21    19    18    1
    22    13    16   ar
    23    18    17   ar
    24     7     8    1
    25    16    17   ar
    26     8     9    1
    27     9    10   ar
    28     9    11   ar
