@<TRIPOS>MOLECULE
3ho2_N32_A_1.pdb
 31 34 0 0 0
SMALL
GASTEIGER

@<TRIPOS>ATOM
      1  C1        62.2730   36.1480   44.6140 C.3   413  N32413      0.0184
      2  O19       57.9300   36.8570   48.2350 O.2   413  N32413     -0.2914
      3  O20       55.8590   38.5470   44.7990 O.2   413  N32413     -0.2733
      4  N28       57.1360   39.1770   43.0560 N.am  413  N32413     -0.1916
      5  C11       56.9580   38.7000   44.2560 C.2   413  N32413      0.2421
      6  C2        58.1590   38.3330   45.0370 C.3   413  N32413      0.0873
      7  C3        58.0990   36.8430   45.3160 C.3   413  N32413      0.0169
      8  C4        59.2370   36.5330   46.2810 C.3   413  N32413      0.0563
      9  C5        59.0260   36.6600   47.7710 C.2   413  N32413      0.1720
     10  C6        60.2240   36.5440   48.6600 C.2   413  N32413      0.0328
     11  C7        61.4800   36.4300   48.1730 C.2   413  N32413     -0.0235
     12  C8        61.7460   36.5660   46.7010 C.3   413  N32413      0.0228
     13  C9        60.5780   36.1460   45.7240 C.3   413  N32413      0.0112
     14  C10       60.8720   36.3440   44.2260 C.3   413  N32413      0.0048
     15  C14       63.0150   37.4450   46.2450 C.3   413  N32413      0.0260
     16  C15       63.1470   37.2530   44.7850 C.2   413  N32413     -0.0443
     17  C17       63.4150   38.2130   43.9060 C.2   413  N32413     -0.0091
     18  C18       58.8220   35.0580   46.3960 C.3   413  N32413      0.0077
     19  C28       62.4610   35.1040   46.5820 C.3   413  N32413      0.0047
     20  C29       62.8250   34.8350   45.0560 C.3   413  N32413      0.0044
     21  O30       56.9120   41.4410   41.7990 O.2   413  N32413     -0.2934
     22  O31       55.2250   37.1780   42.1820 O.2   413  N32413     -0.2889
     23  O32       53.3860   36.4490   40.4370 O.co2 413  N32413     -0.2405
     24  O33       52.3660   38.0590   39.3550 O.co2 413  N32413     -0.2405
     25  C21       53.2730   37.6800   40.1750 C.2   413  N32413      0.3903
     26  C22       54.2230   38.6200   40.6790 C.2   413  N32413      0.1127
     27  C23       55.1840   38.3440   41.6730 C.2   413  N32413      0.2059
     28  C24       56.0970   39.3070   42.0730 C.3   413  N32413      0.2137
     29  C25       56.0570   40.5690   41.4840 C.2   413  N32413      0.1821
     30  C26       55.0850   40.8870   40.5120 C.3   413  N32413      0.0930
     31  C27       54.1680   39.8990   40.1180 C.2   413  N32413     -0.0087
@<TRIPOS>BOND
     1    24    25   ar
     2    31    30    1
     3    31    26    2
     4    25    23   ar
     5    25    26    1
     6    30    29    1
     7    26    27    1
     8    29    21    2
     9    29    28    1
    10    27    28    1
    11    27    22    2
    12    28     4    1
    13     4     5   am
    14    17    16    2
    15    14     1    1
    16    14    13    1
    17     5     3    2
    18     5     6    1
    19     1    16    1
    20     1    20    1
    21    16    15    1
    22     6     7    1
    23    20    19    1
    24     7     8    1
    25    13     8    1
    26    13    12    1
    27    15    12    1
    28     8    18    1
    29     8     9    1
    30    19    12    1
    31    12    11    1
    32     9     2    2
    33     9    10    1
    34    11    10    2
