@<TRIPOS>MOLECULE
3ho6_IHP_A_1.pdb
 42 42 0 0 0
SMALL
GASTEIGER

@<TRIPOS>ATOM
      1  C1        74.2300   11.3410   26.6030 C.3   270  IHP270      0.1284
      2  C2        73.9820    9.9360   27.2080 C.3   270  IHP270      0.1284
      3  C3        74.9780    8.9850   26.5960 C.3   270  IHP270      0.1284
      4  C4        76.3680    9.4350   26.9300 C.3   270  IHP270      0.1284
      5  C5        76.7190   10.7620   26.3230 C.3   270  IHP270      0.1284
      6  C6        75.7030   11.8380   26.8250 C.3   270  IHP270      0.1284
      7  O11       73.4460   12.3110   27.1910 O.3   270  IHP270     -0.2749
      8  P1        72.2800   13.1100   26.4100 P.3   270  IHP270      0.5323
      9  O21       72.3910   14.5070   26.9280 O.3   270  IHP270     -0.1145
     10  O31       70.8400   12.4860   26.8220 O.3   270  IHP270     -0.1145
     11  O41       72.4640   12.9290   24.7980 O.2   270  IHP270     -0.2224
     12  O12       72.6750    9.5510   26.8500 O.3   270  IHP270     -0.2749
     13  P2        71.5300    9.2800   27.9610 P.3   270  IHP270      0.5323
     14  O22       71.1350   10.7560   28.5250 O.3   270  IHP270     -0.1145
     15  O32       70.2360    8.7040   27.2260 O.2   270  IHP270     -0.2224
     16  O42       72.0150    8.4330   29.0710 O.3   270  IHP270     -0.1145
     17  O13       74.7030    7.7400   27.1650 O.3   270  IHP270     -0.2749
     18  P3        74.7330    6.3890   26.2120 P.3   270  IHP270      0.5323
     19  O23       73.6050    6.3560   25.2780 O.2   270  IHP270     -0.2224
     20  O33       74.6470    5.1390   27.2350 O.3   270  IHP270     -0.1145
     21  O43       76.1600    6.4460   25.4440 O.3   270  IHP270     -0.1145
     22  O14       76.4770    9.5540   28.3110 O.3   270  IHP270     -0.2749
     23  P4        77.5380    8.7590   29.2770 P.3   270  IHP270      0.5323
     24  O24       76.7830    7.9770   30.2470 O.3   270  IHP270     -0.1145
     25  O34       78.4720    7.8320   28.3090 O.2   270  IHP270     -0.2224
     26  O44       78.4560    9.8020   30.1130 O.3   270  IHP270     -0.1145
     27  O15       78.0210   11.1330   26.7300 O.3   270  IHP270     -0.2749
     28  P5        79.2400   11.1360   25.6040 P.3   270  IHP270      0.5323
     29  O25       79.1870    9.8950   24.8310 O.3   270  IHP270     -0.1145
     30  O35       78.8330   12.3860   24.6550 O.2   270  IHP270     -0.2224
     31  O45       80.6390   11.3100   26.4350 O.3   270  IHP270     -0.1145
     32  O16       75.7780   13.0090   26.0620 O.3   270  IHP270     -0.2749
     33  P6        76.5880   14.2980   26.6320 P.3   270  IHP270      0.5323
     34  O26       78.1190   14.2480   26.0290 O.2   270  IHP270     -0.2224
     35  O36       75.9700   15.5510   26.1940 O.3   270  IHP270     -0.1145
     36  O46       76.6310   14.1860   28.2380 O.3   270  IHP270     -0.1145
     37  H1        74.0220   11.3120   25.5400 H     270  IHP270      0.0656
     38  H2        74.0910    9.9610   28.2860 H     270  IHP270      0.0656
     39  H3        74.8450    8.9440   25.5220 H     270  IHP270      0.0656
     40  H4        77.0730    8.6900   26.5820 H     270  IHP270      0.0656
     41  H5        76.6770   10.6940   25.2430 H     270  IHP270      0.0656
     42  H6        75.8710   12.0590   27.8730 H     270  IHP270      0.0656
@<TRIPOS>BOND
     1    30    28    2
     2    11     8    2
     3    29    28    1
     4    41     5    1
     5    19    18    2
     6    21    18    1
     7    39     3    1
     8    37     1    1
     9    28    31    1
    10    28    27    1
    11    34    33    2
    12    32    33    1
    13    32     6    1
    14    35    33    1
    15    18    17    1
    16    18    20    1
    17     5    27    1
    18     5     6    1
    19     5     4    1
    20     8    10    1
    21     8     9    1
    22     8     7    1
    23    40     4    1
    24     3     4    1
    25     3    17    1
    26     3     2    1
    27     1     6    1
    28     1     7    1
    29     1     2    1
    30    33    36    1
    31     6    42    1
    32    12     2    1
    33    12    13    1
    34     4    22    1
    35     2    38    1
    36    15    13    2
    37    13    14    1
    38    13    16    1
    39    25    23    2
    40    22    23    1
    41    23    26    1
    42    23    24    1
