@<TRIPOS>MOLECULE
3ho8_BTI_B_1.pdb
 15 16 0 0 0
SMALL
GASTEIGER

@<TRIPOS>ATOM
      1  C11       11.6850    7.2960   62.3230 C.2   2000  BTI2000     0.2074
      2  O11       11.5620    6.1200   62.0250 O.2   2000  BTI2000    -0.2883
      3  C10       10.7300    8.3080   61.7390 C.3   2000  BTI2000     0.0722
      4  C9        10.7000    9.5850   62.5730 C.3   2000  BTI2000     0.0082
      5  C8         9.9760    9.4230   63.9090 C.3   2000  BTI2000     0.0014
      6  C7        10.7180   10.2000   64.9930 C.3   2000  BTI2000     0.0129
      7  C2        10.2780    9.8890   66.4260 C.3   2000  BTI2000     0.0729
      8  S1        10.3720   11.3440   67.4260 S.3   2000  BTI2000    -0.1369
      9  C6        10.3350   10.4100   68.9190 C.3   2000  BTI2000     0.0848
     10  C5        11.1180    9.1320   68.6470 C.3   2000  BTI2000     0.1509
     11  N3        12.5020    9.4650   68.9560 N.2   2000  BTI2000    -0.1859
     12  C3        13.2640    9.3680   67.8840 C.1   2000  BTI2000     0.2386
     13  O3        14.5810    9.4890   67.9070 O.2   2000  BTI2000    -0.2023
     14  N2        12.5500    9.1130   66.8010 N.2   2000  BTI2000    -0.1860
     15  C4        11.1480    8.8560   67.1380 C.3   2000  BTI2000     0.1500
@<TRIPOS>BOND
     1     3     1    1
     2     3     4    1
     3     2     1    2
     4     4     5    1
     5     5     6    1
     6     6     7    1
     7     7    15    1
     8     7     8    1
     9    14    15    1
    10    14    12    2
    11    15    10    1
    12     8     9    1
    13    12    13    2
    14    12    11    2
    15    10     9    1
    16    10    11    1
