@<TRIPOS>MOLECULE
3ho8_COA_A_1.pdb
 48 50 0 0 0
SMALL
GASTEIGER

@<TRIPOS>ATOM
      1  N1A        3.3500  -47.3090   27.9830 N.2   2001  COA2001     0.0021
      2  C2A        3.4400  -46.0980   28.5150 C.3   2001  COA2001     0.5254
      3  N3A        4.5120  -45.7170   29.1940 N.2   2001  COA2001    -0.0055
      4  C4A        5.5490  -46.5670   29.3610 C.2   2001  COA2001     0.3518
      5  C5A        5.4850  -47.8420   28.8200 C.2   2001  COA2001     0.2526
      6  C6A        4.3460  -48.1990   28.1240 C.2   2001  COA2001     0.4393
      7  N6A        4.2580  -49.4150   27.6010 N.pl3 2001  COA2001     0.2180
      8  N7A        6.6120  -48.4810   29.1230 N.2   2001  COA2001    -0.2095
      9  C8A        7.3670  -47.6340   29.8280 C.3   2001  COA2001     0.3377
     10  N9A        6.7210  -46.4720   29.9790 N.pl3 2001  COA2001    -0.1439
     11  C1B        7.2040  -45.2890   30.6950 C.3   2001  COA2001     0.3185
     12  C2B        7.9470  -45.6760   31.9930 C.3   2001  COA2001     0.2543
     13  O2B        7.3060  -45.0840   33.1330 O.3   2001  COA2001    -0.2131
     14  C3B        9.3550  -45.1190   31.8030 C.3   2001  COA2001     0.1928
     15  O3B        9.7830  -44.3520   32.9330 O.3   2001  COA2001    -0.2673
     16  P3B       10.0100  -44.9980   34.3870 P.3   2001  COA2001     0.5327
     17  O7A       10.8200  -46.3640   34.1730 O.2   2001  COA2001    -0.2224
     18  O8A       11.1300  -44.1050   35.1350 O.3   2001  COA2001    -0.1145
     19  O9A        8.7540  -45.1310   35.1620 O.3   2001  COA2001    -0.1145
     20  C4B        9.1660  -44.1770   30.6120 C.3   2001  COA2001     0.1795
     21  O4B        8.1800  -44.8290   29.8010 O.3   2001  COA2001    -0.3136
     22  C5B       10.4370  -44.0340   29.7660 C.3   2001  COA2001     0.1812
     23  O5B       10.9220  -45.2940   29.3420 O.3   2001  COA2001    -0.3112
     24  P1A       12.4230  -45.3930   28.8230 P.3   2001  COA2001     0.2189
     25  O1A       12.7120  -44.0760   28.2350 O.3   2001  COA2001    -0.4371
     26  O2A       12.5660  -46.5970   27.9910 O.2   2001  COA2001    -0.5170
     27  O3A       13.3470  -45.6440   30.1480 O.3   2001  COA2001    -0.2703
     28  P2A       14.5010  -46.8140   30.2090 P.3   2001  COA2001     0.2188
     29  O4A       15.1710  -46.7780   31.5380 O.3   2001  COA2001    -0.4371
     30  O5A       15.3170  -46.7360   28.9780 O.2   2001  COA2001    -0.5170
     31  O6A       13.6620  -48.2050   30.2120 O.3   2001  COA2001    -0.3138
     32  CBP       12.7270  -50.2630   29.4510 C.3   2001  COA2001     0.0645
     33  CCP       13.8880  -49.2920   29.3180 C.3   2001  COA2001     0.1519
     34  CDP       12.7580  -50.8650   30.8620 C.3   2001  COA2001     0.0056
     35  CEP       12.8810  -51.3850   28.4300 C.3   2001  COA2001     0.0056
     36  CAP       11.3930  -49.4780   29.2090 C.3   2001  COA2001     0.2312
     37  OAP       11.1540  -49.3160   27.7960 O.3   2001  COA2001    -0.2131
     38  C9P       10.1400  -50.1310   29.8680 C.2   2001  COA2001     0.2719
     39  O9P        9.7720  -49.7840   30.9950 O.2   2001  COA2001    -0.2706
     40  N8P        9.5540  -51.0680   29.0970 N.am  2001  COA2001    -0.2028
     41  C7P        8.3410  -51.8690   29.3730 C.3   2001  COA2001     0.1248
     42  C6P        8.1800  -52.3880   30.8100 C.3   2001  COA2001     0.1102
     43  C5P        9.4230  -53.0450   31.4050 C.2   2001  COA2001     0.2432
     44  O5P       10.0220  -52.4740   32.3100 O.2   2001  COA2001    -0.2733
     45  N4P        9.7380  -54.2510   30.9060 N.am  2001  COA2001    -0.2044
     46  C3P       10.8960  -55.0610   31.3450 C.3   2001  COA2001     0.1276
     47  C2P       10.5830  -55.8220   32.6480 C.3   2001  COA2001     0.0920
     48  S1P        9.0580  -56.8470   32.6180 S.3   2001  COA2001    -0.0802
@<TRIPOS>BOND
     1     7     6    1
     2    37    36    1
     3     1     6    2
     4     1     2    1
     5    26    24    2
     6     6     5    1
     7    25    24    1
     8    35    32    1
     9     2     3    1
    10     5     8    2
    11     5     4    1
    12    24    23    1
    13    24    27    1
    14    30    28    2
    15    40    41    1
    16    40    38   am
    17     8     9    1
    18     3     4    2
    19    36    32    1
    20    36    38    1
    21    33    32    1
    22    33    31    1
    23    23    22    1
    24     4    10    1
    25    41    42    1
    26    32    34    1
    27    22    20    1
    28    21    20    1
    29    21    11    1
    30     9    10    1
    31    38    39    2
    32    10    11    1
    33    27    28    1
    34    28    31    1
    35    28    29    1
    36    20    14    1
    37    11    12    1
    38    42    43    1
    39    45    46    1
    40    45    43   am
    41    46    47    1
    42    43    44    2
    43    14    12    1
    44    14    15    1
    45    12    13    1
    46    48    47    1
    47    15    16    1
    48    17    16    2
    49    16    18    1
    50    16    19    1
