@<TRIPOS>MOLECULE
3ho9_N3A_A_1.pdb
 32 35 0 0 0
SMALL
GASTEIGER

@<TRIPOS>ATOM
      1  C1        -0.2040   72.3120   68.1690 C.3   413  N3A413      0.0209
      2  O19       -3.2700   68.6950   72.0700 O.2   413  N3A413     -0.2914
      3  O20       -5.7480   67.6470   68.7260 O.2   413  N3A413     -0.2730
      4  N28       -5.3830   69.0320   66.9890 N.am  413  N3A413     -0.1727
      5  C11       -5.2450   68.6100   68.2340 C.2   413  N3A413      0.2458
      6  C2        -4.3050   69.5090   69.1730 C.3   413  N3A413      0.0876
      7  C3        -2.9340   68.7460   69.2490 C.3   413  N3A413      0.0169
      8  C4        -1.9240   69.4490   70.2530 C.3   413  N3A413      0.0564
      9  C5        -2.4540   69.4790   71.7010 C.2   413  N3A413      0.1720
     10  C6        -1.9090   70.5420   72.6470 C.2   413  N3A413      0.0329
     11  C7        -1.1230   71.5710   72.1480 C.2   413  N3A413     -0.0211
     12  C8        -0.7200   71.8110   70.6690 C.3   413  N3A413      0.0509
     13  C9        -1.6330   70.9090   69.7280 C.3   413  N3A413      0.0136
     14  C10       -1.0070   70.9560   68.3000 C.3   413  N3A413      0.0049
     15  C14       -1.1040   73.3250   70.3690 C.3   413  N3A413      0.0285
     16  C15       -1.0280   73.3880   68.8660 C.2   413  N3A413     -0.0441
     17  C17       -1.7060   74.3230   68.2100 C.2   413  N3A413     -0.0091
     18  C18       -0.6870   68.5050   70.3050 C.3   413  N3A413      0.0077
     19  C28        0.7890   71.5470   70.3840 C.3   413  N3A413      0.1562
     20  C29        1.1410   72.0970   68.9750 C.3   413  N3A413      0.0372
     21  O30       -7.6060   70.1770   65.8680 O.3   413  N3A413     -0.2851
     22  O31       -4.6410   66.4800   66.1570 O.3   413  N3A413     -0.2848
     23  O32       -5.1060   64.5580   64.5560 O.co2 413  N3A413     -0.2404
     24  O33       -6.8420   64.4740   63.2690 O.co2 413  N3A413     -0.2404
     25  C21       -6.1530   65.0600   64.1210 C.2   413  N3A413      0.3909
     26  C22       -6.5670   66.3650   64.5610 C.ar  413  N3A413      0.1201
     27  C23       -5.7750   67.0590   65.5880 C.ar  413  N3A413      0.2203
     28  C24       -6.2040   68.3080   65.9740 C.ar  413  N3A413      0.1511
     29  C25       -7.3300   68.9340   65.4390 C.ar  413  N3A413      0.2140
     30  C26       -8.1450   68.2710   64.4510 C.ar  413  N3A413      0.0438
     31  C27       -7.7100   66.9970   64.0600 C.ar  413  N3A413      0.0132
     32  O34        1.5080   72.2240   71.4400 O.3   413  N3A413     -0.2228
@<TRIPOS>BOND
     1    24    25   ar
     2    31    30   ar
     3    31    26   ar
     4    25    23   ar
     5    25    26    1
     6    30    29   ar
     7    26    27   ar
     8    29    21    1
     9    29    28   ar
    10    27    28   ar
    11    27    22    1
    12    28     4    1
    13     4     5   am
    14     1    14    1
    15     1    16    1
    16     1    20    1
    17    17    16    2
    18     5     3    2
    19     5     6    1
    20    14    13    1
    21    16    15    1
    22    20    19    1
    23     6     7    1
    24     7     8    1
    25    13     8    1
    26    13    12    1
    27     8    18    1
    28     8     9    1
    29    15    12    1
    30    19    12    1
    31    19    32    1
    32    12    11    1
    33     9     2    2
    34     9    10    1
    35    11    10    2
