@<TRIPOS>MOLECULE
3hod_ZZH_A_1.pdb
 25 27 0 0 0
SMALL
GASTEIGER

@<TRIPOS>ATOM
      1  CAK       19.4670   61.2400   16.2370 C.ar    1  ZZH1       -0.0041
      2  CAG       19.3340   60.9210   14.8920 C.ar    1  ZZH1       -0.0003
      3  CAD       18.0830   60.9660   14.2850 C.ar    1  ZZH1       -0.0000
      4  CAH       16.9610   61.3290   15.0200 C.ar    1  ZZH1       -0.0003
      5  CAL       17.0950   61.6490   16.3680 C.ar    1  ZZH1       -0.0041
      6  CAW       18.3450   61.6050   16.9730 C.ar    1  ZZH1       -0.0180
      7  CAR       18.4700   61.9390   18.4610 C.3     1  ZZH1        0.0818
      8  CAY       19.1730   63.2790   18.6870 C.3     1  ZZH1        0.2719
      9  CAT       19.5030   63.3260   20.1800 C.2     1  ZZH1        0.4044
     10  OAB       18.5410   63.4840   20.9660 O.co2   1  ZZH1       -0.2416
     11  OAA       20.6900   63.1950   20.5410 O.co2   1  ZZH1       -0.2416
     12  OAS       20.3460   63.3220   17.8570 O.3     1  ZZH1       -0.4673
     13  CAX       21.1610   64.3990   18.0180 C.ar    1  ZZH1        0.1392
     14  CAP       22.4940   64.2650   17.6430 C.ar    1  ZZH1        0.0366
     15  CAN       23.3760   65.3310   17.7550 C.ar    1  ZZH1       -0.0008
     16  CAO       20.7070   65.6230   18.5010 C.ar    1  ZZH1        0.0366
     17  CAM       21.5890   66.6910   18.6150 C.ar    1  ZZH1       -0.0008
     18  CAV       22.9240   66.5490   18.2540 C.ar    1  ZZH1       -0.0176
     19  CAQ       23.8500   67.6600   18.3600 C.3     1  ZZH1        0.0526
     20  CAU       23.4050   69.0370   18.0900 C.ar    1  ZZH1       -0.0178
     21  CAI       23.2830   69.3770   16.7450 C.ar    1  ZZH1       -0.0039
     22  CAE       22.8740   70.6580   16.3910 C.ar    1  ZZH1       -0.0003
     23  CAC       22.5880   71.6040   17.3700 C.ar    1  ZZH1       -0.0000
     24  CAF       22.7080   71.2650   18.7110 C.ar    1  ZZH1       -0.0003
     25  CAJ       23.1130   69.9810   19.0620 C.ar    1  ZZH1       -0.0039
@<TRIPOS>BOND
     1     3     2   ar
     2     3     4   ar
     3     2     1   ar
     4     4     5   ar
     5     1     6   ar
     6     5     6   ar
     7    22    21   ar
     8    22    23   ar
     9    21    20   ar
    10     6     7    1
    11    23    24   ar
    12    14    15   ar
    13    14    13   ar
    14    15    18   ar
    15    12    13    1
    16    12     8    1
    17    13    16   ar
    18    20    19    1
    19    20    25   ar
    20    18    19    1
    21    18    17   ar
    22     7     8    1
    23    16    17   ar
    24     8     9    1
    25    24    25   ar
    26     9    11   ar
    27     9    10   ar
