@<TRIPOS>MOLECULE
3hof_DHC_C_1.pdb
 13 13 0 0 0
SMALL
GASTEIGER

@<TRIPOS>ATOM
      1  C1       -17.7390    2.4700  -40.3910 C.2   123  DHC123      0.3652
      2  O1       -17.8840    1.5050  -39.4990 O.co2 123  DHC123     -0.2456
      3  C2       -17.7570    2.1600  -41.8060 C.3   123  DHC123      0.1187
      4  C3       -18.9630    2.3490  -42.3120 C.3   123  DHC123      0.0383
      5  C1'      -19.2300    2.1030  -43.7280 C.ar  123  DHC123     -0.0182
      6  C2'      -18.2020    2.1720  -44.6580 C.ar  123  DHC123      0.0411
      7  C3'      -18.5160    1.9340  -45.9950 C.ar  123  DHC123      0.2339
      8  C4'      -19.9160    1.6040  -46.3970 C.ar  123  DHC123      0.2342
      9  C5'      -20.8830    1.5480  -45.4150 C.ar  123  DHC123      0.0451
     10  C6'      -20.5360    1.8020  -44.0950 C.ar  123  DHC123     -0.0008
     11  O4'      -20.2510    1.3470  -47.7030 O.3   123  DHC123     -0.2831
     12  O3'      -17.5430    2.0000  -46.9240 O.3   123  DHC123     -0.2832
     13  O2       -17.6280    3.6170  -40.0180 O.co2 123  DHC123     -0.2456
@<TRIPOS>BOND
     1    11     8    1
     2    12     7    1
     3     8     7   ar
     4     8     9   ar
     5     7     6   ar
     6     9    10   ar
     7     6     5   ar
     8    10     5   ar
     9     5     4    1
    10     4     3    1
    11     3     1    1
    12     1    13   ar
    13     1     2   ar
