@<TRIPOS>MOLECULE
3hoh_2GP_A_1.pdb
 24 26 0 0 0
SMALL
GASTEIGER

@<TRIPOS>ATOM
      1  P         18.0420   30.2080   52.5230 P.3   107  2GP107      0.5327
      2  O1P       16.6130   29.9210   52.7150 O.3   107  2GP107     -0.1145
      3  O2P       18.7570   29.1200   51.8240 O.2   107  2GP107     -0.2224
      4  O3P       18.7390   30.7790   53.7080 O.3   107  2GP107     -0.1145
      5  O5'       22.4620   32.5540   51.3780 O.3   107  2GP107     -0.2176
      6  C5'       22.0070   33.8980   51.5060 C.3   107  2GP107      0.2142
      7  C4'       20.4970   34.1680   51.2860 C.3   107  2GP107      0.1827
      8  O4'       20.1190   33.8820   49.9300 O.3   107  2GP107     -0.3326
      9  C3'       19.5950   33.2940   52.1700 C.3   107  2GP107      0.2132
     10  O3'       18.4110   34.0600   52.4750 O.3   107  2GP107     -0.2176
     11  C2'       19.2800   32.1220   51.2280 C.3   107  2GP107      0.2054
     12  O2'       18.0360   31.4480   51.4890 O.3   107  2GP107     -0.2657
     13  C1'       19.1420   32.8110   49.9110 C.3   107  2GP107      0.2266
     14  N9        19.4850   31.9510   48.7720 N.pl3 107  2GP107     -0.2354
     15  C8        18.8270   31.9040   47.5770 C.3   107  2GP107      0.2246
     16  N7        19.4250   31.1910   46.6810 N.2   107  2GP107     -0.2322
     17  C5        20.5620   30.7240   47.3320 C.2   107  2GP107      0.2182
     18  C6        21.6070   29.8930   46.8530 C.1   107  2GP107      0.2372
     19  O6        21.6950   29.4810   45.7060 O.2   107  2GP107     -0.2069
     20  N1        22.5740   29.6140   47.8090 N.2   107  2GP107     -0.2485
     21  C2        22.5360   30.1040   49.1010 C.1   107  2GP107      0.2531
     22  N2        23.5060   29.7230   49.9200 N.pl3 107  2GP107     -0.0226
     23  N3        21.5620   30.8990   49.5500 N.2   107  2GP107     -0.3074
     24  C4        20.6070   31.1700   48.6180 C.2   107  2GP107      0.2300
@<TRIPOS>BOND
     1    19    18    2
     2    16    17    2
     3    16    15    1
     4    18    17    1
     5    18    20    2
     6    17    24    1
     7    15    14    1
     8    20    21    2
     9    24    14    1
    10    24    23    2
    11    14    13    1
    12    21    23    2
    13    21    22    1
    14    13     8    1
    15    13    11    1
    16     8     7    1
    17    11    12    1
    18    11     9    1
    19     7     6    1
    20     7     9    1
    21     5     6    1
    22    12     1    1
    23     3     1    2
    24     9    10    1
    25     1     2    1
    26     1     4    1
