@<TRIPOS>MOLECULE
3hoi_FMN_A_1.pdb
 31 33 0 0 0
SMALL
GASTEIGER

@<TRIPOS>ATOM
      1  N1       -28.3500    6.4500  -12.5950 N.2   300  FMN300     -0.2887
      2  C2       -28.7020    6.8330  -11.3230 C.1   300  FMN300      0.3669
      3  O2       -28.4470    6.0760  -10.3520 O.2   300  FMN300     -0.1744
      4  N3       -29.3800    8.0220  -11.1170 N.2   300  FMN300     -0.2300
      5  C4       -29.7510    8.8620  -12.1600 C.1   300  FMN300      0.2513
      6  O4       -30.3220    9.9340  -11.9550 O.2   300  FMN300     -0.2057
      7  C4A      -29.3840    8.4800  -13.4370 C.2   300  FMN300      0.2706
      8  N5       -29.7030    9.2990  -14.5190 N.2   300  FMN300     -0.3841
      9  C5A      -29.0740    9.0110  -15.7480 C.2   300  FMN300      0.1452
     10  C6       -29.1630    9.9160  -16.7980 C.2   300  FMN300      0.0252
     11  C7       -28.4770    9.7180  -17.9910 C.2   300  FMN300     -0.0375
     12  C7M      -28.6070   10.7270  -19.1290 C.3   300  FMN300      0.0268
     13  C8       -27.6920    8.5620  -18.1430 C.3   300  FMN300      0.0417
     14  C8M      -26.9880    8.3640  -19.4600 C.3   300  FMN300      0.0091
     15  C9       -27.6440    7.6090  -17.1200 C.2   300  FMN300     -0.0049
     16  C9A      -28.3110    7.8510  -15.8970 C.2   300  FMN300      0.0795
     17  N10      -28.2480    6.9020  -14.8550 N.pl3 300  FMN300     -0.2545
     18  C10      -28.6750    7.2840  -13.6170 C.2   300  FMN300      0.2449
     19  C1'      -27.3820    5.6560  -15.0230 C.3   300  FMN300      0.1336
     20  C2'      -28.1910    4.6500  -15.8320 C.3   300  FMN300      0.2048
     21  O2'      -29.1530    4.0710  -14.9300 O.3   300  FMN300     -0.2185
     22  C3'      -27.2750    3.5740  -16.3730 C.3   300  FMN300      0.2165
     23  O3'      -26.4880    4.1410  -17.4340 O.3   300  FMN300     -0.2175
     24  C4'      -28.0460    2.3890  -16.9190 C.3   300  FMN300      0.2147
     25  O4'      -28.6320    1.6760  -15.8440 O.3   300  FMN300     -0.2176
     26  C5'      -27.1690    1.4520  -17.7580 C.3   300  FMN300      0.1892
     27  O5'      -26.1420    0.9330  -16.9260 O.3   300  FMN300     -0.2674
     28  P        -24.6400    1.0010  -17.3530 P.3   300  FMN300      0.5327
     29  O1P      -24.2720    2.4540  -17.2220 O.3   300  FMN300     -0.1145
     30  O2P      -23.8530    0.1410  -16.4420 O.3   300  FMN300     -0.1145
     31  O3P      -24.4980    0.5800  -18.7730 O.2   300  FMN300     -0.2224
@<TRIPOS>BOND
     1    14    13    1
     2    12    11    1
     3    31    28    2
     4    13    11    1
     5    13    15    1
     6    11    10    2
     7    26    27    1
     8    26    24    1
     9    23    22    1
    10    28    29    1
    11    28    27    1
    12    28    30    1
    13    15    16    2
    14    24    22    1
    15    24    25    1
    16    10     9    1
    17    22    20    1
    18    16     9    1
    19    16    17    1
    20    20    19    1
    21    20    21    1
    22     9     8    2
    23    19    17    1
    24    17    18    1
    25     8     7    2
    26    18     7    1
    27    18     1    2
    28     7     5    1
    29     1     2    2
    30     5     6    2
    31     5     4    2
    32     2     4    2
    33     2     3    2
