@<TRIPOS>MOLECULE
3hok_Q80_B_1.pdb
 32 35 0 0 0
SMALL
GASTEIGER

@<TRIPOS>ATOM
      1 CLBF       22.4250   -0.2260   28.4750 Cl    301  Q80301     -0.0822
      2  CAB       20.7300    0.0510   29.0140 C.ar  301  Q80301      0.0577
      3  CAC       20.1570    1.3010   28.8350 C.ar  301  Q80301      0.0111
      4  CAD       18.8520    1.5290   29.2440 C.ar  301  Q80301     -0.0034
      5  CAA       19.9900   -0.9700   29.6080 C.ar  301  Q80301      0.0111
      6  CAF       18.6800   -0.7440   30.0180 C.ar  301  Q80301     -0.0034
      7  CAE       18.1160    0.5110   29.8280 C.ar  301  Q80301     -0.0220
      8  CAG       16.7030    0.7960   30.2670 C.3   301  Q80301      0.0314
      9  CAH       16.7940    1.7600   31.4400 C.3   301  Q80301      0.0629
     10  CAI       17.0000    0.9980   32.7450 C.3   301  Q80301      0.2085
     11  OAP       17.6270   -0.2720   32.5360 O.3   301  Q80301     -0.3316
     12  CAJ       17.8600    1.8120   33.7050 C.3   301  Q80301      0.1635
     13  NAK       17.0520    2.6750   34.5910 N.ar  301  Q80301     -0.3028
     14  CAO       15.8460    2.0080   35.0250 C.ar  301  Q80301      0.1787
     15  NAN       15.9110    1.9100   36.3700 N.ar  301  Q80301     -0.2223
     16  CAM       17.0560    2.4570   36.8390 C.ar  301  Q80301      0.1193
     17  CAL       17.8050    2.9500   35.7940 C.ar  301  Q80301      0.0982
     18  OAS       15.7260    0.7250   33.3260 O.3   301  Q80301     -0.3300
     19  CAR       15.7400   -0.6000   33.8550 C.3   301  Q80301      0.1750
     20  CAQ       17.1300   -1.1340   33.5620 C.3   301  Q80301      0.1583
     21  CAT       17.0360   -2.5920   33.1250 C.3   301  Q80301      0.0958
     22  SAU       16.9270   -3.6810   34.5200 S.3   301  Q80301     -0.0923
     23  CAV       17.8210   -5.0720   34.1660 C.ar  301  Q80301      0.1068
     24  CBA       17.3070   -6.3270   34.4720 C.ar  301  Q80301      0.0254
     25  NAW       19.0310   -4.9350   33.5720 N.ar  301  Q80301     -0.2377
     26  CAX       19.7640   -6.0120   33.2600 C.ar  301  Q80301      0.1032
     27  CAY       19.2900   -7.2890   33.5570 C.ar  301  Q80301      0.0906
     28  CAZ       18.0490   -7.4550   34.1620 C.ar  301  Q80301      0.0075
     29  CBB       20.1050   -8.4850   33.1840 C.3   301  Q80301      0.4200
     30  FBD       21.3770   -8.1570   33.0180 F     301  Q80301     -0.1658
     31  FBE       19.6160   -8.9090   32.0400 F     301  Q80301     -0.1658
     32  FBC       19.9580   -9.4470   34.0760 F     301  Q80301     -0.1658
@<TRIPOS>BOND
     1     1     2    1
     2     3     2   ar
     3     3     4   ar
     4     2     5   ar
     5     4     7   ar
     6     5     6   ar
     7     7     6   ar
     8     7     8    1
     9     8     9    1
    10     9    10    1
    11    31    29    1
    12    11    10    1
    13    11    20    1
    14    10    18    1
    15    10    12    1
    16    30    29    1
    17    21    20    1
    18    21    22    1
    19    29    27    1
    20    29    32    1
    21    26    27   ar
    22    26    25   ar
    23    18    19    1
    24    27    28   ar
    25    20    19    1
    26    25    23   ar
    27    12    13    1
    28    28    24   ar
    29    23    24   ar
    30    23    22    1
    31    13    14   ar
    32    13    17   ar
    33    14    15   ar
    34    17    16   ar
    35    15    16   ar
