@<TRIPOS>MOLECULE
3hok_HEM_A_1.pdb
 43 50 0 0 0
SMALL
GASTEIGER

@<TRIPOS>ATOM
      1  CHA       18.8490   22.4650   -2.4790 C.2   300  HEM300      0.0000
      2  CHB       23.1620   24.3260   -1.2370 C.2   300  HEM300      0.0000
      3  CHC       20.8700   27.8570    1.1670 C.2   300  HEM300      0.0000
      4  CHD       16.5380   25.9350    0.1020 C.2   300  HEM300      0.0000
      5  C1A       20.2030   22.7120   -2.4250 C.ar  300  HEM300      0.0000
      6  C2A       21.2190   22.0550   -3.2230 C.ar  300  HEM300      0.0000
      7  C3A       22.4080   22.5670   -2.8810 C.ar  300  HEM300      0.0000
      8  C4A       22.1920   23.5650   -1.8530 C.ar  300  HEM300      0.0000
      9  CMA       23.7790   22.1690   -3.4700 C.3   300  HEM300      0.0000
     10  CAA       20.9680   20.9580   -4.2870 C.3   300  HEM300      0.0000
     11  CBA       20.0460   19.8720   -3.7350 C.3   300  HEM300      0.0000
     12  CGA       20.8570   18.6180   -3.5140 C.2   300  HEM300      0.0000
     13  O1A       20.3920   17.5210   -3.9290 O.co2 300  HEM300      0.0000
     14  O2A       21.9730   18.7200   -2.9310 O.co2 300  HEM300      0.0000
     15  C1B       22.9250   25.4840   -0.5260 C.2   300  HEM300      0.0000
     16  C2B       23.9110   26.4620   -0.1010 C.2   300  HEM300      0.0000
     17  C3B       23.2720   27.4320    0.5640 C.2   300  HEM300      0.0000
     18  C4B       21.8610   27.1050    0.5800 C.2   300  HEM300      0.0000
     19  CMB       25.4340   26.3940   -0.3620 C.3   300  HEM300      0.0000
     20  CAB       23.9020   28.6900    1.2070 C.2   300  HEM300      0.0000
     21  CBB       25.1360   29.0910    0.8760 C.2   300  HEM300      0.0000
     22  C1C       19.5220   27.5890    1.1530 C.ar  300  HEM300      0.0000
     23  C2C       18.5270   28.2550    1.9660 C.ar  300  HEM300      0.0000
     24  C3C       17.3340   27.7350    1.6770 C.ar  300  HEM300      0.0000
     25  C4C       17.5270   26.7130    0.6670 C.ar  300  HEM300      0.0000
     26  CMC       18.8130   29.3790    2.9850 C.3   300  HEM300      0.0000
     27  CAC       15.9870   28.1480    2.3100 C.2   300  HEM300      0.0000
     28  CBC       15.8730   28.2450    3.6380 C.2   300  HEM300      0.0000
     29  C1D       16.7370   24.8090   -0.6650 C.2   300  HEM300      0.0000
     30  C2D       15.6980   23.9170   -1.1250 C.2   300  HEM300      0.0000
     31  C3D       16.4310   22.8360   -1.9290 C.2   300  HEM300      0.0000
     32  C4D       17.8360   23.1840   -1.8760 C.2   300  HEM300      0.0000
     33  CMD       14.1810   24.0230   -0.8650 C.3   300  HEM300      0.0000
     34  CAD       15.8130   21.6230   -2.6510 C.3   300  HEM300      0.0000
     35  CBD       14.3440   21.8930   -2.9370 C.3   300  HEM300      0.0000
     36  CGD       14.0420   21.3600   -4.3100 C.2   300  HEM300      0.0000
     37  O1D       13.2730   22.0330   -5.0390 O.co2 300  HEM300      0.0000
     38  O2D       14.5730   20.2750   -4.6700 O.co2 300  HEM300      0.0000
     39  NA        20.8340   23.6260   -1.6010 N.ar  300  HEM300      0.0000
     40  NB        21.6860   25.9120   -0.0920 N.2   300  HEM300      0.0000
     41  NC        18.8770   26.6510    0.3730 N.ar  300  HEM300      0.0000
     42  ND        17.9710   24.3470   -1.1260 N.2   300  HEM300      0.0000
     43 FE         19.8280   25.1020   -0.5650 Fe    300  HEM300      0.0000
@<TRIPOS>BOND
     1    37    36   ar
     2    38    36   ar
     3    36    35    1
     4    10    11    1
     5    10     6    1
     6    13    12   ar
     7    11    12    1
     8    12    14   ar
     9     9     7    1
    10     6     7   ar
    11     6     5   ar
    12    35    34    1
    13     7     8   ar
    14    34    31    1
    15     1     5    2
    16     1    32    1
    17     5    39   ar
    18    31    32    1
    19    31    30    2
    20    32    42    2
    21     8    39   ar
    22     8     2    2
    23    39    43    1
    24     2    15    1
    25    42    29    1
    26    42    43    1
    27    30    33    1
    28    30    29    1
    29    29     4    2
    30    43    40    1
    31    43    41    1
    32    15    16    1
    33    15    40    2
    34    19    16    1
    35    16    17    2
    36    40    18    1
    37     4    25    1
    38    41    25   ar
    39    41    22   ar
    40    17    18    1
    41    17    20    1
    42    18     3    2
    43    25    24   ar
    44    21    20    2
    45    22     3    1
    46    22    23   ar
    47    24    23   ar
    48    24    27    1
    49    23    26    1
    50    27    28    2
