@<TRIPOS>MOLECULE
3hp1_ADP_A_1.pdb
 27 29 0 0 0
SMALL
GASTEIGER

@<TRIPOS>ATOM
      1  PB        72.2810   42.3590   18.8490 P.3   301  ADP301      0.5373
      2  O1B       72.4030   40.8930   19.2200 O.3   301  ADP301     -0.1143
      3  O2B       71.4230   43.1940   19.7630 O.3   301  ADP301     -0.1143
      4  O3B       71.9610   42.5410   17.3800 O.2   301  ADP301     -0.2221
      5  PA        74.4180   43.9750   20.1230 P.3   301  ADP301      0.2231
      6  O1A       73.8160   45.3490   19.9190 O.2   301  ADP301     -0.5169
      7  O2A       74.4170   43.3710   21.5110 O.3   301  ADP301     -0.4370
      8  O3A       73.7820   42.9390   19.0400 O.3   301  ADP301     -0.2261
      9  O5'       75.9370   44.0460   19.5620 O.3   301  ADP301     -0.3111
     10  C5'       76.8630   42.9700   19.6950 C.3   301  ADP301      0.1813
     11  C4'       78.2220   43.5680   20.0080 C.3   301  ADP301      0.1821
     12  O4'       78.7360   44.3540   18.9190 O.3   301  ADP301     -0.3135
     13  C3'       78.2020   44.5080   21.1910 C.3   301  ADP301      0.2184
     14  O3'       79.4760   44.2660   21.7930 O.3   301  ADP301     -0.2174
     15  C2'       78.2320   45.9100   20.5880 C.3   301  ADP301      0.2570
     16  O2'       78.9870   46.7890   21.4150 O.3   301  ADP301     -0.2130
     17  C1'       78.9930   45.7120   19.2870 C.3   301  ADP301      0.3186
     18  N9        78.5120   46.4940   18.1240 N.pl3 301  ADP301     -0.1439
     19  C8        77.2480   46.4930   17.6540 C.3   301  ADP301      0.3377
     20  N7        77.1000   47.2780   16.5540 N.2   301  ADP301     -0.2095
     21  C5        78.3150   47.7620   16.2970 C.2   301  ADP301      0.2526
     22  C6        78.8570   48.6470   15.2590 C.2   301  ADP301      0.4393
     23  N6        78.0400   49.1460   14.2960 N.pl3 301  ADP301      0.2180
     24  N1        80.1710   48.9200   15.3140 N.2   301  ADP301      0.0021
     25  C2        80.9810   48.4250   16.2810 C.3   301  ADP301      0.5254
     26  N3        80.5440   47.6090   17.2680 N.2   301  ADP301     -0.0055
     27  C4        79.2380   47.2570   17.3250 C.2   301  ADP301      0.3518
@<TRIPOS>BOND
     1    23    22    1
     2    22    24    2
     3    22    21    1
     4    24    25    1
     5    25    26    1
     6    21    20    2
     7    21    27    1
     8    20    19    1
     9    26    27    2
    10    27    18    1
    11     4     1    2
    12    19    18    1
    13    18    17    1
    14     1     8    1
    15     1     2    1
    16     1     3    1
    17    12    17    1
    18    12    11    1
    19     8     5    1
    20    17    15    1
    21     9    10    1
    22     9     5    1
    23    10    11    1
    24     6     5    2
    25    11    13    1
    26     5     7    1
    27    15    13    1
    28    15    16    1
    29    13    14    1
