@<TRIPOS>MOLECULE
3hp1_LLT_A_1.pdb
 17 18 0 0 0
SMALL
GASTEIGER

@<TRIPOS>ATOM
      1  O4        62.7210   33.0400   17.4680 O.2   401  LLT401     -0.2088
      2  C4        64.0180   33.2450   17.8180 C.1   401  LLT401      0.2134
      3  C5        64.4220   34.5040   18.2090 C.2   401  LLT401      0.0891
      4  C7        63.4510   35.6460   18.2510 C.3   401  LLT401      0.0462
      5  C6        65.7470   34.6960   18.5740 C.2   401  LLT401      0.0877
      6  N3        64.9060   32.2300   17.7900 N.2   401  LLT401     -0.2455
      7  C2        66.1940   32.4630   18.1230 C.1   401  LLT401      0.2844
      8  O2        67.0610   31.4220   18.0850 O.2   401  LLT401     -0.1918
      9  N1        66.6150   33.6730   18.5180 N.am  401  LLT401     -0.1794
     10  C1'       67.9950   33.9200   18.9120 C.3   401  LLT401      0.2090
     11  O4'       68.3070   35.3270   18.8830 O.3   401  LLT401     -0.3338
     12  C4'       69.2510   35.6730   19.9010 C.3   401  LLT401      0.1802
     13  C5'       68.7790   36.9170   20.6400 C.3   401  LLT401      0.2141
     14  O5'       69.2210   38.1060   19.9410 O.3   401  LLT401     -0.2176
     15  C3'       69.3530   34.4640   20.8160 C.3   401  LLT401      0.1858
     16  O3'       70.6290   33.8570   20.5680 O.3   401  LLT401     -0.2203
     17  C2'       68.2300   33.5300   20.3740 C.3   401  LLT401      0.0874
@<TRIPOS>BOND
     1     1     2    2
     2     6     2    2
     3     6     7    2
     4     2     3    1
     5     8     7    2
     6     7     9   am
     7     3     4    1
     8     3     5    2
     9     9     5    1
    10     9    10    1
    11    11    10    1
    12    11    12    1
    13    10    17    1
    14    12    13    1
    15    12    15    1
    16    14    13    1
    17    17    15    1
    18    16    15    1
