@<TRIPOS>MOLECULE
3hp2_I46_A_1.pdb
 19 21 0 0 0
SMALL
GASTEIGER

@<TRIPOS>ATOM
      1  C1         8.0940   22.6180   13.9960 C.ar  402  I46402     -0.0012
      2  C2         6.4760   21.6280   12.5430 C.ar  402  I46402     -0.0012
      3  C3         7.6730   21.8220   15.0320 C.ar  402  I46402      0.0293
      4  C4         6.0610   20.8160   13.5790 C.ar  402  I46402      0.0293
      5  C5         8.1100   22.1220    8.2320 C.ar  402  I46402      0.0221
      6  C6         8.3050   21.0020    7.4680 C.ar  402  I46402      0.1013
      7  C7         8.9720   20.9060   10.0970 C.ar  402  I46402      0.0509
      8  C8         7.9430   24.7760   11.9790 C.2   402  I46402      0.1057
      9  C9         7.4990   22.5220   12.7570 C.ar  402  I46402     -0.0110
     10  C10        6.6510   20.9240   14.8210 C.ar  402  I46402      0.1401
     11  C11        8.4470   22.0730    9.5680 C.ar  402  I46402      0.0213
     12  C12        9.1180   19.8380    9.2330 C.ar  402  I46402      0.2224
     13  C13        7.9070   23.4220   11.7240 C.3   402  I46402      0.1073
     14  C14        8.2890   23.2670   10.3670 C.2   402  I46402      0.0901
     15  N15        8.3430   25.3600   10.8190 N.2   402  I46402     -0.1507
     16  N16        8.8000   19.8550    7.9360 N.ar  402  I46402     -0.2165
     17  N17        8.5480   24.4710    9.8280 N.2   402  I46402     -0.1519
     18  F18        6.2470   20.1350   15.8420 F     402  I46402     -0.2042
     19  F19        9.6340   18.6840    9.6960 F     402  I46402     -0.1832
@<TRIPOS>BOND
     1     6    16   ar
     2     6     5   ar
     3    16    12   ar
     4     5    11   ar
     5    12    19    1
     6    12     7   ar
     7    11     7   ar
     8    11    14    1
     9    17    14    2
    10    17    15    1
    11    14    13    1
    12    15     8    2
    13    13     8    1
    14    13     9    1
    15     2     9   ar
    16     2     4   ar
    17     9     1   ar
    18     4    10   ar
    19     1     3   ar
    20    10     3   ar
    21    10    18    1
