@<TRIPOS>MOLECULE
3hp2_P36_A_1.pdb
 23 25 0 0 0
SMALL
GASTEIGER

@<TRIPOS>ATOM
      1  C1        35.8230   39.6150   27.0470 C.ar  401  P36401     -0.0003
      2  C2        35.3090   39.0890   28.2130 C.ar  401  P36401     -0.0000
      3  C3        34.0370   38.5680   28.2330 C.ar  401  P36401     -0.0003
      4  C4        33.2770   38.5690   27.0820 C.ar  401  P36401     -0.0024
      5  C5        33.7980   39.0990   25.9180 C.ar  401  P36401      0.0005
      6  C6        35.0710   39.6240   25.8930 C.ar  401  P36401     -0.0024
      7  C7        32.9630   39.0940   24.6910 C.3   401  P36401      0.1358
      8  N8        33.6830   38.7850   23.4800 N.ar  401  P36401     -0.2894
      9  C9        34.0710   39.8340   22.6800 C.ar  401  P36401      0.2703
     10  C10       34.7890   39.4750   21.4490 C.ar  401  P36401      0.1245
     11  C11       35.0460   38.1880   21.1710 C.ar  401  P36401      0.1513
     12  C12       34.6240   37.1310   22.0560 C.ar  401  P36401      0.0563
     13  C13       33.9600   37.4670   23.1720 C.ar  401  P36401      0.0818
     14  O14       33.8830   41.0200   22.8870 O.2   401  P36401     -0.2663
     15  O15       35.7250   37.9230   19.9940 O.3   401  P36401     -0.4699
     16  C16       36.0620   36.5590   19.7320 C.3   401  P36401      0.2320
     17  C17       36.7630   36.6510   18.4140 C.ar  401  P36401      0.0212
     18  C18       36.0950   36.3500   17.2490 C.ar  401  P36401     -0.0007
     19  C19       36.7390   36.4400   16.0330 C.ar  401  P36401     -0.0002
     20  C20       38.0530   36.8520   15.9760 C.ar  401  P36401     -0.0000
     21  C21       38.7190   37.1630   17.1410 C.ar  401  P36401     -0.0002
     22  C22       38.0800   37.0560   18.3540 C.ar  401  P36401     -0.0007
     23 BR23       35.2510   40.9280   20.4020 Br    401  P36401     -0.0409
@<TRIPOS>BOND
     1    20    19   ar
     2    20    21   ar
     3    19    18   ar
     4    21    22   ar
     5    18    17   ar
     6    22    17   ar
     7    17    16    1
     8    16    15    1
     9    15    11    1
    10    23    10    1
    11    11    10   ar
    12    11    12   ar
    13    10     9   ar
    14    12    13   ar
    15     9    14    2
    16     9     8   ar
    17    13     8   ar
    18     8     7    1
    19     7     5    1
    20     6     5   ar
    21     6     1   ar
    22     5     4   ar
    23     1     2   ar
    24     4     3   ar
    25     2     3   ar
