@<TRIPOS>MOLECULE
3hp5_52P_A_1.pdb
 28 31 0 0 0
SMALL
GASTEIGER

@<TRIPOS>ATOM
      1  F1        38.5180   37.8990   14.5200 F     401  52P401     -0.2041
      2  C2        37.9700   37.3140   15.6000 C.ar  401  52P401      0.1424
      3  C3        36.8170   36.5950   15.4310 C.ar  401  52P401      0.0303
      4  C4        36.2370   35.9790   16.5130 C.ar  401  52P401      0.0111
      5  C5        36.7880   36.0740   17.7710 C.ar  401  52P401      0.0585
      6  S6        35.9940   35.2390   19.1170 S.3   401  52P401     -0.0642
      7  C7        35.4900   36.4970   20.2280 C.2   401  52P401      0.1284
      8  C8        35.1310   36.0310   21.5810 C.2   401  52P401      0.0287
      9  C9        34.7530   37.0150   22.4030 C.2   401  52P401      0.0193
     10  C10       34.6980   38.3960   22.0050 C.2   401  52P401      0.0823
     11  C11       34.3000   39.3610   22.8600 C.2   401  52P401      0.0995
     12  C12       33.9020   39.0900   24.2470 C.ar  401  52P401      0.0333
     13  C13       32.6630   38.5690   24.5800 C.ar  401  52P401      0.0592
     14 CL14       31.4680   38.1760   23.3900 Cl    401  52P401     -0.0822
     15  C15       32.3450   38.3360   25.9030 C.ar  401  52P401      0.0115
     16  C16       33.2470   38.6220   26.9050 C.ar  401  52P401      0.0017
     17  C17       34.4760   39.1450   26.5850 C.ar  401  52P401      0.0115
     18  C18       34.7900   39.3730   25.2660 C.ar  401  52P401      0.0592
     19 CL19       36.3360   40.0270   24.9020 Cl    401  52P401     -0.0822
     20  C20       34.2740   40.7490   22.3700 C.1   401  52P401      0.1530
     21  O21       33.9380   41.7140   23.0310 O.2   401  52P401     -0.2222
     22  N22       34.6720   40.9250   21.0340 N.2   401  52P401     -0.1780
     23  C23       35.0270   39.9180   20.2890 C.3   401  52P401      0.2529
     24  N24       35.0640   38.6650   20.6990 N.pl3 401  52P401     -0.1849
     25  N25       35.4630   37.7050   19.7940 N.2   401  52P401     -0.1695
     26  C26       37.9520   36.8010   17.9270 C.ar  401  52P401      0.1483
     27  F27       38.5020   36.9010   19.1480 F     401  52P401     -0.2036
     28  C28       38.5500   37.4260   16.8490 C.ar  401  52P401      0.0598
@<TRIPOS>BOND
     1     1     2    1
     2     3     2   ar
     3     3     4   ar
     4     2    28   ar
     5     4     5   ar
     6    28    26   ar
     7     5    26   ar
     8     5     6    1
     9    26    27    1
    10     6     7    1
    11    25     7    2
    12    25    24    1
    13     7     8    1
    14    23    24    1
    15    23    22    1
    16    24    10    1
    17    22    20    2
    18     8     9    2
    19    10     9    1
    20    10    11    2
    21    20    11    1
    22    20    21    2
    23    11    12    1
    24    14    13    1
    25    12    13   ar
    26    12    18   ar
    27    13    15   ar
    28    19    18    1
    29    18    17   ar
    30    15    16   ar
    31    17    16   ar
