@<TRIPOS>MOLECULE
3hp5_I46_A_1.pdb
 19 21 0 0 0
SMALL
GASTEIGER

@<TRIPOS>ATOM
      1  C1         7.9850   22.8630   14.1730 C.ar  402  I46402     -0.0012
      2  C2         6.5660   21.6720   12.6580 C.ar  402  I46402     -0.0012
      3  C3         7.5050   22.0910   15.2120 C.ar  402  I46402      0.0293
      4  C4         6.0950   20.8820   13.6880 C.ar  402  I46402      0.0293
      5  C5         8.1820   22.2240    8.3030 C.ar  402  I46402      0.0221
      6  C6         8.4070   21.1120    7.5240 C.ar  402  I46402      0.1013
      7  C7         8.9600   20.9890   10.1690 C.ar  402  I46402      0.0509
      8  C8         8.0160   24.8650   12.1050 C.2   402  I46402      0.1057
      9  C9         7.5080   22.6500   12.9030 C.ar  402  I46402     -0.0110
     10  C10        6.5620   21.1140   14.9610 C.ar  402  I46402      0.1401
     11  C11        8.4650   22.1690    9.6550 C.ar  402  I46402      0.0213
     12  C12        9.1330   19.9330    9.3020 C.ar  402  I46402      0.2224
     13  C13        7.9440   23.5180   11.8500 C.3   402  I46402      0.1073
     14  C14        8.3110   23.3520   10.4880 C.2   402  I46402      0.0901
     15  N15        8.4120   25.4440   10.9430 N.2   402  I46402     -0.1507
     16  N16        8.8840   19.9490    7.9850 N.ar  402  I46402     -0.2165
     17  N17        8.5940   24.5520    9.9590 N.2   402  I46402     -0.1519
     18  F18        6.1180   20.3720   15.9780 F     402  I46402     -0.2042
     19  F19        9.6150   18.7890    9.8160 F     402  I46402     -0.1832
@<TRIPOS>BOND
     1     6    16   ar
     2     6     5   ar
     3    16    12   ar
     4     5    11   ar
     5    12    19    1
     6    12     7   ar
     7    11     7   ar
     8    11    14    1
     9    17    14    2
    10    17    15    1
    11    14    13    1
    12    15     8    2
    13    13     8    1
    14    13     9    1
    15     2     9   ar
    16     2     4   ar
    17     9     1   ar
    18     4    10   ar
    19     1     3   ar
    20    10     3   ar
    21    10    18    1
