@<TRIPOS>MOLECULE
3hp6_D3T_A_1.pdb
 28 29 0 0 0
SMALL
GASTEIGER

@<TRIPOS>ATOM
      1  PA       128.0180  -24.4840   43.9910 P.3   201  D3T201      0.2189
      2  O1A      127.2680  -23.5760   44.9450 O.3   201  D3T201     -0.4371
      3  O2A      128.8490  -25.6310   44.4870 O.2   201  D3T201     -0.5170
      4  O5'      126.9090  -25.1570   43.0260 O.3   201  D3T201     -0.3113
      5  C5'      127.2950  -26.2170   42.1500 C.3   201  D3T201      0.1785
      6  C4'      126.8210  -25.9160   40.7260 C.3   201  D3T201      0.1472
      7  O4'      125.4000  -25.7390   40.7310 O.3   201  D3T201     -0.3366
      8  C1'      125.0180  -24.8380   39.7090 C.3   201  D3T201      0.2063
      9  N1       124.2870  -23.7400   40.3520 N.am  201  D3T201     -0.1795
     10  C6       124.3830  -23.5760   41.6820 C.2   201  D3T201      0.0877
     11  C2       123.5470  -22.9390   39.5900 C.1   201  D3T201      0.2844
     12  O2       123.4960  -23.1660   38.2530 O.2   201  D3T201     -0.1918
     13  N3       122.8390  -21.9010   40.1160 N.2   201  D3T201     -0.2455
     14  C4       122.8760  -21.6650   41.4450 C.1   201  D3T201      0.2134
     15  O4       122.1630  -20.6310   41.9570 O.2   201  D3T201     -0.2088
     16  C5       123.6890  -22.5480   42.3020 C.2   201  D3T201      0.0891
     17  C5M      123.7900  -22.3400   43.7950 C.3   201  D3T201      0.0462
     18  C2'      126.2940  -24.2830   39.0950 C.3   201  D3T201      0.0545
     19  C3'      127.3740  -24.6430   40.1150 C.3   201  D3T201      0.0366
     20  O3A      128.8300  -23.5470   42.9510 O.3   201  D3T201     -0.2700
     21  PB       130.4280  -23.2710   42.8800 P.3   201  D3T201      0.2277
     22  O1B      130.7220  -22.3940   41.6880 O.2   201  D3T201     -0.5168
     23  O2B      131.1230  -24.6200   43.0540 O.3   201  D3T201     -0.4368
     24  O3B      130.6090  -22.3050   44.1720 O.3   201  D3T201     -0.2258
     25  PG       131.3040  -22.7350   45.5670 P.3   201  D3T201      0.5373
     26  O1G      130.7040  -21.6550   46.4630 O.3   201  D3T201     -0.1143
     27  O2G      130.9070  -24.1460   45.8800 O.3   201  D3T201     -0.1143
     28  O3G      132.7780  -22.5360   45.3200 O.2   201  D3T201     -0.2221
@<TRIPOS>BOND
     1    12    11    2
     2    18     8    1
     3    18    19    1
     4    11    13    2
     5    11     9   am
     6     8     9    1
     7     8     7    1
     8    19     6    1
     9    13    14    2
    10     9    10    1
    11     6     7    1
    12     6     5    1
    13    14    15    2
    14    14    16    1
    15    10    16    2
    16    22    21    2
    17     5     4    1
    18    16    17    1
    19    21    20    1
    20    21    23    1
    21    21    24    1
    22    20     1    1
    23     4     1    1
    24     1     3    2
    25     1     2    1
    26    24    25    1
    27    28    25    2
    28    25    27    1
    29    25    26    1
