@<TRIPOS>MOLECULE
3hp8_SUC_A_1.pdb
 23 24 0 0 0
SMALL
GASTEIGER

@<TRIPOS>ATOM
      1  C1        -4.1180   -6.6050   -3.2070 C.3   108  SUC108      0.2713
      2  C2        -4.4420   -5.9530   -1.8720 C.3   108  SUC108      0.2406
      3  C3        -3.3640   -4.9050   -1.6880 C.3   108  SUC108      0.2198
      4  C4        -2.0140   -5.5860   -1.5440 C.3   108  SUC108      0.2144
      5  C5        -1.7100   -6.3950   -2.7840 C.3   108  SUC108      0.1835
      6  C6        -0.4680   -7.2760   -2.5960 C.3   108  SUC108      0.2142
      7  O1        -4.1790   -5.6460   -4.2660 O.3   108  SUC108     -0.3033
      8  O2        -5.7220   -5.3280   -1.8730 O.3   108  SUC108     -0.2149
      9  O3        -3.4770   -4.2150   -0.4890 O.3   108  SUC108     -0.2174
     10  O4        -1.0910   -4.5460   -1.4140 O.3   108  SUC108     -0.2176
     11  O5        -2.8140   -7.2070   -3.1230 O.3   108  SUC108     -0.3256
     12  O6        -0.2180   -7.8250   -3.8740 O.3   108  SUC108     -0.2176
     13  C1'       -6.4910   -5.6840   -4.9860 C.3   108  SUC108      0.2406
     14  C2'       -5.0360   -5.9130   -5.3820 C.3   108  SUC108      0.2516
     15  C3'       -4.5460   -5.0040   -6.4890 C.3   108  SUC108      0.2381
     16  C4'       -3.2970   -5.7500   -6.9410 C.3   108  SUC108      0.2167
     17  C5'       -3.8410   -7.1730   -6.9350 C.3   108  SUC108      0.1835
     18  C6'       -2.7720   -8.1630   -6.5520 C.3   108  SUC108      0.2142
     19  O1'       -6.5160   -4.4270   -4.3390 O.3   108  SUC108     -0.2149
     20  O2'       -4.9010   -7.1980   -5.9520 O.3   108  SUC108     -0.3272
     21  O3'       -4.2710   -3.7030   -6.0230 O.3   108  SUC108     -0.2150
     22  O4'       -2.9080   -5.3090   -8.2070 O.3   108  SUC108     -0.2175
     23  O6'       -3.3400   -9.4450   -6.3530 O.3   108  SUC108     -0.2176
@<TRIPOS>BOND
     1    22    16    1
     2    16    17    1
     3    16    15    1
     4    17    18    1
     5    17    20    1
     6    18    23    1
     7    15    21    1
     8    15    14    1
     9    20    14    1
    10    14    13    1
    11    14     7    1
    12    13    19    1
    13     7     1    1
    14    12     6    1
    15     1    11    1
    16     1     2    1
    17    11     5    1
    18     5     6    1
    19     5     4    1
    20     8     2    1
    21     2     3    1
    22     3     4    1
    23     3     9    1
    24     4    10    1
