@<TRIPOS>MOLECULE
3hp9_CF1_A_1.pdb
 23 24 0 0 0
SMALL
GASTEIGER

@<TRIPOS>ATOM
      1  O23       36.0090    0.7760   52.1580 O.co2 501  CF1501     -0.2405
      2  C23       35.6480   -0.3810   51.8600 C.2   501  CF1501      0.3891
      3  O24       36.1170   -0.9500   50.8520 O.co2 501  CF1501     -0.2405
      4  C21       34.6360   -1.0940   52.7300 C.ar  501  CF1501      0.0980
      5  C5        34.2310   -2.3910   52.4010 C.ar  501  CF1501      0.0448
      6  C4        33.2980   -3.0590   53.2000 C.ar  501  CF1501      0.1390
      7  O1        32.8960   -4.3360   52.8800 O.3   501  CF1501     -0.4714
      8  C2        33.7800   -5.4530   53.0460 C.3   501  CF1501      0.2525
      9  C3        32.7610   -2.4300   54.3220 C.ar  501  CF1501      0.0382
     10  C8        33.1620   -1.1380   54.6580 C.ar  501  CF1501      0.0198
     11  C7        34.0830   -0.4600   53.8540 C.ar  501  CF1501      0.0771
     12  N1        34.4330    0.8240   54.1250 N.pl3 501  CF1501     -0.2114
     13  C9        33.6120    1.8410   54.5250 C.ar  501  CF1501      0.0809
     14  C10       34.2200    3.0370   54.8730 C.ar  501  CF1501      0.0728
     15 CL1        35.9870    3.1570   54.7830 Cl    501  CF1501     -0.0809
     16  C11       33.4820    4.1400   55.2820 C.ar  501  CF1501      0.0127
     17  C12       32.1030    4.0500   55.3560 C.ar  501  CF1501      0.0048
     18  C15       32.2160    1.7470   54.5840 C.ar  501  CF1501      0.0212
     19  C13       31.4670    2.8550   55.0010 C.ar  501  CF1501      0.0728
     20  C14       29.9730    2.7990   55.0930 C.3   501  CF1501      0.4186
     21  F1        29.6200    3.1560   56.3070 F     501  CF1501     -0.1659
     22  F3        29.4610    3.6410   54.2250 F     501  CF1501     -0.1659
     23  F2        29.5110    1.5880   54.8330 F     501  CF1501     -0.1659
@<TRIPOS>BOND
     1     3     2   ar
     2     2     1   ar
     3     2     4    1
     4     5     4   ar
     5     5     6   ar
     6     4    11   ar
     7     7     8    1
     8     7     6    1
     9     6     9   ar
    10    11    12    1
    11    11    10   ar
    12    12    13    1
    13    22    20    1
    14     9    10   ar
    15    13    18   ar
    16    13    14   ar
    17    18    19   ar
    18    15    14    1
    19    23    20    1
    20    14    16   ar
    21    19    20    1
    22    19    17   ar
    23    20    21    1
    24    16    17   ar
