@<TRIPOS>MOLECULE
3hpe_ERU_A_1.pdb
 24 23 0 0 0
SMALL
GASTEIGER

@<TRIPOS>ATOM
      1  C22        6.9830  -12.4340   33.2750 C.3   301  ERU301      0.0000
      2  C21        5.6970  -13.1910   33.7180 C.3   301  ERU301      0.0000
      3  C20        4.9820  -12.4390   34.8380 C.3   301  ERU301      0.0000
      4  C19        5.0980  -10.9240   34.6430 C.3   301  ERU301      0.0000
      5  C18        5.6340  -10.1390   35.8410 C.3   301  ERU301      0.0000
      6  C17        4.9350   -8.7820   35.6450 C.3   301  ERU301      0.0000
      7  C16        5.6470   -7.6910   36.2980 C.3   301  ERU301      0.0000
      8  C15        5.0400   -6.3870   35.8510 C.3   301  ERU301      0.0000
      9  C14        5.6020   -5.8440   34.6880 C.3   301  ERU301      0.0000
     10  C13        5.4900   -4.4660   34.6500 C.3   301  ERU301      0.0000
     11  C12        4.8570   -3.9850   35.8070 C.3   301  ERU301      0.0000
     12  C11        4.6710   -2.4380   35.9050 C.3   301  ERU301      0.0000
     13  C10        5.8430   -1.7220   36.6340 C.3   301  ERU301      0.0000
     14  C9         5.4870   -0.2140   36.6290 C.3   301  ERU301      0.0000
     15  C8         6.4730    0.5780   35.7660 C.3   301  ERU301      0.0000
     16  C7         6.1920    2.0990   35.7080 C.3   301  ERU301      0.0000
     17  C6         7.3980    2.8400   36.3080 C.3   301  ERU301      0.0000
     18  C5         7.2360    4.3550   36.3650 C.3   301  ERU301      0.0000
     19  C4         7.8760    4.9670   35.1260 C.3   301  ERU301      0.0005
     20  C3         7.9310    6.4980   35.2310 C.3   301  ERU301      0.0097
     21  C2         8.5330    7.1270   33.9570 C.3   301  ERU301      0.0885
     22  C1         9.2510    8.4490   34.2320 C.2   301  ERU301      0.2607
     23  O         10.1010    8.5390   35.1090 O.2   301  ERU301     -0.2717
     24  N          8.9290    9.4600   33.4480 N.am  301  ERU301     -0.0878
@<TRIPOS>BOND
     1     1     2    1
     2    24    22   am
     3     2     3    1
     4    21    22    1
     5    21    20    1
     6    22    23    2
     7     4     3    1
     8     4     5    1
     9    10     9    1
    10    10    11    1
    11     9     8    1
    12    19    20    1
    13    19    18    1
    14     6     5    1
    15     6     7    1
    16    16    15    1
    17    16    17    1
    18    15    14    1
    19    11    12    1
    20     8     7    1
    21    12    13    1
    22    17    18    1
    23    14    13    1
