@<TRIPOS>MOLECULE
3hpf_GAE_A_1.pdb
 14 13 0 0 0
SMALL
GASTEIGER

@<TRIPOS>ATOM
      1  O6A      -56.3540   31.2380   -3.9030 O.co2 411  GAE411     -0.2427
      2  C6       -57.4290   30.6350   -4.1230 C.2   411  GAE411      0.3973
      3  O6B      -58.4540   31.1520   -4.6480 O.co2 411  GAE411     -0.2427
      4  C5       -57.4880   29.1410   -3.6960 C.3   411  GAE411      0.2865
      5  O5       -56.1770   28.5380   -3.8210 O.3   411  GAE411     -0.2080
      6  C4       -58.5320   28.3540   -4.5320 C.3   411  GAE411      0.2266
      7  O4       -58.0520   28.1140   -5.8580 O.3   411  GAE411     -0.2169
      8  C3       -58.9540   26.9900   -3.9390 C.3   411  GAE411      0.2266
      9  O3       -60.2760   26.6930   -4.4090 O.3   411  GAE411     -0.2169
     10  C2       -58.0540   25.7650   -4.2440 C.3   411  GAE411      0.2865
     11  C1       -58.4650   24.4950   -3.4750 C.2   411  GAE411      0.3973
     12  O1A      -58.8770   23.5180   -4.1590 O.co2 411  GAE411     -0.2427
     13  O1B      -58.3700   24.5280   -2.2330 O.co2 411  GAE411     -0.2427
     14  O2       -58.0670   25.4890   -5.6610 O.3   411  GAE411     -0.2080
@<TRIPOS>BOND
     1     7     6    1
     2    14    10    1
     3     3     2   ar
     4     6     8    1
     5     6     4    1
     6     9     8    1
     7    10     8    1
     8    10    11    1
     9    12    11   ar
    10     2     1   ar
    11     2     4    1
    12     5     4    1
    13    11    13   ar
