@<TRIPOS>MOLECULE
3hpi_SUC_A_1.pdb
 23 24 0 0 0
SMALL
GASTEIGER

@<TRIPOS>ATOM
      1  C1        -3.6650   14.2980  -34.1350 C.3   371  SUC371      0.2713
      2  C2        -4.6260   13.7050  -35.1910 C.3   371  SUC371      0.2406
      3  C3        -4.7330   12.1690  -35.0170 C.3   371  SUC371      0.2198
      4  C4        -3.3170   11.5870  -35.1730 C.3   371  SUC371      0.2144
      5  C5        -2.3690   12.2000  -34.1310 C.3   371  SUC371      0.1835
      6  C6        -0.9190   11.7160  -34.2630 C.3   371  SUC371      0.2142
      7  O1        -4.1670   14.1080  -33.0260 O.3   371  SUC371     -0.3033
      8  O2        -5.9070   14.3230  -35.0650 O.3   371  SUC371     -0.2149
      9  O3        -5.6070   11.5850  -35.9890 O.3   371  SUC371     -0.2174
     10  O4        -3.2830   10.1710  -35.0120 O.3   371  SUC371     -0.2176
     11  O5        -2.3670   13.6660  -34.2330 O.3   371  SUC371     -0.3256
     12  O6        -0.0470   12.3580  -33.3320 O.3   371  SUC371     -0.2176
     13  C1'       -4.5720   16.5580  -32.5900 C.3   371  SUC371      0.2406
     14  C2'       -4.1950   15.1860  -32.0240 C.3   371  SUC371      0.2516
     15  C3'       -5.1090   14.6680  -30.9010 C.3   371  SUC371      0.2381
     16  C4'       -4.1590   13.7790  -30.1230 C.3   371  SUC371      0.2167
     17  C5'       -2.8360   14.5140  -30.1980 C.3   371  SUC371      0.1835
     18  C6'       -1.6390   13.6030  -30.3560 C.3   371  SUC371      0.2142
     19  O1'       -5.8350   16.5020  -33.2610 O.3   371  SUC371     -0.2149
     20  O2'       -2.9400   15.3480  -31.3860 O.3   371  SUC371     -0.3272
     21  O3'       -6.2920   14.0470  -31.3470 O.3   371  SUC371     -0.2150
     22  O4'       -4.5980   13.5260  -28.7970 O.3   371  SUC371     -0.2175
     23  O6'       -1.2950   12.9060  -29.1520 O.3   371  SUC371     -0.2176
@<TRIPOS>BOND
     1     9     3    1
     2     2     8    1
     3     2     3    1
     4     2     1    1
     5     4     3    1
     6     4    10    1
     7     4     5    1
     8     6     5    1
     9     6    12    1
    10    11     1    1
    11    11     5    1
    12     1     7    1
    13    19    13    1
    14     7    14    1
    15    13    14    1
    16    14    20    1
    17    14    15    1
    18    20    17    1
    19    21    15    1
    20    15    16    1
    21    18    17    1
    22    18    23    1
    23    17    16    1
    24    16    22    1
