@<TRIPOS>MOLECULE
3hpo_TTP_A_1.pdb
 29 30 0 0 0
SMALL
GASTEIGER

@<TRIPOS>ATOM
      1  PA       -13.2600   -0.4660   14.0890 P.3   201  TTP201      0.2189
      2  O1A      -14.5040   -0.2320   13.2630 O.2   201  TTP201     -0.5170
      3  O2A      -13.0010    0.6420   15.0720 O.3   201  TTP201     -0.4371
      4  O3A      -12.0080   -0.6640   13.1120 O.3   201  TTP201     -0.2700
      5  PB       -10.7790    0.3540   12.9030 P.3   201  TTP201      0.2277
      6  O1B       -9.6770   -0.4530   12.2630 O.2   201  TTP201     -0.5168
      7  O2B      -10.3380    1.0230   14.1580 O.3   201  TTP201     -0.4368
      8  O3B      -11.3240    1.3980   11.7880 O.3   201  TTP201     -0.2258
      9  PG       -11.9510    2.8600   12.0900 P.3   201  TTP201      0.5373
     10  O1G      -13.0120    3.1000   11.0420 O.2   201  TTP201     -0.2221
     11  O2G      -12.5050    2.8380   13.4870 O.3   201  TTP201     -0.1143
     12  O3G      -10.9350    3.9570   11.9680 O.3   201  TTP201     -0.1143
     13  O5'      -13.3620   -1.8660   14.8570 O.3   201  TTP201     -0.3112
     14  C5'      -12.2680   -2.2220   15.7050 C.3   201  TTP201      0.1812
     15  C4'      -11.7570   -3.6140   15.3530 C.3   201  TTP201      0.1773
     16  O4'      -12.7830   -4.6090   15.4020 O.3   201  TTP201     -0.3339
     17  C3'      -11.2550   -3.7470   13.9310 C.3   201  TTP201      0.1857
     18  O3'       -9.9960   -3.1110   13.7270 O.3   201  TTP201     -0.2203
     19  C2'      -11.2510   -5.2500   13.7270 C.3   201  TTP201      0.0874
     20  C1'      -12.5000   -5.6690   14.4890 C.3   201  TTP201      0.2090
     21  N1       -13.5760   -5.6790   13.5160 N.am  201  TTP201     -0.1794
     22  C2       -13.6960   -6.7780   12.6490 C.1   201  TTP201      0.2844
     23  O2       -12.8600   -7.7150   12.7550 O.2   201  TTP201     -0.1918
     24  N3       -14.6710   -6.8120   11.7260 N.2   201  TTP201     -0.2455
     25  C4       -15.5540   -5.7960   11.6300 C.1   201  TTP201      0.2134
     26  O4       -16.4660   -5.8130   10.7710 O.2   201  TTP201     -0.2088
     27  C5       -15.4370   -4.6320   12.5420 C.2   201  TTP201      0.0891
     28  C5M      -16.3960   -3.4670   12.4750 C.3   201  TTP201      0.0462
     29  C6       -14.4120   -4.6360   13.4720 C.2   201  TTP201      0.0877
@<TRIPOS>BOND
     1    26    25    2
     2    10     9    2
     3    25    24    2
     4    25    27    1
     5    24    22    2
     6     8     9    1
     7     8     5    1
     8    12     9    1
     9     9    11    1
    10     6     5    2
    11    28    27    1
    12    27    29    2
    13    22    23    2
    14    22    21   am
    15     5     4    1
    16     5     7    1
    17     4     1    1
    18     2     1    2
    19    29    21    1
    20    21    20    1
    21    18    17    1
    22    19    17    1
    23    19    20    1
    24    17    15    1
    25     1    13    1
    26     1     3    1
    27    20    16    1
    28    13    14    1
    29    15    16    1
    30    15    14    1
