@<TRIPOS>MOLECULE
3hpt_YET_B_1.pdb
 32 35 0 0 0
SMALL
GASTEIGER

@<TRIPOS>ATOM
      1  O31        4.0830   13.1300   28.3470 O.2     1  YET1       -0.2730
      2  C11        4.6360   12.8850   29.4030 C.2     1  YET1        0.2459
      3  N27        5.6120   13.6490   29.8930 N.am    1  YET1       -0.2781
      4  C20        6.2800   13.3690   31.1610 C.3     1  YET1        0.0935
      5  C16        7.3100   14.4820   31.3020 C.3     1  YET1        0.0233
      6  C19        6.0970   14.8420   29.2040 C.3     1  YET1        0.0935
      7  C15        7.3380   15.2480   29.9920 C.3     1  YET1        0.0233
      8  C23        4.2180   11.6790   30.2210 C.3     1  YET1        0.1794
      9  N26        3.1820   10.9110   29.5410 N.am    1  YET1       -0.2685
     10  C10        3.5190    9.8300   28.8250 C.2     1  YET1        0.2660
     11  O30        4.6790    9.4630   28.7100 O.2     1  YET1       -0.2711
     12  C18        1.8160   11.4330   29.7220 C.3     1  YET1        0.0940
     13  C14        1.0340   10.4120   30.5530 C.3     1  YET1        0.0216
     14  C13        0.4480    9.3300   29.6430 C.3     1  YET1        0.0059
     15  C17        1.5260    8.3640   29.1300 C.3     1  YET1        0.0529
     16  C21        2.4460    9.0470   28.1160 C.3     1  YET1        0.2561
     17  N29        3.0790    8.0360   27.2680 N.pl3   1  YET1       -0.0851
     18  C12        2.5220    7.4820   26.1850 C.cat   1  YET1        0.4749
     19  N25        1.2760    7.8430   25.8330 N.pl3   1  YET1        0.0163
     20  C1         0.6940    7.3810   24.8730 C.1     1  YET1        0.2956
     21  N24        0.1270    6.9000   23.9810 N.1     1  YET1       -0.1505
     22  N28        3.2160    6.5740   25.4700 N.pl3   1  YET1       -0.0653
     23  C7         4.5290    6.1910   25.8150 C.ar    1  YET1        0.1592
     24  C2         4.8310    5.8870   27.1510 C.ar    1  YET1        0.0402
     25  C4         5.5300    6.1240   24.8350 C.ar    1  YET1        0.0402
     26  C6         6.8190    5.7480   25.2200 C.ar    1  YET1        0.0402
     27  C8         7.0730    5.4610   26.5400 C.ar    1  YET1        0.1450
     28  C3         6.1150    5.5160   27.5320 C.ar    1  YET1        0.0405
     29  O32        8.4240    5.1050   26.6950 O.2     1  YET1       -0.4577
     30  C9         8.9490    5.2030   25.4390 C.ar    1  YET1        0.1233
     31  C22       10.3940    4.8980   25.1880 C.3     1  YET1        0.0725
     32  C5         8.0380    5.5900   24.4440 C.ar    1  YET1        0.0361
@<TRIPOS>BOND
     1    21    20    3
     2    32    26   ar
     3    32    30   ar
     4    25    26   ar
     5    25    23   ar
     6    20    19    1
     7    31    30    1
     8    26    27   ar
     9    30    29   ar
    10    22    23    1
    11    22    18    1
    12    23    24   ar
    13    19    18    1
    14    18    17    2
    15    27    29   ar
    16    27    28   ar
    17    24    28   ar
    18    17    16    1
    19    16    10    1
    20    16    15    1
    21     1     2    2
    22    11    10    2
    23    10     9   am
    24    15    14    1
    25     6     3    1
    26     6     7    1
    27     2     3   am
    28     2     8    1
    29     9    12    1
    30     9     8    1
    31    14    13    1
    32    12    13    1
    33     3     4    1
    34     7     5    1
    35     4     5    1
