@<TRIPOS>MOLECULE
3hq0_M3P_B_1.pdb
 11 10 0 0 0
SMALL
GASTEIGER

@<TRIPOS>ATOM
      1  C1       -14.2250  -41.0790   -3.5470 C.2   311  M3P311      0.2747
      2  C2       -15.6820  -40.3550   -3.0500 C.2   311  M3P311      0.4260
      3  C3       -15.3500  -40.5440   -8.7270 C.2   311  M3P311      0.1736
      4  C4       -14.4540  -41.1470   -7.3780 C.2   311  M3P311      0.0376
      5  C5       -14.6750  -40.6430   -6.1740 C.2   311  M3P311      0.0064
      6  C6       -13.7990  -41.2080   -4.8040 C.2   311  M3P311      0.0491
      7  C        -14.6690  -40.4540  -10.1120 C.3   311  M3P311      0.0773
      8  O1       -13.4580  -41.5560   -2.4720 O.2   311  M3P311     -0.2795
      9  O2       -15.9300  -40.3150   -1.6420 O.co2 311  M3P311     -0.2369
     10  O3       -16.4970  -39.9070   -3.8350 O.co2 311  M3P311     -0.2369
     11  O4       -16.5020  -40.1870   -8.5660 O.2   311  M3P311     -0.2913
@<TRIPOS>BOND
     1     7     3    1
     2     3    11    2
     3     3     4    1
     4     4     5    2
     5     5     6    1
     6     6     1    2
     7    10     2   ar
     8     1     2    1
     9     1     8    1
    10     2     9   ar
