@<TRIPOS>MOLECULE
3hq1_FLC_B_1.pdb
 13 12 0 0 0
SMALL
GASTEIGER

@<TRIPOS>ATOM
      1  CAC       21.0130   17.8520  -34.7050 C.2   705  FLC705      0.3680
      2  CA        20.3130   18.8260  -33.7810 C.3   705  FLC705      0.1560
      3  CB        19.1400   18.1740  -33.0490 C.3   705  FLC705      0.2402
      4  CBC       18.7430   19.1440  -31.9600 C.2   705  FLC705      0.3927
      5  CG        17.9850   17.8620  -34.0050 C.3   705  FLC705      0.1560
      6  CGC       16.7860   17.2340  -33.3250 C.2   705  FLC705      0.3680
      7  OA1       20.4950   17.6140  -35.8140 O.co2 705  FLC705     -0.2455
      8  OA2       22.0820   17.3250  -34.3240 O.co2 705  FLC705     -0.2455
      9  OB1       17.9000   20.0120  -32.2200 O.co2 705  FLC705     -0.2429
     10  OB2       19.2830   19.0600  -30.8340 O.co2 705  FLC705     -0.2429
     11  OG1       16.9370   16.4400  -32.3670 O.co2 705  FLC705     -0.2455
     12  OG2       15.6610   17.5290  -33.7620 O.co2 705  FLC705     -0.2455
     13  OHB       19.5650   16.9480  -32.4410 O.3   705  FLC705     -0.2129
@<TRIPOS>BOND
     1     7     1   ar
     2     1     8   ar
     3     1     2    1
     4     5     6    1
     5     5     3    1
     6     2     3    1
     7    12     6   ar
     8     6    11   ar
     9     3    13    1
    10     3     4    1
    11     9     4   ar
    12     4    10   ar
