@<TRIPOS>MOLECULE
3hq4_NAD_O_1.pdb
 44 48 0 0 0
SMALL
GASTEIGER

@<TRIPOS>ATOM
      1  PA        -1.9530   -0.5710   24.2800 P.3     0  NAD0        0.2189
      2  O1A       -0.8740    0.2720   23.8490 O.3     0  NAD0       -0.4371
      3  O2A       -2.0450   -1.9130   23.6230 O.2     0  NAD0       -0.5170
      4  O5B       -3.2820    0.1720   23.8380 O.3     0  NAD0       -0.3112
      5  C5B       -3.4010    1.5640   23.9880 C.3     0  NAD0        0.1813
      6  C4B       -4.2170    1.9960   22.8050 C.3     0  NAD0        0.1821
      7  O4B       -4.7150    3.2880   23.0280 O.3     0  NAD0       -0.3135
      8  C3B       -3.3670    2.0090   21.5190 C.3     0  NAD0        0.2184
      9  O3B       -4.0310    1.1280   20.6090 O.3     0  NAD0       -0.2174
     10  C2B       -3.2810    3.4790   21.0880 C.3     0  NAD0        0.2570
     11  O2B       -3.3660    3.6400   19.6840 O.3     0  NAD0       -0.2130
     12  C1B       -4.5450    3.9750   21.7800 C.3     0  NAD0        0.3186
     13  N9A       -5.1490    5.2920   21.7980 N.pl3   0  NAD0       -0.1439
     14  C8A       -6.4280    5.2920   21.2900 C.3     0  NAD0        0.3377
     15  N7A       -7.0400    6.4760   21.3440 N.2     0  NAD0       -0.2095
     16  C5A       -6.1550    7.2720   21.9240 C.2     0  NAD0        0.2526
     17  C6A       -6.4110    8.5710   22.1600 C.2     0  NAD0        0.4393
     18  N6A       -7.6790    8.8760   22.0430 N.pl3   0  NAD0        0.2180
     19  N1A       -5.4760    9.3440   22.7740 N.2     0  NAD0        0.0021
     20  C2A       -4.2930    8.6400   23.0780 C.3     0  NAD0        0.5254
     21  N3A       -4.0080    7.2810   22.8520 N.2     0  NAD0       -0.0055
     22  C4A       -4.9700    6.5820   22.2510 C.2     0  NAD0        0.3518
     23  O3        -1.9100   -0.6130   25.8990 O.3     0  NAD0       -0.2703
     24  PN        -2.6250   -1.7360   26.8060 P.3     0  NAD0        0.2189
     25  O1N       -1.6600   -2.7720   27.1770 O.3     0  NAD0       -0.4371
     26  O2N       -3.8850   -2.1500   26.0870 O.2     0  NAD0       -0.5170
     27  O5D       -3.1230   -0.8950   28.0640 O.3     0  NAD0       -0.3112
     28  C5D       -4.0640    0.1800   27.9680 C.3     0  NAD0        0.1813
     29  C4D       -4.4020    0.6370   29.3820 C.3     0  NAD0        0.1799
     30  O4D       -4.8010   -0.4800   30.2140 O.3     0  NAD0       -0.3327
     31  C3D       -3.1810    1.2260   30.1200 C.3     0  NAD0        0.2158
     32  O3D       -3.7320    2.0890   31.1160 O.3     0  NAD0       -0.2175
     33  C2D       -2.5770    0.0140   30.8450 C.3     0  NAD0        0.2309
     34  O2D       -1.8320    0.3270   31.9990 O.3     0  NAD0       -0.2158
     35  C1D       -3.8410   -0.7480   31.2520 C.3     0  NAD0        0.2263
     36  N1N       -3.6530   -2.1940   31.5290 N.pl3   0  NAD0       -0.2787
     37  C2N       -2.8850   -2.9860   30.7300 C.3     0  NAD0        0.1244
     38  C3N       -2.7500   -4.3550   31.0200 C.2     0  NAD0        0.0544
     39  C7N       -1.7090   -5.1620   30.3080 C.2     0  NAD0        0.2818
     40  O7N       -1.4550   -4.9730   28.9400 O.2     0  NAD0       -0.2670
     41  N7N       -1.1130   -6.0950   30.9840 N.am    0  NAD0       -0.0839
     42  C4N       -3.3900   -4.9190   32.1210 C.2     0  NAD0        0.0033
     43  C5N       -4.1960   -4.1020   32.9340 C.2     0  NAD0        0.0157
     44  C6N       -4.3130   -2.7490   32.6160 C.2     0  NAD0        0.0633
@<TRIPOS>BOND
     1    11    10    1
     2     9     8    1
     3    10     8    1
     4    10    12    1
     5    14    15    1
     6    14    13    1
     7    15    16    2
     8     8     6    1
     9    12    13    1
    10    12     7    1
    11    13    22    1
    12    16    17    1
    13    16    22    1
    14    18    17    1
    15    17    19    2
    16    22    21    2
    17    19    20    1
    18     6     7    1
    19     6     5    1
    20    21    20    1
    21     3     1    2
    22     4     5    1
    23     4     1    1
    24     2     1    1
    25     1    23    1
    26    23    24    1
    27    26    24    2
    28    24    25    1
    29    24    27    1
    30    28    27    1
    31    28    29    1
    32    40    39    2
    33    29    31    1
    34    29    30    1
    35    31    33    1
    36    31    32    1
    37    30    35    1
    38    39    41   am
    39    39    38    1
    40    37    38    1
    41    37    36    1
    42    33    35    1
    43    33    34    1
    44    38    42    2
    45    35    36    1
    46    36    44    1
    47    42    43    1
    48    44    43    2
