@<TRIPOS>MOLECULE
3hq5_GKK_A_1.pdb
 27 29 0 0 0
SMALL
GASTEIGER

@<TRIPOS>ATOM
      1 CL1        -1.8590  -11.0890   28.2970 Cl    934  GKK934     -0.0815
      2  C1        -3.4660   -4.1970   21.6290 C.3   934  GKK934      0.0897
      3  C2        -3.1340   -4.1110   24.0250 C.3   934  GKK934      0.0739
      4  C3        -3.4470   -5.0640   25.1480 C.3   934  GKK934      0.0385
      5  C4        -4.0930   -6.2970   24.5670 C.3   934  GKK934      0.0904
      6  C5        -4.0830   -6.0750   23.0700 C.3   934  GKK934      0.0921
      7  C9        -3.6260  -10.7350   22.3250 C.ar  934  GKK934     -0.0003
      8  C10       -2.7230  -10.8860   21.3260 C.ar  934  GKK934     -0.0001
      9  C8        -3.4280   -9.7670   23.2620 C.ar  934  GKK934     -0.0027
     10  C7        -2.3420   -8.9410   23.2320 C.ar  934  GKK934      0.0015
     11  C6        -2.1760   -7.8980   24.2740 C.3   934  GKK934      0.1176
     12  N1        -3.2040   -4.9400   22.8360 N.3   934  GKK934     -0.2700
     13  C12       -1.4130   -9.1110   22.2230 C.ar  934  GKK934      0.0691
     14  C13       -0.1850   -8.2650   22.1000 C.3   934  GKK934      0.4183
     15  C14       -3.5570   -8.1090   26.1970 C.ar  934  GKK934      0.0490
     16  C15       -4.4960   -7.6820   27.0870 C.ar  934  GKK934      0.0153
     17  N2        -3.3960   -7.5220   24.9300 N.pl3 934  GKK934     -0.3038
     18  C16       -4.6450   -8.2630   28.3070 C.ar  934  GKK934      0.0124
     19  C17       -3.8610   -9.3070   28.7030 C.ar  934  GKK934      0.0791
     20  C18       -4.0740   -9.8230   29.9950 C.1   934  GKK934      0.1013
     21  N3        -4.2480  -10.2450   31.0510 N.1   934  GKK934     -0.1908
     22  C19       -2.8930   -9.7820   27.8470 C.ar  934  GKK934      0.0685
     23  C20       -2.7680   -9.1680   26.6150 C.ar  934  GKK934      0.0266
     24  C11       -1.6290  -10.0860   21.2770 C.ar  934  GKK934      0.0036
     25  F1         0.4690   -8.0600   23.1780 F     934  GKK934     -0.1659
     26  F2         0.7090   -8.7210   21.2870 F     934  GKK934     -0.1659
     27  F3        -0.3950   -7.0810   21.6910 F     934  GKK934     -0.1659
@<TRIPOS>BOND
     1    24     8   ar
     2    24    13   ar
     3    26    14    1
     4     8     7   ar
     5     2    12    1
     6    27    14    1
     7    14    13    1
     8    14    25    1
     9    13    10   ar
    10     7     9   ar
    11    12     6    1
    12    12     3    1
    13     6     5    1
    14    10     9   ar
    15    10    11    1
    16     3     4    1
    17    11    17    1
    18     5    17    1
    19     5     4    1
    20    17    15    1
    21    15    23   ar
    22    15    16   ar
    23    23    22   ar
    24    16    18   ar
    25    22     1    1
    26    22    19   ar
    27    18    19   ar
    28    19    20    1
    29    20    21    3
