@<TRIPOS>MOLECULE
3hq6_HEM_A_1.pdb
 43 50 0 0 0
SMALL
GASTEIGER

@<TRIPOS>ATOM
      1  CHA        4.5290   -3.6250   -2.6020 C.2   400  HEM400      0.0000
      2  CHB        3.2280   -0.8250   -6.4060 C.2   400  HEM400      0.0000
      3  CHC        3.1930   -4.6820   -9.2860 C.2   400  HEM400      0.0000
      4  CHD        2.4810   -7.2630   -5.2630 C.2   400  HEM400      0.0000
      5  C1A        4.2930   -2.4840   -3.3690 C.ar  400  HEM400      0.0000
      6  C2A        4.3720   -1.0560   -3.0250 C.ar  400  HEM400      0.0000
      7  C3A        3.9830   -0.3720   -4.0730 C.ar  400  HEM400      0.0000
      8  C4A        3.6580   -1.2810   -5.1510 C.ar  400  HEM400      0.0000
      9  CMA        3.8820    1.1570   -4.2180 C.3   400  HEM400      0.0000
     10  CAA        4.8130   -0.3910   -1.6930 C.3   400  HEM400      0.0000
     11  CBA        3.6450    0.1180   -0.8880 C.3   400  HEM400      0.0000
     12  CGA        4.1670    1.0750    0.1560 C.2   400  HEM400      0.0000
     13  O1A        3.3970    1.5330    1.0450 O.co2 400  HEM400      0.0000
     14  O2A        5.3740    1.4200    0.0860 O.co2 400  HEM400      0.0000
     15  C1B        3.2570   -1.5880   -7.5390 C.2   400  HEM400      0.0000
     16  C2B        3.2810   -1.1290   -8.9210 C.2   400  HEM400      0.0000
     17  C3B        3.3150   -2.2440   -9.6920 C.2   400  HEM400      0.0000
     18  C4B        3.2710   -3.3950   -8.8490 C.2   400  HEM400      0.0000
     19  CMB        3.2560    0.3380   -9.4210 C.3   400  HEM400      0.0000
     20  CAB        3.4070   -2.3640  -11.2580 C.3   400  HEM400      0.0000
     21  CBB        4.6530   -2.0570  -11.8370 C.3   400  HEM400      0.0000
     22  C1C        2.7710   -5.6910   -8.4600 C.ar  400  HEM400      0.0000
     23  C2C        2.3010   -6.9910   -8.8420 C.ar  400  HEM400      0.0000
     24  C3C        2.1260   -7.7370   -7.7250 C.ar  400  HEM400      0.0000
     25  C4C        2.5400   -6.9180   -6.6000 C.ar  400  HEM400      0.0000
     26  CMC        2.0450   -7.3880  -10.3180 C.3   400  HEM400      0.0000
     27  CAC        1.5760   -9.2190   -7.5720 C.2   400  HEM400      0.0000
     28  CBC        1.8530  -10.2820   -8.3900 C.2   400  HEM400      0.0000
     29  C1D        3.1010   -6.5290   -4.2430 C.2   400  HEM400      0.0000
     30  C2D        3.5090   -7.1460   -2.9980 C.2   400  HEM400      0.0000
     31  C3D        4.1260   -6.0520   -2.2090 C.2   400  HEM400      0.0000
     32  C4D        4.0600   -4.8460   -3.0020 C.2   400  HEM400      0.0000
     33  CMD        3.3810   -8.6280   -2.5090 C.3   400  HEM400      0.0000
     34  CAD        4.7790   -6.2580   -0.8220 C.3   400  HEM400      0.0000
     35  CBD        6.2190   -6.6620   -1.1580 C.3   400  HEM400      0.0000
     36  CGD        6.9900   -6.7290    0.1420 C.2   400  HEM400      0.0000
     37  O1D        7.2060   -7.8800    0.6880 O.co2 400  HEM400      0.0000
     38  O2D        7.3190   -5.5930    0.6320 O.co2 400  HEM400      0.0000
     39  NA         3.8370   -2.5770   -4.6840 N.ar  400  HEM400      0.0000
     40  NB         3.2630   -3.0210   -7.5120 N.2   400  HEM400      0.0000
     41  NC         2.9220   -5.6740   -7.0870 N.ar  400  HEM400      0.0000
     42  ND         3.3860   -5.1610   -4.1970 N.2   400  HEM400      0.0000
     43 FE          3.3190   -4.0700   -5.8630 Fe    400  HEM400      0.0000
@<TRIPOS>BOND
     1    21    20    1
     2    20    17    1
     3    26    23    1
     4    17    16    2
     5    17    18    1
     6    19    16    1
     7     3    18    2
     8     3    22    1
     9    16    15    1
    10    18    40    1
    11    23    22   ar
    12    23    24   ar
    13    22    41   ar
    14    28    27    2
    15    24    27    1
    16    24    25   ar
    17    15    40    2
    18    15     2    1
    19    40    43    1
    20    41    25   ar
    21    41    43    1
    22    25     4    1
    23     2     8    2
    24    43    39    1
    25    43    42    1
    26     4    29    2
    27     8    39   ar
    28     8     7   ar
    29    39     5   ar
    30    29    42    1
    31    29    30    1
    32     9     7    1
    33    42    32    2
    34     7     6   ar
    35     5     6   ar
    36     5     1    2
    37     6    10    1
    38    32     1    1
    39    32    31    1
    40    30    33    1
    41    30    31    2
    42    31    34    1
    43    10    11    1
    44    35    34    1
    45    35    36    1
    46    11    12    1
    47    14    12   ar
    48    36    38   ar
    49    36    37   ar
    50    12    13   ar
