@<TRIPOS>MOLECULE
3hq7_HEM_A_1.pdb
 43 50 0 0 0
SMALL
GASTEIGER

@<TRIPOS>ATOM
      1  CHA       25.5480  -16.0740    4.7550 C.2   401  HEM401      0.0000
      2  CHB       29.2180  -17.4980    7.6270 C.2   401  HEM401      0.0000
      3  CHC       26.3620  -15.6760   11.1000 C.2   401  HEM401      0.0000
      4  CHD       22.1890  -16.0970    8.3900 C.2   401  HEM401      0.0000
      5  C1A       26.7760  -16.5250    5.2030 C.ar  401  HEM401      0.0000
      6  C2A       27.8110  -16.9480    4.3220 C.ar  401  HEM401      0.0000
      7  C3A       28.8480  -17.3490    5.1160 C.ar  401  HEM401      0.0000
      8  C4A       28.4640  -17.1750    6.5140 C.ar  401  HEM401      0.0000
      9  CMA       30.2500  -17.9450    4.7050 C.3   401  HEM401      0.0000
     10  CAA       27.6940  -16.8740    2.7500 C.3   401  HEM401      0.0000
     11  CBA       28.0290  -18.2620    2.2170 C.3   401  HEM401      0.0000
     12  CGA       28.4580  -18.5400    0.7650 C.2   401  HEM401      0.0000
     13  O1A       28.5730  -19.7880    0.4760 O.co2 401  HEM401      0.0000
     14  O2A       28.7530  -17.6130   -0.0720 O.co2 401  HEM401      0.0000
     15  C1B       28.8770  -16.9840    8.8450 C.2   401  HEM401      0.0000
     16  C2B       29.6780  -16.7700   10.0270 C.2   401  HEM401      0.0000
     17  C3B       28.8770  -16.2450   10.9800 C.2   401  HEM401      0.0000
     18  C4B       27.5380  -16.1180   10.4530 C.2   401  HEM401      0.0000
     19  CMB       31.1880  -17.0990   10.0550 C.3   401  HEM401      0.0000
     20  CAB       29.2720  -15.7510   12.4180 C.2   401  HEM401      0.0000
     21  CBB       30.2540  -14.8020   12.5270 C.2   401  HEM401      0.0000
     22  C1C       25.0460  -15.7520   10.6460 C.ar  401  HEM401      0.0000
     23  C2C       23.9320  -15.4540   11.4800 C.ar  401  HEM401      0.0000
     24  C3C       22.7800  -15.5990   10.8360 C.ar  401  HEM401      0.0000
     25  C4C       23.0880  -15.9290    9.4710 C.ar  401  HEM401      0.0000
     26  CMC       24.0250  -15.1630   13.0250 C.3   401  HEM401      0.0000
     27  CAC       21.4920  -15.2980   11.6460 C.2   401  HEM401      0.0000
     28  CBC       20.2040  -15.3310   11.3770 C.2   401  HEM401      0.0000
     29  C1D       22.7380  -15.9740    7.1010 C.2   401  HEM401      0.0000
     30  C2D       22.0890  -15.5370    5.8780 C.2   401  HEM401      0.0000
     31  C3D       23.1530  -15.5680    4.8080 C.2   401  HEM401      0.0000
     32  C4D       24.3410  -15.9840    5.4580 C.2   401  HEM401      0.0000
     33  CMD       20.5960  -15.1920    5.6960 C.3   401  HEM401      0.0000
     34  CAD       23.0630  -15.2270    3.3040 C.3   401  HEM401      0.0000
     35  CBD       22.9750  -13.7110    3.1140 C.3   401  HEM401      0.0000
     36  CGD       22.8930  -13.3670    1.6120 C.2   401  HEM401      0.0000
     37  O1D       22.5980  -12.1520    1.2850 O.co2 401  HEM401      0.0000
     38  O2D       23.1290  -14.2950    0.7210 O.co2 401  HEM401      0.0000
     39  NA        27.1690  -16.6860    6.5550 N.ar  401  HEM401      0.0000
     40  NB        27.5910  -16.5850    9.1380 N.2   401  HEM401      0.0000
     41  NC        24.5250  -15.9920    9.3720 N.ar  401  HEM401      0.0000
     42  ND        24.0690  -16.2020    6.8200 N.2   401  HEM401      0.0000
     43 FE         25.8880  -16.3360    7.9070 Fe    401  HEM401      0.0000
@<TRIPOS>BOND
     1    14    12   ar
     2    13    12   ar
     3    38    36   ar
     4    12    11    1
     5    37    36   ar
     6    36    35    1
     7    11    10    1
     8    10     6    1
     9    35    34    1
    10    34    31    1
    11     6     7   ar
    12     6     5   ar
    13     9     7    1
    14     1     5    2
    15     1    32    1
    16    31    32    1
    17    31    30    2
    18     7     8   ar
    19     5    39   ar
    20    32    42    2
    21    33    30    1
    22    30    29    1
    23     8    39   ar
    24     8     2    2
    25    39    43    1
    26    42    29    1
    27    42    43    1
    28    29     4    2
    29     2    15    1
    30    43    40    1
    31    43    41    1
    32     4    25    1
    33    15    40    2
    34    15    16    1
    35    40    18    1
    36    41    25   ar
    37    41    22   ar
    38    25    24   ar
    39    16    19    1
    40    16    17    2
    41    18    17    1
    42    18     3    2
    43    22     3    1
    44    22    23   ar
    45    24    23   ar
    46    24    27    1
    47    17    20    1
    48    28    27    2
    49    23    26    1
    50    20    21    2
