@<TRIPOS>MOLECULE
3hq8_HEM_A_1.pdb
 43 50 0 0 0
SMALL
GASTEIGER

@<TRIPOS>ATOM
      1  CHA       32.2020   -2.5510   29.0350 C.2   400  HEM400      0.0000
      2  CHB       30.9010    0.9080   25.8660 C.2   400  HEM400      0.0000
      3  CHC       30.2950   -2.1770   22.2450 C.2   400  HEM400      0.0000
      4  CHD       29.6280   -5.2170   25.9320 C.2   400  HEM400      0.0000
      5  C1A       32.0000   -1.3000   28.4680 C.ar  400  HEM400      0.0000
      6  C2A       32.2950    0.0150   29.0320 C.ar  400  HEM400      0.0000
      7  C3A       31.9300    0.9740   28.1510 C.ar  400  HEM400      0.0000
      8  C4A       31.3900    0.2900   26.9930 C.ar  400  HEM400      0.0000
      9  CMA       32.0740    2.5220   28.2820 C.3   400  HEM400      0.0000
     10  CAA       32.9540    0.2310   30.4190 C.3   400  HEM400      0.0000
     11  CBA       31.8620    0.2300   31.4770 C.3   400  HEM400      0.0000
     12  CGA       32.5140    0.9370   32.6020 C.2   400  HEM400      0.0000
     13  O1A       31.8640    1.3040   33.6480 O.co2 400  HEM400      0.0000
     14  O2A       33.7350    1.1230   32.3440 O.co2 400  HEM400      0.0000
     15  C1B       30.8240    0.3990   24.6000 C.2   400  HEM400      0.0000
     16  C2B       30.9780    1.1650   23.3850 C.2   400  HEM400      0.0000
     17  C3B       30.8120    0.3080   22.3630 C.2   400  HEM400      0.0000
     18  C4B       30.5400   -1.0080   22.9150 C.2   400  HEM400      0.0000
     19  CMB       31.2730    2.7070   23.3500 C.3   400  HEM400      0.0000
     20  CAB       30.8910    0.6200   20.8420 C.2   400  HEM400      0.0000
     21  CBB       31.8670    0.1840   20.0260 C.2   400  HEM400      0.0000
     22  C1C       29.9120   -3.2760   22.9740 C.ar  400  HEM400      0.0000
     23  C2C       29.1850   -4.4220   22.5020 C.ar  400  HEM400      0.0000
     24  C3C       29.0180   -5.2510   23.5410 C.ar  400  HEM400      0.0000
     25  C4C       29.6310   -4.6420   24.7010 C.ar  400  HEM400      0.0000
     26  CMC       28.6880   -4.6390   21.0660 C.3   400  HEM400      0.0000
     27  CAC       28.2850   -6.6260   23.5970 C.2   400  HEM400      0.0000
     28  CBC       28.4410   -7.5870   22.6770 C.2   400  HEM400      0.0000
     29  C1D       30.3850   -4.9110   27.0120 C.2   400  HEM400      0.0000
     30  C2D       30.8020   -5.8520   28.0120 C.2   400  HEM400      0.0000
     31  C3D       31.6440   -5.0440   29.0000 C.2   400  HEM400      0.0000
     32  C4D       31.6110   -3.6890   28.4930 C.2   400  HEM400      0.0000
     33  CMD       30.4930   -7.3570   28.0400 C.3   400  HEM400      0.0000
     34  CAD       32.3480   -5.5820   30.2630 C.3   400  HEM400      0.0000
     35  CBD       33.7100   -6.0460   29.7800 C.3   400  HEM400      0.0000
     36  CGD       34.5610   -6.5920   30.8910 C.2   400  HEM400      0.0000
     37  O1D       34.9720   -7.7770   30.7940 O.co2 400  HEM400      0.0000
     38  O2D       34.8480   -5.8420   31.8580 O.co2 400  HEM400      0.0000
     39  NA        31.4230   -1.0970   27.2330 N.ar  400  HEM400      0.0000
     40  NB        30.5590   -0.9120   24.2710 N.2   400  HEM400      0.0000
     41  NC        30.1760   -3.4440   24.3300 N.ar  400  HEM400      0.0000
     42  ND        30.8540   -3.6770   27.3220 N.2   400  HEM400      0.0000
     43 FE         30.7140   -2.2060   25.8220 Fe    400  HEM400      0.0000
@<TRIPOS>BOND
     1    21    20    2
     2    20    17    1
     3    26    23    1
     4     3    18    2
     5     3    22    1
     6    17    18    1
     7    17    16    2
     8    23    22   ar
     9    23    24   ar
    10    28    27    2
    11    18    40    1
    12    22    41   ar
    13    19    16    1
    14    16    15    1
    15    24    27    1
    16    24    25   ar
    17    40    15    2
    18    40    43    1
    19    41    25   ar
    20    41    43    1
    21    15     2    1
    22    25     4    1
    23    43    39    1
    24    43    42    1
    25     2     8    2
    26     4    29    2
    27     8    39   ar
    28     8     7   ar
    29    29    42    1
    30    29    30    1
    31    39     5   ar
    32    42    32    2
    33    30    33    1
    34    30    31    2
    35     7     9    1
    36     7     6   ar
    37     5     6   ar
    38     5     1    2
    39    32    31    1
    40    32     1    1
    41    31    34    1
    42     6    10    1
    43    35    34    1
    44    35    36    1
    45    10    11    1
    46    37    36   ar
    47    36    38   ar
    48    11    12    1
    49    14    12   ar
    50    12    13   ar
