@<TRIPOS>MOLECULE
3hq9_HEM_A_1.pdb
 43 50 0 0 0
SMALL
GASTEIGER

@<TRIPOS>ATOM
      1  CHA      -10.7730   10.4560   -7.5060 C.2   400  HEM400      0.0000
      2  CHB       -6.0940   10.9810   -6.5050 C.2   400  HEM400      0.0000
      3  CHC       -7.0720    9.5830   -1.9780 C.2   400  HEM400      0.0000
      4  CHD      -11.0680    7.5330   -3.6370 C.2   400  HEM400      0.0000
      5  C1A       -9.4400   10.7270   -7.6700 C.ar  400  HEM400      0.0000
      6  C2A       -8.7810   11.2560   -8.8540 C.ar  400  HEM400      0.0000
      7  C3A       -7.4840   11.3720   -8.5550 C.ar  400  HEM400      0.0000
      8  C4A       -7.2890   10.9570   -7.1760 C.ar  400  HEM400      0.0000
      9  CMA       -6.3530   11.9050   -9.4660 C.3   400  HEM400      0.0000
     10  CAA       -9.5060   11.5870  -10.1830 C.3   400  HEM400      0.0000
     11  CBA       -8.9600   10.7480  -11.3420 C.3   400  HEM400      0.0000
     12  CGA       -8.8910   11.5500  -12.6130 C.2   400  HEM400      0.0000
     13  O1A       -8.8010   10.9040  -13.6900 O.co2 400  HEM400      0.0000
     14  O2A       -8.8840   12.8130  -12.5640 O.co2 400  HEM400      0.0000
     15  C1B       -5.9790   10.7830   -5.1490 C.2   400  HEM400      0.0000
     16  C2B       -4.8650   11.1410   -4.3170 C.2   400  HEM400      0.0000
     17  C3B       -5.1500   10.7700   -3.0670 C.2   400  HEM400      0.0000
     18  C4B       -6.4490   10.1460   -3.0710 C.2   400  HEM400      0.0000
     19  CMB       -3.6080   11.8690   -4.8050 C.3   400  HEM400      0.0000
     20  CAB       -4.2970   10.9870   -1.7970 C.3   400  HEM400      0.0000
     21  CBB       -4.1480   12.2950   -1.3810 C.3   400  HEM400      0.0000
     22  C1C       -8.1780    8.7910   -2.0470 C.ar  400  HEM400      0.0000
     23  C2C       -8.6240    7.8480   -1.0610 C.ar  400  HEM400      0.0000
     24  C3C       -9.7460    7.2780   -1.5240 C.ar  400  HEM400      0.0000
     25  C4C      -10.0100    7.8400   -2.8330 C.ar  400  HEM400      0.0000
     26  CMC       -7.9200    7.5880    0.2800 C.3   400  HEM400      0.0000
     27  CAC      -10.6390    6.1860   -0.8780 C.2   400  HEM400      0.0000
     28  CBC      -11.1110    6.2420    0.3890 C.2   400  HEM400      0.0000
     29  C1D      -11.4260    8.2500   -4.7520 C.2   400  HEM400      0.0000
     30  C2D      -12.7510    8.2760   -5.3170 C.2   400  HEM400      0.0000
     31  C3D      -12.6620    9.2040   -6.4840 C.2   400  HEM400      0.0000
     32  C4D      -11.2980    9.6510   -6.5420 C.2   400  HEM400      0.0000
     33  CMD      -14.0090    7.5460   -4.8230 C.3   400  HEM400      0.0000
     34  CAD      -13.8260    9.5960   -7.3840 C.3   400  HEM400      0.0000
     35  CBD      -14.3940   10.8910   -6.7930 C.3   400  HEM400      0.0000
     36  CGD      -15.5730   11.3980   -7.5870 C.2   400  HEM400      0.0000
     37  O1D      -16.7010   11.4750   -7.0280 O.co2 400  HEM400      0.0000
     38  O2D      -15.3620   11.7340   -8.7690 O.co2 400  HEM400      0.0000
     39  NA        -8.4940   10.5350   -6.6690 N.ar  400  HEM400      0.0000
     40  NB        -6.9460   10.2090   -4.3520 N.2   400  HEM400      0.0000
     41  NC        -9.0200    8.7580   -3.1270 N.ar  400  HEM400      0.0000
     42  ND       -10.5910    9.0390   -5.5070 N.2   400  HEM400      0.0000
     43 FE         -8.7660    9.6200   -4.9270 Fe    400  HEM400      0.0000
@<TRIPOS>BOND
     1    13    12   ar
     2    12    14   ar
     3    12    11    1
     4    11    10    1
     5    10     6    1
     6     9     7    1
     7     6     7   ar
     8     6     5   ar
     9    38    36   ar
    10     7     8   ar
    11     5     1    2
    12     5    39   ar
    13    36    37   ar
    14    36    35    1
    15     1    32    1
    16    34    35    1
    17    34    31    1
    18     8    39   ar
    19     8     2    2
    20    39    43    1
    21    32    31    1
    22    32    42    2
    23     2    15    1
    24    31    30    2
    25    42    43    1
    26    42    29    1
    27    30    33    1
    28    30    29    1
    29    15    40    2
    30    15    16    1
    31    43    40    1
    32    43    41    1
    33    19    16    1
    34    29     4    2
    35    40    18    1
    36    16    17    2
    37     4    25    1
    38    41    25   ar
    39    41    22   ar
    40    18    17    1
    41    18     3    2
    42    17    20    1
    43    25    24   ar
    44    22     3    1
    45    22    23   ar
    46    20    21    1
    47    24    23   ar
    48    24    27    1
    49    23    26    1
    50    27    28    2
