@<TRIPOS>MOLECULE
3hqd_ANP_A_1.pdb
 31 33 0 0 0
SMALL
GASTEIGER

@<TRIPOS>ATOM
      1  PG        12.1820    7.9660   35.1100 P.3   601  ANP601      0.4884
      2  O1G       12.5480    6.5230   35.4660 O.3   601  ANP601     -0.1240
      3  O2G       13.3470    8.5560   34.3540 O.2   601  ANP601     -0.2331
      4  O3G       11.8750    8.7450   36.3540 O.3   601  ANP601     -0.1240
      5  PB         9.4130    7.6660   34.7940 P.3   601  ANP601      0.4669
      6  O1B        9.2730    6.2180   34.6610 O.2   601  ANP601     -0.2351
      7  O2B        9.1040    8.1260   36.2890 O.3   601  ANP601     -0.1253
      8  N3B       10.9010    8.1440   34.1430 N.3   601  ANP601     -0.0163
      9  PA         7.1970    8.7240   34.1430 P.3   601  ANP601      0.2220
     10  O1A        7.1300   10.0410   34.8070 O.3   601  ANP601     -0.4370
     11  O2A        5.9590    7.9290   33.5810 O.2   601  ANP601     -0.5170
     12  O3A        8.6160    8.4110   33.6640 O.3   601  ANP601     -0.2360
     13  O5'        7.2400    9.4990   32.5820 O.3   601  ANP601     -0.3111
     14  C5'        6.1520   10.2510   32.5810 C.3   601  ANP601      0.1813
     15  C4'        5.6040   11.0910   31.5180 C.3   601  ANP601      0.1821
     16  O4'        4.9520   10.0710   30.6680 O.3   601  ANP601     -0.3135
     17  C3'        4.6060   11.6140   32.5160 C.3   601  ANP601      0.2184
     18  O3'        4.4090   13.0450   32.4430 O.3   601  ANP601     -0.2174
     19  C2'        3.3090   10.8110   32.3410 C.3   601  ANP601      0.2570
     20  O2'        2.0940   11.5850   32.2720 O.3   601  ANP601     -0.2130
     21  C1'        3.5480    9.9970   31.0700 C.3   601  ANP601      0.3186
     22  N9         2.9570    8.7450   31.2840 N.pl3 601  ANP601     -0.1439
     23  C8         3.5190    7.5980   31.7920 C.3   601  ANP601      0.3377
     24  N7         2.6010    6.6520   31.8360 N.2   601  ANP601     -0.2095
     25  C5         1.4370    7.1440   31.3780 C.2   601  ANP601      0.2526
     26  C6         0.1310    6.5950   31.1830 C.2   601  ANP601      0.4393
     27  N6        -0.1550    5.3050   31.5740 N.pl3 601  ANP601      0.2180
     28  N1        -0.8360    7.3890   30.6640 N.2   601  ANP601      0.0021
     29  C2        -0.5930    8.6510   30.2950 C.3   601  ANP601      0.5254
     30  N3         0.6150    9.1980   30.4710 N.2   601  ANP601     -0.0055
     31  C4         1.6520    8.4810   30.9620 C.2   601  ANP601      0.3518
@<TRIPOS>BOND
     1    29    30    1
     2    29    28    1
     3    30    31    2
     4    28    26    2
     5    16    21    1
     6    16    15    1
     7    31    22    1
     8    31    25    1
     9    21    22    1
    10    21    19    1
    11    26    25    1
    12    26    27    1
    13    22    23    1
    14    25    24    2
    15    15    17    1
    16    15    14    1
    17    23    24    1
    18    20    19    1
    19    19    17    1
    20    18    17    1
    21    14    13    1
    22    13     9    1
    23    11     9    2
    24    12     9    1
    25    12     5    1
    26     9    10    1
    27     8     5    1
    28     8     1    1
    29     3     1    2
    30     6     5    2
    31     5     7    1
    32     1     2    1
    33     1     4    1
