@<TRIPOS>MOLECULE
3hqi_III_C_1.pdb
 40 39 0 0 0
SMALL
GASTEIGER

@<TRIPOS>ATOM
      1  N        -64.2550   71.3640   -8.0120 N.3    97  GLU97      -0.1231
      2  CA       -63.2220   71.7350   -9.0330 C.3    97  GLU97       0.1694
      3  C        -61.8360   71.2040   -8.6370 C.2    97  GLU97       0.2592
      4  O        -61.2890   71.5810   -7.5990 O.2    97  GLU97      -0.2718
      5  CB       -63.1770   73.2590   -9.2050 C.3    97  GLU97       0.0304
      6  N        -61.2780   70.3310   -9.4740 N.am   98  VAL98      -0.1966
      7  CA       -59.9740   69.7270   -9.2140 C.3    98  VAL98       0.1727
      8  C        -58.8090   70.5100   -9.8190 C.2    98  VAL98       0.2617
      9  O        -58.8130   70.8280  -11.0000 O.2    98  VAL98      -0.2715
     10  CB       -59.9180   68.2630   -9.7580 C.3    98  VAL98       0.0290
     11  CG1      -58.5230   67.6780   -9.5810 C.3    98  VAL98       0.0023
     12  CG2      -60.9340   67.3990   -9.0420 C.3    98  VAL98       0.0023
     13  N        -57.8070   70.8100   -9.0050 N.am   99  THR99      -0.1937
     14  CA       -56.6420   71.5220   -9.4920 C.3    99  THR99       0.2028
     15  C        -55.4060   70.9020   -8.8810 C.2    99  THR99       0.2643
     16  O        -55.5050   70.0210   -8.0360 O.2    99  THR99      -0.2714
     17  CB       -56.6820   73.0050   -9.1090 C.3    99  THR99       0.1808
     18  OG1      -56.7140   73.1330   -7.6800 O.3    99  THR99      -0.2208
     19  CG2      -57.9090   73.6710   -9.7090 C.3    99  THR99       0.0379
     20  N        -54.2450   71.3640   -9.3220 N.am  100  SER100     -0.1935
     21  CA       -52.9640   70.8830   -8.8220 C.3   100  SER100      0.2055
     22  C        -52.2660   72.1310   -8.2930 C.2   100  SER100      0.2644
     23  O        -52.4310   73.2060   -8.8640 O.2   100  SER100     -0.2714
     24  CB       -52.1570   70.2750   -9.9710 C.3   100  SER100      0.2130
     25  OG       -50.8840   69.8350   -9.5380 O.3   100  SER100     -0.2179
     26  N        -51.4970   72.0180   -7.2140 N.am  101  THR101     -0.1936
     27  CA       -50.8350   73.2100   -6.7010 C.3   101  THR101      0.2028
     28  C        -49.7760   73.6620   -7.6940 C.2   101  THR101      0.2643
     29  O        -49.3710   74.8310   -7.7020 O.2   101  THR101     -0.2714
     30  CB       -50.1730   72.9780   -5.3250 C.3   101  THR101      0.1808
     31  OG1      -49.1170   72.0170   -5.4510 O.3   101  THR101     -0.2208
     32  CG2      -51.2150   72.5180   -4.2970 C.3   101  THR101      0.0379
     33  N        -49.3410   72.7400   -8.5450 N.am  102  THR102     -0.1914
     34  CA       -48.3370   73.0700   -9.5460 C.3   102  THR102      0.2278
     35  C        -48.9550   73.1390  -10.9450 C.2   102  THR102      0.3868
     36  O        -50.2000   73.1710  -11.0370 O.co2 102  THR102     -0.2437
     37  CB       -47.2080   72.0370   -9.5370 C.3   102  THR102      0.1829
     38  OG1      -47.6450   70.8370  -10.1910 O.3   102  THR102     -0.2207
     39  CG2      -46.8180   71.7260   -8.0950 C.3   102  THR102      0.0380
     40  OXT      -48.1940   73.1740  -11.9350 O.co2 102  THR102     -0.2437
@<TRIPOS>BOND
     1    40    35   ar
     2    36    35   ar
     3     9     8    2
     4    35    34    1
     5    38    37    1
     6    24    25    1
     7    24    21    1
     8     8     7    1
     9     8    13   am
    10    10    11    1
    11    10     7    1
    12    10    12    1
    13    19    17    1
    14    34    37    1
    15    34    33    1
    16    37    39    1
    17    14    17    1
    18    14    13    1
    19    14    15    1
    20     6     7    1
    21     6     3   am
    22    20    15   am
    23    20    21    1
    24     5     2    1
    25    17    18    1
    26     2     3    1
    27     2     1    1
    28    15    16    2
    29    23    22    2
    30    21    22    1
    31     3     4    2
    32    33    28   am
    33    22    26   am
    34    29    28    2
    35    28    27    1
    36    26    27    1
    37    27    30    1
    38    31    30    1
    39    30    32    1
