@<TRIPOS>MOLECULE
3hqj_COA_A_1.pdb
 27 29 0 0 0
SMALL
GASTEIGER

@<TRIPOS>ATOM
      1  N1A       28.5890   15.9480    7.4830 N.2   150  COA150      0.0021
      2  C2A       27.3850   16.4000    7.8870 C.3   150  COA150      0.5254
      3  N3A       26.3160   16.3340    7.0890 N.2   150  COA150     -0.0055
      4  C4A       26.4110   15.8900    5.8020 C.2   150  COA150      0.3518
      5  C5A       27.7030   15.4070    5.3120 C.2   150  COA150      0.2526
      6  C6A       28.8260   15.4480    6.2570 C.2   150  COA150      0.4393
      7  N6A       30.0550   15.0340    5.8200 N.pl3 150  COA150      0.2180
      8  N7A       27.5520   14.9980    4.0310 N.2   150  COA150     -0.2095
      9  C8A       26.2350   15.1890    3.7220 C.3   150  COA150      0.3377
     10  N9A       25.5660   15.7260    4.7780 N.pl3 150  COA150     -0.1439
     11  C1B       24.1160   16.0590    4.8100 C.3   150  COA150      0.3185
     12  C2B       23.6170   16.7480    3.5340 C.3   150  COA150      0.2543
     13  O2B       22.7730   17.8390    3.9220 O.3   150  COA150     -0.2131
     14  C3B       22.8150   15.6470    2.8230 C.3   150  COA150      0.1928
     15  O3B       21.6880   16.0380    2.0110 O.3   150  COA150     -0.2673
     16  P3B       21.8960   16.7340    0.5570 P.3   150  COA150      0.5327
     17  O7A       22.5880   18.0180    0.9770 O.3   150  COA150     -0.1145
     18  O8A       20.4860   16.8850    0.1130 O.3   150  COA150     -0.1145
     19  O9A       22.8100   15.7700   -0.1370 O.2   150  COA150     -0.2224
     20  C4B       22.3340   14.8200    3.9990 C.3   150  COA150      0.1796
     21  O4B       23.4500   14.7930    4.8920 O.3   150  COA150     -0.3136
     22  C5B       21.9600   13.4220    3.5640 C.3   150  COA150      0.1859
     23  O5B       21.5630   12.6810    4.7200 O.3   150  COA150     -0.2675
     24  P1A       21.1740   11.1320    4.4790 P.3   150  COA150      0.5327
     25  O1A       21.0510   10.6590    5.9040 O.3   150  COA150     -0.1145
     26  O2A       22.2590   10.4390    3.6950 O.3   150  COA150     -0.1145
     27  O3A       19.8130   11.2180    3.6670 O.2   150  COA150     -0.2224
@<TRIPOS>BOND
     1    19    16    2
     2    18    16    1
     3    16    17    1
     4    16    15    1
     5    15    14    1
     6    14    12    1
     7    14    20    1
     8    12    13    1
     9    12    11    1
    10    22    20    1
    11    22    23    1
    12    27    24    2
    13    26    24    1
    14     9     8    1
    15     9    10    1
    16    20    21    1
    17     8     5    2
    18    24    23    1
    19    24    25    1
    20    10    11    1
    21    10     4    1
    22    11    21    1
    23     5     4    1
    24     5     6    1
    25     4     3    2
    26     7     6    1
    27     6     1    2
    28     3     2    1
    29     1     2    1
