@<TRIPOS>MOLECULE
3hql_III_C_1.pdb
 47 46 0 0 0
SMALL
GASTEIGER

@<TRIPOS>ATOM
      1  N          4.4040   13.8070   31.0910 N.3    95  CYS95      -0.1210
      2  CA         4.2650   12.5920   31.9450 C.3    95  CYS95       0.1956
      3  C          2.9450   11.8530   31.7990 C.2    95  CYS95       0.2612
      4  O          2.8700   10.6770   32.1610 O.2    95  CYS95      -0.2717
      5  N          1.9090   12.5160   31.2700 N.am   96  ASP96      -0.1942
      6  CA         0.5630   11.9060   31.1730 C.3    96  ASP96       0.2014
      7  C          0.1560   11.3010   29.8300 C.2    96  ASP96       0.2639
      8  O         -0.9960   10.8990   29.6400 O.2    96  ASP96      -0.2714
      9  N          1.1050   11.2310   28.8990 N.am   97  GLU97      -0.1963
     10  CA         0.8830   10.6050   27.6060 C.3    97  GLU97       0.1728
     11  C          0.7060    9.0980   27.7740 C.2    97  GLU97       0.2616
     12  O          1.4030    8.4630   28.5900 O.2    97  GLU97      -0.2715
     13  CB         2.0860   10.8990   26.6770 C.3    97  GLU97       0.0334
     14  N         -0.2630    8.5380   27.0560 N.am   98  VAL98      -0.1963
     15  CA        -0.4240    7.0870   26.9950 C.3    98  VAL98       0.1727
     16  C          0.4160    6.5390   25.8500 C.2    98  VAL98       0.2617
     17  O          0.3480    7.0280   24.7150 O.2    98  VAL98      -0.2715
     18  CB        -1.9210    6.6790   26.8370 C.3    98  VAL98       0.0290
     19  CG1       -2.0540    5.1910   26.5260 C.3    98  VAL98       0.0023
     20  CG2       -2.7000    7.0500   28.1140 C.3    98  VAL98       0.0023
     21  N          1.2070    5.5210   26.1510 N.am   99  THR99      -0.1937
     22  CA         1.9990    4.8270   25.1450 C.3    99  THR99       0.2028
     23  C          1.9450    3.3120   25.4000 C.2    99  THR99       0.2643
     24  O          1.3950    2.8330   26.3930 O.2    99  THR99      -0.2714
     25  CB         3.4860    5.2950   25.1310 C.3    99  THR99       0.1808
     26  OG1        4.0480    5.0450   26.4370 O.3    99  THR99      -0.2208
     27  CG2        3.5760    6.7790   24.8460 C.3    99  THR99       0.0379
     28  N          2.5340    2.5790   24.4740 N.am  100  SER100     -0.1935
     29  CA         2.6220    1.1450   24.5310 C.3   100  SER100      0.2055
     30  C          4.0870    0.8090   24.4030 C.2   100  SER100      0.2644
     31  O          4.8470    1.5580   23.7670 O.2   100  SER100     -0.2714
     32  CB         1.8470    0.5580   23.3470 C.3   100  SER100      0.2130
     33  OG         1.9780   -0.8490   23.2830 O.3   100  SER100     -0.2179
     34  N          4.4860   -0.3190   24.9800 N.am  101  THR101     -0.1936
     35  CA         5.8410   -0.8160   24.8160 C.3   101  THR101      0.2028
     36  C          6.0850   -1.4410   23.4530 C.2   101  THR101      0.2642
     37  O          7.2200   -1.7410   23.1110 O.2   101  THR101     -0.2714
     38  CB         6.2010   -1.8370   25.8900 C.3   101  THR101      0.1808
     39  OG1        5.3540   -2.9850   25.7460 O.3   101  THR101     -0.2208
     40  CG2        6.0140   -1.2250   27.2640 C.3   101  THR101      0.0379
     41  N          5.0170   -1.6720   22.7010 N.am  102  THR102     -0.1950
     42  CA         5.1320   -2.1220   21.3060 C.3   102  THR102      0.1897
     43  C          4.3670   -1.1670   20.3660 C.2   102  THR102      0.2313
     44  O          3.4270   -0.4640   20.8150 O.2   102  THR102     -0.2863
     45  CB         4.6070   -3.5640   21.0990 C.3   102  THR102      0.1794
     46  OG1        3.2570   -3.6570   21.5800 O.3   102  THR102     -0.2208
     47  CG2        5.4940   -4.6080   21.8220 C.3   102  THR102      0.0378
@<TRIPOS>BOND
     1    43    44    2
     2    43    42    1
     3    45    42    1
     4    45    46    1
     5    45    47    1
     6    42    41    1
     7    41    36   am
     8    37    36    2
     9    33    32    1
    10    32    29    1
    11    36    35    1
    12    31    30    2
    13    30    29    1
    14    30    34   am
    15    28    29    1
    16    28    23   am
    17    17    16    2
    18    35    34    1
    19    35    38    1
    20    27    25    1
    21    25    22    1
    22    25    26    1
    23    22    23    1
    24    22    21    1
    25    23    24    2
    26    39    38    1
    27    16    21   am
    28    16    15    1
    29    38    40    1
    30    19    18    1
    31    13    10    1
    32    18    15    1
    33    18    20    1
    34    15    14    1
    35    14    11   am
    36    10    11    1
    37    10     9    1
    38    11    12    2
    39     9     7   am
    40     8     7    2
    41     7     6    1
    42     1     2    1
    43     6     5    1
    44     5     3   am
    45     3     2    1
    46     3     4    2
