@<TRIPOS>MOLECULE
3hqm_III_C_1.pdb
 44 44 0 0 0
SMALL
GASTEIGER

@<TRIPOS>ATOM
      1  N        -16.1850  -11.5480    5.6910 N.3   1360  PRO1360    -0.2102
      2  CA       -15.5790  -11.8130    4.3850 C.3   1360  PRO1360     0.1504
      3  C        -14.7100  -13.0660    4.4120 C.2   1360  PRO1360     0.2576
      4  O        -14.1470  -13.3990    5.4580 O.2   1360  PRO1360    -0.2718
      5  CB       -14.7180  -10.5690    4.1330 C.3   1360  PRO1360     0.0282
      6  CG       -14.4180  -10.0360    5.5020 C.3   1360  PRO1360     0.0208
      7  CD       -15.5620  -10.4140    6.3950 C.3   1360  PRO1360     0.0893
      8  N        -14.6190  -13.7680    3.2840 N.am  1361  ASP1361    -0.1966
      9  CA       -13.8640  -15.0170    3.2260 C.3   1361  ASP1361     0.1728
     10  C        -12.3610  -14.7530    3.3150 C.2   1361  ASP1361     0.2616
     11  O        -11.7730  -14.1200    2.4260 O.2   1361  ASP1361    -0.2715
     12  CB       -14.2180  -15.8200    1.9490 C.3   1361  ASP1361     0.0334
     13  N        -11.7630  -15.2030    4.4200 N.am  1362  VAL1362    -0.1963
     14  CA       -10.3180  -15.1500    4.6050 C.3   1362  VAL1362     0.1727
     15  C         -9.6770  -16.4320    4.0870 C.2   1362  VAL1362     0.2617
     16  O        -10.1190  -17.5360    4.4310 O.2   1362  VAL1362    -0.2715
     17  CB        -9.9330  -14.9630    6.0980 C.3   1362  VAL1362     0.0290
     18  CG1       -8.4350  -15.0810    6.2740 C.3   1362  VAL1362     0.0023
     19  CG2      -10.4300  -13.6200    6.6290 C.3   1362  VAL1362     0.0023
     20  N         -8.6450  -16.2880    3.2590 N.am  1363  SER1363    -0.1936
     21  CA        -7.8960  -17.4320    2.7400 C.3   1363  SER1363     0.2055
     22  C         -6.4180  -17.0920    2.5960 C.2   1363  SER1363     0.2644
     23  O         -6.0100  -15.9480    2.7990 O.2   1363  SER1363    -0.2714
     24  CB        -8.4670  -17.8820    1.3910 C.3   1363  SER1363     0.2130
     25  OG        -8.2880  -16.8660    0.4180 O.3   1363  SER1363    -0.2179
     26  N         -5.6230  -18.0830    2.2180 N.am  1364  SER1364    -0.1935
     27  CA        -4.1830  -17.8940    2.0820 C.3   1364  SER1364     0.2055
     28  C         -3.7560  -18.2530    0.6730 C.2   1364  SER1364     0.2644
     29  O         -4.3270  -19.1640    0.0640 O.2   1364  SER1364    -0.2714
     30  CB        -3.4420  -18.7710    3.1040 C.3   1364  SER1364     0.2130
     31  OG        -2.0420  -18.7590    2.8790 O.3   1364  SER1364    -0.2179
     32  N         -2.7460  -17.5510    0.1660 N.am  1365  SER1365    -0.1935
     33  CA        -2.1870  -17.8560   -1.1470 C.3   1365  SER1365     0.2055
     34  C         -0.8420  -18.5960   -1.0670 C.2   1365  SER1365     0.2643
     35  O         -0.3440  -19.0850   -2.0830 O.2   1365  SER1365    -0.2714
     36  CB        -2.0570  -16.5810   -1.9880 C.3   1365  SER1365     0.2130
     37  OG        -1.0180  -15.7440   -1.5100 O.3   1365  SER1365    -0.2179
     38  N         -0.2730  -18.6840    0.1370 N.am  1366  THR1366    -0.1950
     39  CA         1.0430  -19.2930    0.3590 C.3   1366  THR1366     0.1897
     40  C          0.9410  -20.7900    0.6690 C.2   1366  THR1366     0.2313
     41  O          0.0550  -21.4840    0.1710 O.2   1366  THR1366    -0.2863
     42  CB         1.8150  -18.5960    1.5240 C.3   1366  THR1366     0.1794
     43  OG1        0.9310  -18.3860    2.6290 O.3   1366  THR1366    -0.2208
     44  CG2        2.3860  -17.2380    1.0980 C.3   1366  THR1366     0.0378
@<TRIPOS>BOND
     1    35    34    2
     2    36    37    1
     3    36    33    1
     4    33    34    1
     5    33    32    1
     6    34    38   am
     7    29    28    2
     8    38    39    1
     9    32    28   am
    10    41    40    2
    11    39    40    1
    12    39    42    1
    13    25    24    1
    14    28    27    1
    15    44    42    1
    16    24    21    1
    17    42    43    1
    18    12     9    1
    19    27    26    1
    20    27    30    1
    21    26    22   am
    22    11    10    2
    23    22    21    1
    24    22    23    2
    25    21    20    1
    26    31    30    1
    27     9     8    1
    28     9    10    1
    29    20    15   am
    30     8     3   am
    31    10    13   am
    32    15    16    2
    33    15    14    1
    34     5     2    1
    35     5     6    1
    36     2     3    1
    37     2     1    1
    38     3     4    2
    39    13    14    1
    40    14    17    1
    41     6     7    1
    42     1     7    1
    43    17    18    1
    44    17    19    1
