@<TRIPOS>MOLECULE
3hqo_ATP_A_1.pdb
 31 33 0 0 0
SMALL
GASTEIGER

@<TRIPOS>ATOM
      1  PG        24.9730  -14.7010  -69.1460 P.3   1001  ATP1001     0.5373
      2  O1G       23.5370  -14.2330  -69.0840 O.3   1001  ATP1001    -0.1143
      3  O2G       25.8980  -13.8080  -69.9400 O.2   1001  ATP1001    -0.2221
      4  O3G       25.1100  -16.1680  -69.4670 O.3   1001  ATP1001    -0.1143
      5  PB        24.4970  -14.6120  -66.4340 P.3   1001  ATP1001     0.2277
      6  O1B       23.5370  -13.4450  -66.5060 O.2   1001  ATP1001    -0.5168
      7  O2B       25.2650  -14.9030  -65.1700 O.3   1001  ATP1001    -0.4368
      8  O3B       25.5300  -14.5220  -67.6500 O.3   1001  ATP1001    -0.2258
      9  PA        22.2940  -16.3010  -66.2400 P.3   1001  ATP1001     0.2189
     10  O1A       21.3610  -15.2000  -66.6830 O.2   1001  ATP1001    -0.5170
     11  O2A       22.0070  -17.7370  -66.6030 O.3   1001  ATP1001    -0.4371
     12  O3A       23.7300  -15.9520  -66.8480 O.3   1001  ATP1001    -0.2700
     13  O5'       22.5320  -16.1870  -64.6480 O.3   1001  ATP1001    -0.3112
     14  C5'       21.9040  -15.1300  -63.9300 C.3   1001  ATP1001     0.1813
     15  C4'       22.3290  -15.0650  -62.4680 C.3   1001  ATP1001     0.1821
     16  O4'       21.5800  -16.0260  -61.7220 O.3   1001  ATP1001    -0.3135
     17  C3'       23.8090  -15.3450  -62.2370 C.3   1001  ATP1001     0.2184
     18  O3'       24.5440  -14.1390  -62.0100 O.3   1001  ATP1001    -0.2174
     19  C2'       23.8350  -16.2260  -61.0060 C.3   1001  ATP1001     0.2570
     20  O2'       24.1100  -15.4530  -59.8310 O.3   1001  ATP1001    -0.2130
     21  C1'       22.4440  -16.8340  -60.9320 C.3   1001  ATP1001     0.3186
     22  N9        22.5050  -18.1590  -61.5700 N.pl3 1001  ATP1001    -0.1439
     23  C8        22.0070  -18.4650  -62.7800 C.3   1001  ATP1001     0.3377
     24  N7        22.2320  -19.7640  -63.0800 N.2   1001  ATP1001    -0.2095
     25  C5        22.8940  -20.3110  -62.0390 C.2   1001  ATP1001     0.2526
     26  C6        23.4410  -21.6520  -61.6930 C.2   1001  ATP1001     0.4393
     27  N6        23.3170  -22.6920  -62.5570 N.pl3 1001  ATP1001     0.2180
     28  N1        24.0600  -21.7970  -60.4930 N.2   1001  ATP1001     0.0021
     29  C2        24.1850  -20.7680  -59.6270 C.3   1001  ATP1001     0.5254
     30  N3        23.7160  -19.5280  -59.8760 N.2   1001  ATP1001    -0.0055
     31  C4        23.0740  -19.2420  -61.0420 C.2   1001  ATP1001     0.3518
@<TRIPOS>BOND
     1     3     1    2
     2     4     1    1
     3     1     2    1
     4     1     8    1
     5     8     5    1
     6    12     5    1
     7    12     9    1
     8    10     9    2
     9    11     9    1
    10     6     5    2
    11     5     7    1
    12     9    13    1
    13    13    14    1
    14    14    15    1
    15    24    23    1
    16    24    25    2
    17    23    22    1
    18    27    26    1
    19    15    17    1
    20    15    16    1
    21    17    18    1
    22    17    19    1
    23    25    26    1
    24    25    31    1
    25    16    21    1
    26    26    28    2
    27    22    31    1
    28    22    21    1
    29    31    30    2
    30    19    21    1
    31    19    20    1
    32    28    29    1
    33    30    29    1
