@<TRIPOS>MOLECULE
3hqp_ATP_A_1.pdb
 31 33 0 0 0
SMALL
GASTEIGER

@<TRIPOS>ATOM
      1  PG       -36.9700   46.7750   -8.7140 P.3   1001  ATP1001     0.5373
      2  O1G      -36.7200   47.2390   -7.2960 O.3   1001  ATP1001    -0.1143
      3  O2G      -36.4540   45.3800   -9.0010 O.3   1001  ATP1001    -0.1143
      4  O3G      -36.6170   47.7980   -9.7660 O.2   1001  ATP1001    -0.2221
      5  PB       -39.6280   47.0900   -7.7060 P.3   1001  ATP1001     0.2277
      6  O1B      -39.3190   46.3180   -6.4450 O.3   1001  ATP1001    -0.4368
      7  O2B      -41.0180   46.9960   -8.2930 O.2   1001  ATP1001    -0.5168
      8  O3B      -38.5780   46.6420   -8.8520 O.3   1001  ATP1001    -0.2258
      9  PA       -38.7890   49.2800   -6.1010 P.3   1001  ATP1001     0.2189
     10  O1A      -37.6490   48.4180   -5.6070 O.3   1001  ATP1001    -0.4371
     11  O2A      -38.5600   50.7560   -6.3330 O.2   1001  ATP1001    -0.5170
     12  O3A      -39.3150   48.6590   -7.4960 O.3   1001  ATP1001    -0.2700
     13  O5'      -40.0360   49.0760   -5.0970 O.3   1001  ATP1001    -0.3112
     14  C5'      -40.8050   50.1880   -4.6390 C.3   1001  ATP1001     0.1813
     15  C4'      -42.2940   50.0260   -4.9480 C.3   1001  ATP1001     0.1821
     16  O4'      -42.9290   51.3120   -4.8890 O.3   1001  ATP1001    -0.3135
     17  C3'      -42.5690   49.4760   -6.3420 C.3   1001  ATP1001     0.2184
     18  O3'      -42.9120   48.0900   -6.2860 O.3   1001  ATP1001    -0.2174
     19  C2'      -43.7060   50.3220   -6.8850 C.3   1001  ATP1001     0.2570
     20  O2'      -44.9710   49.6910   -6.6580 O.3   1001  ATP1001    -0.2130
     21  C1'      -43.6290   51.6220   -6.0990 C.3   1001  ATP1001     0.3186
     22  N9       -42.8990   52.6370   -6.9160 N.pl3 1001  ATP1001    -0.1439
     23  C8       -41.5580   52.7700   -7.0170 C.3   1001  ATP1001     0.3377
     24  N7       -41.2100   53.7810   -7.8540 N.2   1001  ATP1001    -0.2095
     25  C5       -42.3530   54.3200   -8.3140 C.2   1001  ATP1001     0.2526
     26  C6       -42.7110   55.4270   -9.2390 C.2   1001  ATP1001     0.4393
     27  N6       -41.7480   56.1650   -9.8440 N.pl3 1001  ATP1001     0.2180
     28  N1       -44.0290   55.6690   -9.4570 N.2   1001  ATP1001     0.0021
     29  C2       -44.9940   54.9360   -8.8570 C.3   1001  ATP1001     0.5254
     30  N3       -44.7400   53.9190   -8.0060 N.2   1001  ATP1001    -0.0055
     31  C4       -43.4630   53.5640   -7.6980 C.2   1001  ATP1001     0.3518
@<TRIPOS>BOND
     1    27    26    1
     2     4     1    2
     3    28    26    2
     4    28    29    1
     5    26    25    1
     6     3     1    1
     7    29    30    1
     8     8     1    1
     9     8     5    1
    10     1     2    1
    11    25    24    2
    12    25    31    1
    13     7     5    2
    14    30    31    2
    15    24    23    1
    16     5    12    1
    17     5     6    1
    18    31    22    1
    19    12     9    1
    20    23    22    1
    21    22    21    1
    22    19    20    1
    23    19    17    1
    24    19    21    1
    25    17    18    1
    26    17    15    1
    27    11     9    2
    28     9    10    1
    29     9    13    1
    30    21    16    1
    31    13    14    1
    32    15    16    1
    33    15    14    1
