@<TRIPOS>MOLECULE
3hqp_FDP_A_1.pdb
 20 20 0 0 0
SMALL
GASTEIGER

@<TRIPOS>ATOM
      1  P1        -4.7350   68.5890   -9.0370 P.3   700  FDP700      0.5345
      2  O1P       -6.0840   69.0860   -8.7430 O.3   700  FDP700     -0.1145
      3  O2P       -4.0670   69.2280  -10.3380 O.2   700  FDP700     -0.2223
      4  O3P       -3.7030   69.0360   -7.9550 O.3   700  FDP700     -0.1145
      5  O1        -2.6640   66.8730  -10.4860 O.3   700  FDP700     -0.2149
      6  C1        -2.6920   65.8700   -9.4960 C.3   700  FDP700      0.2410
      7  C2        -3.9850   65.9230   -8.7430 C.3   700  FDP700      0.2588
      8  O2        -4.7880   67.0320   -9.2670 O.3   700  FDP700     -0.2440
      9  C3        -3.7410   65.7690   -7.2330 C.3   700  FDP700      0.2385
     10  O3        -3.4470   66.9700   -6.5630 O.3   700  FDP700     -0.2150
     11  C4        -5.0850   65.2990   -6.7910 C.3   700  FDP700      0.2166
     12  O4        -5.0210   64.7760   -5.4810 O.3   700  FDP700     -0.2175
     13  C5        -5.2630   64.2150   -7.8090 C.3   700  FDP700      0.1807
     14  O5        -4.7520   64.7360   -9.0510 O.3   700  FDP700     -0.3271
     15  C6        -6.7210   64.0580   -7.9660 C.3   700  FDP700      0.1859
     16  O6        -6.9520   63.0880   -8.9620 O.3   700  FDP700     -0.2675
     17  P2        -8.4220   62.5010   -9.0990 P.3   700  FDP700      0.5327
     18  O4P       -9.0110   62.1050   -7.8060 O.3   700  FDP700     -0.1145
     19  O5P       -9.3110   63.6460   -9.7520 O.3   700  FDP700     -0.1145
     20  O6P       -8.2900   61.3590  -10.2110 O.2   700  FDP700     -0.2224
@<TRIPOS>BOND
     1     5     6    1
     2     3     1    2
     3    20    17    2
     4    19    17    1
     5     6     7    1
     6     8     1    1
     7     8     7    1
     8    17    16    1
     9    17    18    1
    10    14     7    1
    11    14    13    1
    12     1     2    1
    13     1     4    1
    14    16    15    1
    15     7     9    1
    16    15    13    1
    17    13    11    1
    18     9    11    1
    19     9    10    1
    20    11    12    1
