@<TRIPOS>MOLECULE
3hqq_FDP_A_1.pdb
 20 20 0 0 0
SMALL
GASTEIGER

@<TRIPOS>ATOM
      1  P1       -12.0770   27.4270 -167.3080 P.3   700  FDP700      0.5345
      2  O1P      -11.3400   28.2520 -168.2880 O.2   700  FDP700     -0.2223
      3  O2P      -13.2590   28.1480 -166.7280 O.3   700  FDP700     -0.1145
      4  O3P      -12.5630   26.1140 -167.8180 O.3   700  FDP700     -0.1145
      5  O1       -10.7070   24.5700 -166.6450 O.3   700  FDP700     -0.2149
      6  C1        -9.6390   25.4610 -166.8200 C.3   700  FDP700      0.2410
      7  C2        -9.9050   26.6480 -165.9050 C.3   700  FDP700      0.2588
      8  O2       -11.2570   27.1010 -165.9680 O.3   700  FDP700     -0.2440
      9  C3        -8.8050   27.6520 -166.0890 C.3   700  FDP700      0.2385
     10  O3        -9.0630   28.4820 -167.2130 O.3   700  FDP700     -0.2150
     11  C4        -8.9420   28.3950 -164.7880 C.3   700  FDP700      0.2166
     12  O4        -7.8140   29.1380 -164.5770 O.3   700  FDP700     -0.2175
     13  C5        -9.0000   27.2630 -163.8310 C.3   700  FDP700      0.1807
     14  O5        -9.6530   26.2150 -164.5840 O.3   700  FDP700     -0.3271
     15  C6        -9.9710   27.7020 -162.7480 C.3   700  FDP700      0.1859
     16  O6       -10.1700   26.6570 -161.7540 O.3   700  FDP700     -0.2675
     17  P2       -10.5900   26.9850 -160.2780 P.3   700  FDP700      0.5327
     18  O4P       -9.7660   28.0280 -159.6050 O.3   700  FDP700     -0.1145
     19  O5P      -11.9770   27.4190 -160.4010 O.2   700  FDP700     -0.2224
     20  O6P      -10.6540   25.6800 -159.5410 O.3   700  FDP700     -0.1145
@<TRIPOS>BOND
     1     2     1    2
     2     4     1    1
     3     1     3    1
     4     1     8    1
     5    10     9    1
     6     6     5    1
     7     6     7    1
     8     9     7    1
     9     9    11    1
    10     8     7    1
    11     7    14    1
    12    11    12    1
    13    11    13    1
    14    14    13    1
    15    13    15    1
    16    15    16    1
    17    16    17    1
    18    19    17    2
    19    17    18    1
    20    17    20    1
