@<TRIPOS>MOLECULE
3hqr_OGA_A_1.pdb
 10 9 0 0 0
SMALL
GASTEIGER

@<TRIPOS>ATOM
      1  C1        20.1520   -6.2860   -6.8020 C.2   600  OGA600      0.4419
      2  C2        20.1790   -6.2880   -5.3170 C.2   600  OGA600      0.3455
      3  C4        19.0940   -6.1970   -3.1380 C.3   600  OGA600      0.2290
      4  C5        17.7230   -6.1580   -2.5530 C.2   600  OGA600      0.3866
      5  O1        19.1040   -6.2460   -7.4020 O.co2 600  OGA600     -0.2354
      6  O2        21.3110   -6.3190   -7.4660 O.co2 600  OGA600     -0.2354
      7  O2'       21.2530   -6.3300   -4.7520 O.2   600  OGA600     -0.2611
      8  O3        17.5970   -6.1160   -1.2300 O.co2 600  OGA600     -0.2437
      9  N1        19.0350   -6.2330   -4.6060 N.am  600  OGA600     -0.1838
     10  O4        16.7360   -6.1690   -3.2600 O.co2 600  OGA600     -0.2437
@<TRIPOS>BOND
     1     6     1   ar
     2     5     1   ar
     3     1     2    1
     4     2     7    2
     5     2     9   am
     6     9     3    1
     7    10     4   ar
     8     3     4    1
     9     4     8   ar
