@<TRIPOS>MOLECULE
3hqt_PLP_A_1.pdb
 16 16 0 0 0
SMALL
GASTEIGER

@<TRIPOS>ATOM
      1  N1        45.9630   27.6220   50.7580 N.2   390  PLP390     -0.2505
      2  C2        44.9560   27.6480   49.8150 C.2   390  PLP390      0.0679
      3  C2A       45.3330   28.0820   48.4210 C.3   390  PLP390      0.0499
      4  C3        43.6470   27.2640   50.1890 C.3   390  PLP390      0.1987
      5  O3        42.6200   27.2620   49.2760 O.3   390  PLP390     -0.2162
      6  C4        43.3660   26.8770   51.5070 C.3   390  PLP390      0.1228
      7  C4A       41.9200   27.0140   51.9840 C.2   390  PLP390      0.2141
      8  O4A       41.2850   26.1180   52.5820 O.2   390  PLP390     -0.2879
      9  C5        44.4340   26.8710   52.4360 C.2   390  PLP390      0.0147
     10  C6        45.7170   27.2370   52.0560 C.2   390  PLP390      0.0926
     11  C5A       44.2150   26.6130   53.9170 C.3   390  PLP390      0.1780
     12  O4P       44.1630   25.2150   54.0890 O.3   390  PLP390     -0.2656
     13  P         43.5240   24.5740   55.3960 P.3   390  PLP390      0.5329
     14  O1P       42.0240   24.5450   55.2980 O.2   390  PLP390     -0.2224
     15  O2P       43.9970   25.3490   56.5980 O.3   390  PLP390     -0.1145
     16  O3P       44.0090   23.1600   55.5060 O.3   390  PLP390     -0.1145
@<TRIPOS>BOND
     1     3     2    1
     2     5     4    1
     3     2     4    1
     4     2     1    2
     5     4     6    1
     6     1    10    1
     7     6     7    1
     8     6     9    1
     9     7     8    2
    10    10     9    2
    11     9    11    1
    12    11    12    1
    13    12    13    1
    14    14    13    2
    15    13    16    1
    16    13    15    1
