@<TRIPOS>MOLECULE
3hqu_UN9_A_1.pdb
 19 20 0 0 0
SMALL
GASTEIGER

@<TRIPOS>ATOM
      1  O18      -33.1380   23.2000   -4.5550 O.co2 500  UN9500     -0.2437
      2  C16      -33.3120   22.3840   -3.6180 C.2   500  UN9500      0.3865
      3  O17      -32.5220   21.4840   -3.2810 O.co2 500  UN9500     -0.2437
      4  C15      -34.6130   22.5050   -2.8210 C.3   500  UN9500      0.2288
      5  N14      -35.4390   23.6170   -3.3190 N.am  500  UN9500     -0.1874
      6  C12      -36.6630   23.8160   -2.8250 C.2   500  UN9500      0.2937
      7  O13      -37.1590   23.1360   -1.9540 O.2   500  UN9500     -0.2658
      8  C9       -37.4670   25.0000   -3.4120 C.2   500  UN9500      0.1991
      9  N8       -38.7690   25.0190   -3.1880 N.2   500  UN9500     -0.3872
     10  C7       -39.5730   26.0190   -3.6460 C.2   500  UN9500      0.1883
     11 CL1       -41.2790   25.9130   -3.3480 Cl    500  UN9500     -0.0480
     12  C2       -39.0190   27.0580   -4.3600 C.ar  500  UN9500      0.0394
     13  C10      -36.8550   26.0240   -4.1390 C.3   500  UN9500      0.2306
     14  O19      -35.5320   25.9900   -4.4370 O.3   500  UN9500     -0.2104
     15  C3       -37.6490   27.0690   -4.6090 C.ar  500  UN9500      0.0180
     16  C4       -37.0700   28.1170   -5.3120 C.ar  500  UN9500     -0.0013
     17  C5       -37.8660   29.1700   -5.7800 C.ar  500  UN9500     -0.0002
     18  C6       -39.2290   29.1650   -5.5420 C.ar  500  UN9500      0.0001
     19  C1       -39.8110   28.1170   -4.8350 C.ar  500  UN9500      0.0032
@<TRIPOS>BOND
     1    17    18   ar
     2    17    16   ar
     3    18    19   ar
     4    16    15   ar
     5    19    12   ar
     6    15    12   ar
     7    15    13    1
     8     1     2   ar
     9    14    13    1
    10    12    10    1
    11    13     8    1
    12    10    11    1
    13    10     9    2
    14     2     3   ar
    15     2     4    1
    16     8     9    2
    17     8     6    1
    18     5     6   am
    19     5     4    1
    20     6     7    2
