@<TRIPOS>MOLECULE
3hqw_PF4_A_1.pdb
 26 29 0 0 0
SMALL
GASTEIGER

@<TRIPOS>ATOM
      1  C7        10.7060   15.8140   40.8570 C.ar  999  PF4999      0.0058
      2  C9         9.0760   17.8030   37.4190 C.1   999  PF4999      0.1442
      3  C13       13.4670   16.2080   40.9450 C.ar  999  PF4999      0.0370
      4  C20       12.6850   22.1920   40.0820 C.ar  999  PF4999      0.1387
      5  C8        12.6750   16.9530   40.0640 C.ar  999  PF4999      0.0058
      6  C18        7.4250   18.2930   35.5620 C.ar  999  PF4999      0.0191
      7  C16       12.1930   21.2420   40.9690 C.ar  999  PF4999      0.0370
      8  C26       13.7100   24.4030   39.9140 C.3   999  PF4999      0.2525
      9  O24       13.3640   23.2420   40.6610 O.3   999  PF4999     -0.4714
     10  C15       12.4860   22.0440   38.6940 C.ar  999  PF4999      0.0370
     11  C10       11.7770   20.9240   38.2080 C.ar  999  PF4999      0.0058
     12  C11       11.5060   20.1340   40.4950 C.ar  999  PF4999      0.0058
     13  C5        11.3140   19.9810   39.1270 C.ar  999  PF4999      0.0333
     14  C2        10.5460   18.8250   38.6480 C.2   999  PF4999      0.1740
     15  N6         9.6040   18.9780   37.6330 N.2   999  PF4999     -0.3368
     16  C14        8.0330   17.5000   36.4620 C.ar  999  PF4999      0.1149
     17  S19        7.2910   15.9310   36.3700 S.2   999  PF4999     -0.0744
     18  C23        6.1640   16.3330   35.0890 C.ar  999  PF4999      0.0362
     19  C22        6.3780   17.6130   34.7830 C.ar  999  PF4999      0.0083
     20  N4         9.6090   16.8910   38.2660 N.2   999  PF4999     -0.3368
     21  C1        10.5150   17.5340   39.0480 C.2   999  PF4999      0.1740
     22  C3        11.3010   16.7710   40.0360 C.ar  999  PF4999      0.0333
     23  C12       11.4780   15.0640   41.7490 C.ar  999  PF4999      0.0370
     24  C17       12.8720   15.2670   41.8040 C.ar  999  PF4999      0.1387
     25  O21       13.5960   14.5080   42.6830 O.3   999  PF4999     -0.4714
     26  C25       15.0300   14.6370   42.7920 C.3   999  PF4999      0.2525
@<TRIPOS>BOND
     1    19    18   ar
     2    19     6   ar
     3    18    17   ar
     4     6    16   ar
     5    17    16   ar
     6    16     2    1
     7     2    15    2
     8     2    20    2
     9    15    14    2
    10    11    10   ar
    11    11    13   ar
    12    20    21    2
    13    14    21    1
    14    14    13    1
    15    10     4   ar
    16    21    22    1
    17    13    12   ar
    18     8     9    1
    19    22     5   ar
    20    22     1   ar
    21     5     3   ar
    22     4     9    1
    23     4     7   ar
    24    12     7   ar
    25     1    23   ar
    26     3    24   ar
    27    23    24   ar
    28    24    25    1
    29    25    26    1
