@<TRIPOS>MOLECULE
3hqy_PF6_A_1.pdb
 30 34 0 0 0
SMALL
GASTEIGER

@<TRIPOS>ATOM
      1  C7        12.5890   16.9420   43.2430 C.ar  999  PF6999      0.0044
      2  C6        15.4610   15.3580   46.1300 C.2   999  PF6999      0.1016
      3  C13       12.1960   18.6640   47.1970 C.ar  999  PF6999      0.0164
      4  C20       11.4100   17.1080   38.6340 C.3   999  PF6999      0.2635
      5  C21       10.2600   17.5710   37.7520 C.2   999  PF6999      0.1521
      6  C8        14.0860   15.8910   41.7090 C.ar  999  PF6999      0.0044
      7  C16       10.9840   18.6680   47.8500 C.ar  999  PF6999      0.0986
      8  C26        8.1790   18.2860   36.1310 C.3   999  PF6999      0.0962
      9  C29        6.5840   16.2100   35.1550 C.2   999  PF6999      0.0020
     10  C30        6.3190   17.5380   34.8320 C.2   999  PF6999     -0.0038
     11  C28        7.0970   18.5580   35.2960 C.2   999  PF6999     -0.0150
     12  C25        9.0060   19.3080   36.6640 C.2   999  PF6999     -0.0126
     13  C23       10.0600   18.9320   37.4700 C.2   999  PF6999      0.0275
     14  C24        8.4400   16.9290   36.4710 C.2   999  PF6999      0.1164
     15  C27        7.6270   15.9020   35.9620 C.2   999  PF6999      0.0282
     16  N22        9.4780   16.6420   37.2540 N.2   999  PF6999     -0.4062
     17  O18       11.2360   17.5770   39.9720 O.3   999  PF6999     -0.4678
     18  C15       12.1250   17.0710   40.8920 C.ar  999  PF6999      0.1392
     19  C12       13.2920   16.3320   40.6460 C.ar  999  PF6999      0.0370
     20  C11       11.8200   17.3630   42.2000 C.ar  999  PF6999      0.0370
     21  C3        13.7350   16.2110   43.0210 C.ar  999  PF6999      0.0159
     22  C1        14.5150   15.7250   44.1660 C.2   999  PF6999      0.0861
     23  C2        14.6530   16.2490   45.4260 C.3   999  PF6999      0.0895
     24  N9        15.7830   14.3500   45.3670 N.2   999  PF6999     -0.1510
     25  N4        15.1800   14.5370   44.1350 N.2   999  PF6999     -0.1523
     26  C5        14.1010   17.5500   46.0070 C.3   999  PF6999      0.0385
     27  C10       12.7790   17.4750   46.7420 C.ar  999  PF6999     -0.0183
     28  N19       10.3680   17.5240   48.1050 N.ar  999  PF6999     -0.2423
     29  C17       10.8910   16.3610   47.7100 C.ar  999  PF6999      0.0986
     30  C14       12.1090   16.2900   47.0240 C.ar  999  PF6999      0.0164
@<TRIPOS>BOND
     1    10     9    1
     2    10    11    2
     3     9    15    2
     4    11     8    1
     5    15    14    1
     6     8    14    1
     7     8    12    1
     8    14    16    2
     9    12    13    2
    10    16     5    2
    11    13     5    1
    12     5     4    1
    13     4    17    1
    14    17    18    1
    15    19    18   ar
    16    19     6   ar
    17    18    20   ar
    18     6    21   ar
    19    20     1   ar
    20    21     1   ar
    21    21    22    1
    22    25    22    2
    23    25    24    1
    24    22    23    1
    25    24     2    2
    26    23    26    1
    27    23     2    1
    28    26    27    1
    29    27    30   ar
    30    27     3   ar
    31    30    29   ar
    32     3     7   ar
    33    29    28   ar
    34     7    28   ar
