@<TRIPOS>MOLECULE
3hqz_PF8_A_1.pdb
 29 33 0 0 0
SMALL
GASTEIGER

@<TRIPOS>ATOM
      1  C7        12.4910   18.4590   43.1850 C.ar  999  PF8999      0.0044
      2  C6        14.1330   16.7540   47.1670 C.2   999  PF8999      0.1057
      3  C13       11.1530   16.2240   42.1140 C.ar  999  PF8999      0.0370
      4  C20        9.6420   18.5580   38.2220 C.2   999  PF8999      0.1347
      5  C8        11.7410   16.1760   43.3920 C.ar  999  PF8999      0.0044
      6  C16       11.2260   17.4100   41.3740 C.ar  999  PF8999      0.1392
      7  C19       10.7240   18.6460   39.2810 C.3   999  PF8999      0.2595
      8  C26        7.5620   15.9460   36.7660 C.ar  999  PF8999      0.0320
      9  C29        6.0990   16.9220   35.1120 C.ar  999  PF8999      0.0002
     10  C28        6.5670   15.8080   35.8040 C.ar  999  PF8999      0.0026
     11  C23        8.1110   17.2100   37.0140 C.ar  999  PF8999      0.1304
     12  N21        9.0980   17.3460   37.9460 N.2   999  PF8999     -0.4065
     13  C27        6.6490   18.1860   35.3570 C.ar  999  PF8999      0.0022
     14  C25        7.6500   18.3350   36.3140 C.ar  999  PF8999      0.0257
     15  C24        8.2020   19.5970   36.5870 C.2   999  PF8999     -0.0163
     16  C22        9.2080   19.7040   37.5530 C.3   999  PF8999      0.0843
     17  O18       10.6520   17.4780   40.1210 O.3   999  PF8999     -0.4682
     18  C12       11.8980   18.5180   41.9170 C.ar  999  PF8999      0.0370
     19  C3        12.4110   17.2880   43.9340 C.ar  999  PF8999      0.0162
     20  C1        13.0490   17.2210   45.2890 C.2   999  PF8999      0.0899
     21  C2        13.8360   16.2590   45.9090 C.3   999  PF8999      0.1074
     22  N9        13.5460   17.9760   47.2840 N.2   999  PF8999     -0.1507
     23  N4        12.8600   18.2710   46.0990 N.2   999  PF8999     -0.1519
     24  C5        14.2750   14.9530   45.3350 C.ar  999  PF8999     -0.0081
     25  C11       14.5610   14.8480   43.9700 C.ar  999  PF8999      0.0171
     26  C15       14.9620   13.6200   43.4520 C.ar  999  PF8999      0.0986
     27  N17       15.0790   12.5580   44.2660 N.ar  999  PF8999     -0.2423
     28  C14       14.8090   12.6220   45.5910 C.ar  999  PF8999      0.0986
     29  C10       14.3960   13.8330   46.1560 C.ar  999  PF8999      0.0171
@<TRIPOS>BOND
     1     9    13   ar
     2     9    10   ar
     3    13    14   ar
     4    10     8   ar
     5    14    15    2
     6    14    11   ar
     7    15    16    1
     8     8    11   ar
     9    11    12    2
    10    16     4    1
    11    12     4    2
    12     4     7    1
    13     7    17    1
    14    17     6    1
    15     6    18   ar
    16     6     3   ar
    17    18     1   ar
    18     3     5   ar
    19     1    19   ar
    20     5    19   ar
    21    26    25   ar
    22    26    27   ar
    23    19    20    1
    24    25    24   ar
    25    27    28   ar
    26    20    21    1
    27    20    23    2
    28    24    21    1
    29    24    29   ar
    30    28    29   ar
    31    21     2    1
    32    23    22    1
    33     2    22    2
