@<TRIPOS>MOLECULE
3hr1_PF9_A_1.pdb
 30 34 0 0 0
SMALL
GASTEIGER

@<TRIPOS>ATOM
      1  C4        12.4000   18.3090   42.6760 C.ar  999  PF9999      0.0047
      2  C7        10.9900   16.0890   41.6810 C.ar  999  PF9999      0.0370
      3  C6        14.3300   13.8060   45.6820 C.ar  999  PF9999      0.0208
      4  C9        14.8660   13.4860   42.9860 C.ar  999  PF9999      0.0989
      5  C20        7.6050   18.2670   35.8770 C.ar  999  PF9999      0.0257
      6  C21        7.4610   15.8700   36.2800 C.ar  999  PF9999      0.0320
      7  C8        11.8110   18.3630   41.4170 C.ar  999  PF9999      0.0370
      8  C18        8.0390   17.1080   36.5520 C.ar  999  PF9999      0.1304
      9  C19        8.1950   19.5110   36.1570 C.2   999  PF9999     -0.0163
     10  C26       13.7230   16.1940   45.3910 C.ar  999  PF9999      0.0382
     11  C30       13.3950   18.8980   47.8480 C.3   999  PF9999      0.1538
     12  N28       13.4610   17.8650   46.7770 N.ar  999  PF9999     -0.2474
     13  C27       14.0530   16.6660   46.6610 C.ar  999  PF9999      0.0966
     14  C2        14.1770   14.8950   44.8280 C.ar  999  PF9999      0.0061
     15  C10       14.7520   12.5790   45.1570 C.ar  999  PF9999      0.0989
     16  N12       15.0060   12.4530   43.8370 N.ar  999  PF9999     -0.2423
     17  C5        14.4480   14.7330   43.4690 C.ar  999  PF9999      0.0208
     18  N29       12.7430   18.1890   45.6330 N.ar  999  PF9999     -0.1692
     19  C25       12.9120   17.1570   44.7850 C.ar  999  PF9999      0.1023
     20  C1        12.2860   17.1460   43.4370 C.ar  999  PF9999      0.0196
     21  C11       11.1090   17.2590   40.9180 C.ar  999  PF9999      0.1392
     22  C3        11.5750   16.0440   42.9520 C.ar  999  PF9999      0.0047
     23  O13       10.5300   17.3160   39.6790 O.3   999  PF9999     -0.4682
     24  C14       10.6930   18.4410   38.8160 C.3   999  PF9999      0.2595
     25  C15        9.6050   18.3970   37.7690 C.2   999  PF9999      0.1347
     26  C17        9.2020   19.5750   37.1280 C.3   999  PF9999      0.0843
     27  C22        6.5860   18.1520   34.9260 C.ar  999  PF9999      0.0022
     28  C24        6.0000   16.9060   34.6700 C.ar  999  PF9999      0.0002
     29  C23        6.4480   15.7620   35.3360 C.ar  999  PF9999      0.0026
     30  N16        9.0340   17.1940   37.4770 N.2   999  PF9999     -0.4065
@<TRIPOS>BOND
     1    28    27   ar
     2    28    29   ar
     3    27     5   ar
     4    29     6   ar
     5     5     9    2
     6     5     8   ar
     7     9    26    1
     8     6     8   ar
     9     8    30    2
    10    26    25    1
    11    30    25    2
    12    25    24    1
    13    24    23    1
    14    23    21    1
    15    21     7   ar
    16    21     2   ar
    17     7     1   ar
    18     2    22   ar
    19     1    20   ar
    20    22    20   ar
    21     4    17   ar
    22     4    16   ar
    23    20    19    1
    24    17    14   ar
    25    16    15   ar
    26    19    10   ar
    27    19    18   ar
    28    14    10    1
    29    14     3   ar
    30    15     3   ar
    31    10    13   ar
    32    18    12   ar
    33    13    12   ar
    34    12    11    1
