@<TRIPOS>MOLECULE
3hr4_FMN_A_1.pdb
 31 33 0 0 0
SMALL
GASTEIGER

@<TRIPOS>ATOM
      1  N1         2.2310   11.9810  -65.7590 N.2   999  FMN999     -0.2890
      2  C2         2.2060   13.3330  -65.6540 C.1   999  FMN999      0.3669
      3  O2         2.8740   14.1000  -64.9130 O.2   999  FMN999     -0.1744
      4  N3         1.2370   14.0170  -66.5600 N.2   999  FMN999     -0.2300
      5  C4         0.3370   13.3100  -67.5390 C.1   999  FMN999      0.2513
      6  O4        -0.3950   14.1100  -68.1990 O.2   999  FMN999     -0.2057
      7  C4A        0.4250   11.9690  -67.5890 C.2   999  FMN999      0.2700
      8  N5        -0.3310   11.2760  -68.4380 N.2   999  FMN999     -0.3878
      9  C5A       -0.2930    9.7920  -68.5690 C.2   999  FMN999      0.1320
     10  C6        -1.1230    9.0420  -69.5180 C.2   999  FMN999      0.0250
     11  C7        -1.0090    7.5360  -69.5880 C.2   999  FMN999     -0.0238
     12  C7M       -1.9340    7.0690  -70.6140 C.3   999  FMN999      0.0308
     13  C8        -0.0420    6.7450  -68.6810 C.2   999  FMN999     -0.0280
     14  C8M        0.1110    5.2500  -68.7070 C.3   999  FMN999      0.0304
     15  C9         0.7400    7.4620  -67.7820 C.2   999  FMN999     -0.0041
     16  C9A        0.6840    9.0450  -67.6500 C.3   999  FMN999      0.1497
     17  N10        1.5650    9.7380  -66.6680 N.pl3 999  FMN999     -0.2691
     18  C10        1.4660   11.2170  -66.6100 C.2   999  FMN999      0.2416
     19  C1'        2.4800    9.0010  -65.8290 C.3   999  FMN999      0.1294
     20  C2'        1.9020    8.6200  -64.4480 C.3   999  FMN999      0.2044
     21  O2'        1.6700    9.7960  -63.8160 O.3   999  FMN999     -0.2185
     22  C3'        2.9360    7.8470  -63.8360 C.3   999  FMN999      0.2164
     23  O3'        3.0520    6.5500  -64.6720 O.3   999  FMN999     -0.2175
     24  C4'        2.7370    7.2950  -62.4280 C.3   999  FMN999      0.2147
     25  O4'        3.9460    6.6270  -62.1090 O.3   999  FMN999     -0.2176
     26  C5'        1.6170    6.1960  -62.1880 C.3   999  FMN999      0.1892
     27  O5'        1.3150    6.4200  -60.8330 O.3   999  FMN999     -0.2674
     28  P          0.2730    5.5710  -60.0500 P.3   999  FMN999      0.5327
     29  O1P        0.2500    6.1280  -58.7590 O.3   999  FMN999     -0.1145
     30  O2P       -1.1330    5.6960  -60.6200 O.2   999  FMN999     -0.2224
     31  O3P        0.8770    4.2580  -59.9120 O.3   999  FMN999     -0.1145
@<TRIPOS>BOND
     1    12    11    1
     2    11    10    2
     3    11    13    1
     4    10     9    1
     5    14    13    1
     6    13    15    2
     7     9     8    2
     8     9    16    1
     9     8     7    2
    10     6     5    2
    11    15    16    1
    12    16    17    1
    13     7     5    1
    14     7    18    1
    15     5     4    2
    16    17    18    1
    17    17    19    1
    18    18     1    2
    19     4     2    2
    20    19    20    1
    21     1     2    2
    22     2     3    2
    23    23    22    1
    24    20    22    1
    25    20    21    1
    26    22    24    1
    27    24    26    1
    28    24    25    1
    29    26    27    1
    30    27    28    1
    31    30    28    2
    32    28    31    1
    33    28    29    1
