@<TRIPOS>MOLECULE
3hrb_I39_A_1.pdb
 25 27 0 0 0
SMALL
GASTEIGER

@<TRIPOS>ATOM
      1  O10        2.2140   29.7770   31.6700 O.2     1  I391       -0.2865
      2  C9         2.7160   30.8430   31.3370 C.2     1  I391        0.1988
      3  C4         4.1970   30.9400   31.1040 C.ar    1  I391        0.0666
      4  C3         4.9840   31.6400   32.0030 C.ar    1  I391        0.1454
      5  F8         4.4390   32.2310   33.0770 F       1  I391       -0.2040
      6  C2         6.3560   31.7360   31.8160 C.ar    1  I391        0.0594
      7  C5         4.7900   30.3370   30.0050 C.ar    1  I391        0.0077
      8  C6         6.1660   30.4330   29.8100 C.ar    1  I391        0.0299
      9  C1         6.9490   31.1350   30.7200 C.ar    1  I391        0.1424
     10  F7         8.2770   31.2680   30.5650 F       1  I391       -0.2041
     11  C11        1.8410   32.0540   31.1620 C.2     1  I391        0.0549
     12  C16        2.3570   33.1390   30.4880 C.2     1  I391        0.0052
     13  C15        1.5810   34.2710   30.3030 C.3     1  I391        0.1615
     14  N14        0.3430   34.3180   30.7390 N.4     1  I391       -0.2010
     15  O23       -0.3950   35.5130   30.4990 O.3     1  I391       -0.0838
     16  C13       -0.2170   33.2800   31.3820 C.2     1  I391        0.1018
     17  C12        0.5170   32.1250   31.6190 C.2     1  I391        0.1096
     18  N24       -0.0600   31.0810   32.2760 N.pl3   1  I391       -0.1264
     19  C17       -1.6250   33.3650   31.8760 C.ar    1  I391        0.0152
     20  C22       -2.7070   32.9420   31.1000 C.ar    1  I391       -0.0203
     21  C25       -2.5250   32.3920   29.7060 C.3     1  I391        0.0311
     22  C21       -3.9990   33.0260   31.6120 C.ar    1  I391       -0.0042
     23  C20       -4.2110   33.5160   32.8980 C.ar    1  I391       -0.0003
     24  C19       -3.1300   33.9380   33.6760 C.ar    1  I391        0.0000
     25  C18       -1.8390   33.8600   33.1590 C.ar    1  I391        0.0012
@<TRIPOS>BOND
     1    21    20    1
     2     8     7   ar
     3     8     9   ar
     4     7     3   ar
     5    13    12    1
     6    13    14    1
     7    12    11    2
     8    15    14    1
     9    10     9    1
    10     9     6   ar
    11    14    16    1
    12    20    22   ar
    13    20    19   ar
    14     3     2    1
    15     3     4   ar
    16    11     2    1
    17    11    17    1
    18     2     1    2
    19    16    17    2
    20    16    19    1
    21    22    23   ar
    22    17    18    1
    23     6     4   ar
    24    19    25   ar
    25     4     5    1
    26    23    24   ar
    27    25    24   ar
