@<TRIPOS>MOLECULE
3hrc_ATP_A_1.pdb
 31 33 0 0 0
SMALL
GASTEIGER

@<TRIPOS>ATOM
      1  PG        28.2790  -18.6870  -13.7280 P.3   1373  ATP1373     0.5373
      2  O1G       27.1520  -17.7140  -14.0000 O.3   1373  ATP1373    -0.1143
      3  O2G       29.0350  -18.4130  -12.4530 O.3   1373  ATP1373    -0.1143
      4  O3G       29.1670  -18.9810  -14.9110 O.2   1373  ATP1373    -0.2221
      5  PB        26.2340  -20.6700  -14.0970 P.3   1373  ATP1373     0.2277
      6  O1B       26.2990  -22.1510  -13.7870 O.3   1373  ATP1373    -0.4368
      7  O2B       26.1250  -20.1410  -15.4950 O.2   1373  ATP1373    -0.5168
      8  O3B       27.5830  -20.1060  -13.3960 O.3   1373  ATP1373    -0.2258
      9  PA        23.4640  -20.0410  -13.4360 P.3   1373  ATP1373     0.2189
     10  O1A       22.7940  -19.3930  -12.2450 O.3   1373  ATP1373    -0.4371
     11  O2A       23.1020  -19.5160  -14.8080 O.2   1373  ATP1373    -0.5170
     12  O3A       25.0740  -19.9150  -13.2350 O.3   1373  ATP1373    -0.2700
     13  O5'       23.2190  -21.6180  -13.4060 O.3   1373  ATP1373    -0.3112
     14  C5'       23.5290  -22.4160  -12.2760 C.3   1373  ATP1373     0.1813
     15  C4'       23.3400  -23.8950  -12.5850 C.3   1373  ATP1373     0.1821
     16  O4'       21.9660  -24.2900  -12.4120 O.3   1373  ATP1373    -0.3135
     17  C3'       23.7120  -24.2970  -14.0140 C.3   1373  ATP1373     0.2184
     18  O3'       25.1110  -24.5760  -14.1290 O.3   1373  ATP1373    -0.2174
     19  C2'       22.8280  -25.5030  -14.2900 C.3   1373  ATP1373     0.2570
     20  O2'       23.4400  -26.7390  -13.8670 O.3   1373  ATP1373    -0.2130
     21  C1'       21.5920  -25.2230  -13.4400 C.3   1373  ATP1373     0.3186
     22  N9        20.5460  -24.5580  -14.2630 N.pl3 1373  ATP1373    -0.1439
     23  C8        20.5890  -23.3010  -14.7630 C.3   1373  ATP1373     0.3377
     24  N7        19.4620  -23.0130  -15.4580 N.2   1373  ATP1373    -0.2095
     25  C5        18.6830  -24.1120  -15.3950 C.2   1373  ATP1373     0.2526
     26  C6        17.3480  -24.4980  -15.9160 C.2   1373  ATP1373     0.4393
     27  N6        16.6400  -23.6150  -16.6500 N.pl3 1373  ATP1373     0.2180
     28  N1        16.8980  -25.7320  -15.6300 N.2   1373  ATP1373     0.0021
     29  C2        17.6110  -26.6160  -14.9010 C.3   1373  ATP1373     0.5254
     30  N3        18.8340  -26.3410  -14.3980 N.2   1373  ATP1373    -0.0055
     31  C4        19.4000  -25.1220  -14.6050 C.2   1373  ATP1373     0.3518
@<TRIPOS>BOND
     1    27    26    1
     2    26    28    2
     3    26    25    1
     4    28    29    1
     5     7     5    2
     6    24    25    2
     7    24    23    1
     8    25    31    1
     9     4     1    2
    10    29    30    1
    11    11     9    2
    12    23    22    1
    13    31    30    2
    14    31    22    1
    15    19    17    1
    16    19    20    1
    17    19    21    1
    18    22    21    1
    19    18    17    1
    20     5     6    1
    21     5     8    1
    22     5    12    1
    23    17    15    1
    24     2     1    1
    25     1     8    1
    26     1     3    1
    27    21    16    1
    28     9    13    1
    29     9    12    1
    30     9    10    1
    31    13    14    1
    32    15    16    1
    33    15    14    1
