@<TRIPOS>MOLECULE
3hrd_MCN_B_1.pdb
 44 48 0 0 0
SMALL
GASTEIGER

@<TRIPOS>ATOM
      1  N1        -5.4930   13.7460  -32.3870 N.am  921  MCN921     -0.1778
      2  C2        -4.4320   14.5510  -32.7970 C.1   921  MCN921      0.2756
      3  N3        -3.1680   14.0470  -32.7780 N.2   921  MCN921     -0.3024
      4  C4        -2.9540   12.7450  -32.3530 C.2   921  MCN921      0.2346
      5  C5        -3.9870   11.9280  -31.9480 C.2   921  MCN921      0.0687
      6  C6        -5.2520   12.4330  -31.9660 C.2   921  MCN921      0.0836
      7  O2        -4.5710   15.7470  -33.1910 O.2   921  MCN921     -0.1925
      8  N4        -1.6930   12.2790  -32.3360 N.pl3 921  MCN921     -0.0921
      9  C1'       -6.9230   14.2960  -32.3760 C.3   921  MCN921      0.2400
     10  C2D       -7.4440   14.4300  -33.7910 C.3   921  MCN921      0.2319
     11  O2'       -8.2310   15.5600  -34.0270 O.3   921  MCN921     -0.2157
     12  C3'       -8.1820   13.1410  -33.9370 C.3   921  MCN921      0.2158
     13  C4D       -8.7010   12.8510  -32.5180 C.3   921  MCN921      0.1799
     14  O4D       -7.8040   13.5870  -31.6310 O.3   921  MCN921     -0.3320
     15  O3'       -9.2290   13.2340  -34.9160 O.3   921  MCN921     -0.2175
     16  C5'       -8.7330   11.4060  -32.0810 C.3   921  MCN921      0.1813
     17  O5'       -7.8030   10.6160  -32.8290 O.3   921  MCN921     -0.3112
     18  PA        -7.6060    9.0790  -32.5710 P.3   921  MCN921      0.2189
     19  O1A       -6.7360    8.6260  -33.6990 O.2   921  MCN921     -0.5170
     20  O2A       -7.1860    8.8370  -31.1710 O.3   921  MCN921     -0.4371
     21  O3A       -9.0300    8.3950  -32.6270 O.3   921  MCN921     -0.2703
     22  PB       -10.0730    8.2410  -33.8180 P.3   921  MCN921      0.2189
     23  O1B      -10.0780    6.8460  -34.3060 O.3   921  MCN921     -0.4371
     24  O2B       -9.8700    9.3400  -34.8370 O.2   921  MCN921     -0.5170
     25  O3B      -11.4350    8.6260  -33.1270 O.3   921  MCN921     -0.3109
     26  C10      -12.2790    7.7060  -32.4690 C.3   921  MCN921      0.1837
     27  C9'      -12.2090    7.8840  -30.9740 C.3   921  MCN921      0.1762
     28  C8'      -12.9940    6.8500  -30.2540 C.2   921  MCN921      0.0473
     29  S8'      -12.6450    5.1280  -30.5200 S.3   921  MCN921     -0.0526
     30  C7'      -14.0040    7.1910  -29.3570 C.2   921  MCN921      0.0449
     31  S7'      -14.9200    5.9710  -28.5170 S.3   921  MCN921     -0.0530
     32  C6'      -14.3350    8.6000  -29.0750 C.3   921  MCN921      0.1850
     33  C7       -13.1100    9.5010  -29.3480 C.3   921  MCN921      0.2573
     34  O9'      -12.6330    9.2790  -30.7010 O.3   921  MCN921     -0.3271
     35  N5'      -15.5520    9.0520  -29.7520 N.2   921  MCN921     -0.2411
     36  C4A      -15.7100   10.4140  -29.9550 C.2   921  MCN921      0.2467
     37  N8'      -13.4710   10.8720  -29.1200 N.2   921  MCN921     -0.1763
     38  C4B      -14.6610   11.3660  -29.6330 C.1   921  MCN921      0.1293
     39  N1'      -14.7550   12.6980  -29.7980 N.2   921  MCN921     -0.2682
     40  C2'      -15.9010   13.2000  -30.3070 C.1   921  MCN921      0.2608
     41  N2'      -16.0200   14.5410  -30.4720 N.pl3 921  MCN921     -0.0220
     42  N3'      -16.9300   12.3350  -30.6480 N.2   921  MCN921     -0.2474
     43  C4'      -16.9060   10.9630  -30.5090 C.1   921  MCN921      0.2441
     44  O4'      -17.8800   10.2370  -30.8360 O.2   921  MCN921     -0.2063
@<TRIPOS>BOND
     1    15    12    1
     2    24    22    2
     3    23    22    1
     4    11    10    1
     5    12    10    1
     6    12    13    1
     7    22    25    1
     8    22    21    1
     9    10     9    1
    10    19    18    2
    11     7     2    2
    12    25    26    1
    13    17    18    1
    14    17    16    1
    15     2     3    2
    16     2     1   am
    17     3     4    2
    18    21    18    1
    19    18    20    1
    20    13    16    1
    21    13    14    1
    22    26    27    1
    23     1     9    1
    24     1     6    1
    25     9    14    1
    26     4     8    1
    27     4     5    1
    28     6     5    2
    29    27    34    1
    30    27    28    1
    31    44    43    2
    32    34    33    1
    33    42    43    2
    34    42    40    2
    35    29    28    1
    36    43    36    1
    37    41    40    1
    38    40    39    2
    39    28    30    2
    40    36    35    2
    41    36    38    1
    42    39    38    2
    43    35    32    1
    44    38    37    2
    45    30    32    1
    46    30    31    1
    47    33    37    1
    48    33    32    1
