@<TRIPOS>MOLECULE
3hrf_ATP_A_1.pdb
 31 33 0 0 0
SMALL
GASTEIGER

@<TRIPOS>ATOM
      1  PG        28.0000  -18.6660  -14.1220 P.3   1373  ATP1373     0.5373
      2  O1G       26.9640  -17.5560  -14.0780 O.3   1373  ATP1373    -0.1143
      3  O2G       28.9740  -18.6500  -12.9630 O.3   1373  ATP1373    -0.1143
      4  O3G       28.6620  -18.8910  -15.4720 O.2   1373  ATP1373    -0.2221
      5  PB        25.8510  -20.5540  -14.5310 P.3   1373  ATP1373     0.2277
      6  O1B       25.9060  -22.0500  -14.3090 O.3   1373  ATP1373    -0.4368
      7  O2B       25.7610  -19.9110  -15.8810 O.2   1373  ATP1373    -0.5168
      8  O3B       27.2250  -20.0540  -13.8460 O.3   1373  ATP1373    -0.2258
      9  PA        23.1150  -20.1210  -13.6940 P.3   1373  ATP1373     0.2189
     10  O1A       22.4940  -19.5800  -12.4210 O.3   1373  ATP1373    -0.4371
     11  O2A       22.6380  -19.6060  -15.0360 O.2   1373  ATP1373    -0.5170
     12  O3A       24.7070  -19.9050  -13.5750 O.3   1373  ATP1373    -0.2700
     13  O5'       22.8930  -21.7130  -13.7410 O.3   1373  ATP1373    -0.3112
     14  C5'       23.4200  -22.5280  -12.7130 C.3   1373  ATP1373     0.1813
     15  C4'       23.0820  -23.9730  -13.0310 C.3   1373  ATP1373     0.1821
     16  O4'       21.6880  -24.1930  -12.8230 O.3   1373  ATP1373    -0.3135
     17  C3'       23.3000  -24.3770  -14.4850 C.3   1373  ATP1373     0.2184
     18  O3'       24.6600  -24.7040  -14.7610 O.3   1373  ATP1373    -0.2174
     19  C2'       22.3490  -25.5450  -14.6430 C.3   1373  ATP1373     0.2570
     20  O2'       22.9050  -26.7700  -14.1420 O.3   1373  ATP1373    -0.2130
     21  C1'       21.1870  -25.1600  -13.7390 C.3   1373  ATP1373     0.3186
     22  N9        20.0940  -24.5460  -14.5440 N.pl3 1373  ATP1373    -0.1439
     23  C8        20.0800  -23.3020  -15.0780 C.3   1373  ATP1373     0.3377
     24  N7        18.9040  -23.0880  -15.7290 N.2   1373  ATP1373    -0.2095
     25  C5        18.1620  -24.2140  -15.6210 C.2   1373  ATP1373     0.2526
     26  C6        16.8270  -24.6800  -16.0710 C.2   1373  ATP1373     0.4393
     27  N6        16.0460  -23.8790  -16.8170 N.pl3 1373  ATP1373     0.2180
     28  N1        16.4290  -25.9300  -15.7270 N.2   1373  ATP1373     0.0021
     29  C2        17.2070  -26.7470  -14.9970 C.3   1373  ATP1373     0.5254
     30  N3        18.4300  -26.3900  -14.5650 N.2   1373  ATP1373    -0.0055
     31  C4        18.9440  -25.1600  -14.8290 C.2   1373  ATP1373     0.3518
@<TRIPOS>BOND
     1    27    26    1
     2    26    28    2
     3    26    25    1
     4     7     5    2
     5    24    25    2
     6    24    23    1
     7    28    29    1
     8    25    31    1
     9     4     1    2
    10    23    22    1
    11    11     9    2
    12    29    30    1
    13    31    30    2
    14    31    22    1
    15    18    17    1
    16    19    17    1
    17    19    20    1
    18    19    21    1
    19    22    21    1
    20     5     6    1
    21     5     8    1
    22     5    12    1
    23    17    15    1
    24     1     2    1
    25     1     8    1
    26     1     3    1
    27    13     9    1
    28    13    14    1
    29    21    16    1
    30     9    12    1
    31     9    10    1
    32    15    16    1
    33    15    14    1
