@<TRIPOS>MOLECULE
3hrf_P47_A_1.pdb
 20 21 0 0 0
SMALL
GASTEIGER

@<TRIPOS>ATOM
      1  OAA       11.8540   -7.6140  -15.4780 O.co2 1374  P471374    -0.2406
      2  CAP       11.4760   -7.0630  -14.4060 C.2   1374  P471374     0.3876
      3  OAB       10.3800   -7.3030  -13.8390 O.co2 1374  P471374    -0.2406
      4  CAD       12.3550   -6.0770  -13.7470 C.2   1374  P471374     0.0819
      5  CAQ       13.6440   -6.2800  -13.4440 C.2   1374  P471374    -0.0153
      6  CAT       14.3420   -7.5800  -13.7330 C.ar  1374  P471374    -0.0037
      7  CAK       15.4060   -7.6310  -14.6360 C.ar  1374  P471374    -0.0003
      8  CAG       16.0470   -8.8390  -14.9020 C.ar  1374  P471374    -0.0000
      9  CAE       15.6030  -10.0010  -14.2720 C.ar  1374  P471374    -0.0000
     10  CAF       14.5390   -9.9630  -13.3770 C.ar  1374  P471374    -0.0000
     11  CAJ       13.9060   -8.7550  -13.1060 C.ar  1374  P471374    -0.0003
     12  CAN       14.3370   -5.1290  -12.7450 C.3   1374  P471374     0.0312
     13  CAO       15.5420   -4.5170  -13.4540 C.3   1374  P471374     0.0310
     14  CAS       16.6200   -4.4000  -12.3960 C.ar  1374  P471374    -0.0218
     15  CAL       17.9230   -4.7950  -12.7050 C.ar  1374  P471374    -0.0034
     16  CAM       16.3040   -3.9190  -11.1170 C.ar  1374  P471374    -0.0034
     17  CAI       17.3020   -3.8290  -10.1470 C.ar  1374  P471374     0.0111
     18  CAR       18.6030   -4.2290  -10.4720 C.ar  1374  P471374     0.0577
     19 CLAC       19.8920   -4.1250   -9.2390 Cl    1374  P471374    -0.0822
     20  CAH       18.9210   -4.7140  -11.7420 C.ar  1374  P471374     0.0111
@<TRIPOS>BOND
     1     1     2   ar
     2     8     7   ar
     3     8     9   ar
     4     7     6   ar
     5     2     3   ar
     6     2     4    1
     7     9    10   ar
     8     4     5    2
     9     6     5    1
    10     6    11   ar
    11    13    12    1
    12    13    14    1
    13     5    12    1
    14    10    11   ar
    15    15    14   ar
    16    15    20   ar
    17    14    16   ar
    18    20    18   ar
    19    16    17   ar
    20    18    17   ar
    21    18    19    1
