@<TRIPOS>MOLECULE
3hrg_UNL_A_1.pdb
 10 2 0 0 0
SMALL
GASTEIGER

@<TRIPOS>ATOM
      1  O1        64.7370   16.9890    3.4610 O.3   257  UNL257      0.0000
      2  O2        66.2090   17.4580    5.3580 O.3   257  UNL257      0.0000
      3  O3        68.4440   18.6890    4.6820 O.3   257  UNL257      0.0000
      4  O4        65.9680   19.4480    4.8650 O.3   257  UNL257      0.0000
      5  O5        67.2830   18.5100    6.6640 O.3   257  UNL257      0.0000
      6  O6        68.5250   20.1010    5.6620 O.3   257  UNL257      0.0000
      7  O7        69.9690   18.9710    6.3100 O.3   257  UNL257      0.0000
      8  O8        69.3690   22.2500    5.4450 O.3   257  UNL257      0.0000
      9  O9        70.9560   17.7750    5.8400 O.3   257  UNL257      0.0000
     10  O10       69.3780   16.4920    5.5790 O.3   257  UNL257      0.0000
@<TRIPOS>BOND
     1     3     6    1
     2     9     7    1
