@<TRIPOS>MOLECULE
3hrk_HAM_A_1.pdb
 33 36 0 0 0
SMALL
GASTEIGER

@<TRIPOS>ATOM
      1  P         28.7940   36.5180   34.0470 P.3     1  HAM1        0.2723
      2  O1P       29.5550   37.7800   34.1350 O.2     1  HAM1       -0.5082
      3  O2P       27.9640   36.0890   35.2080 O.3     1  HAM1       -0.4273
      4  O3P       29.7660   35.2770   33.5690 O.3     1  HAM1       -0.4091
      5  O5'       27.7640   36.6240   32.8620 O.3     1  HAM1       -0.3024
      6  C5'       26.6440   37.4560   33.0940 C.3     1  HAM1        0.1823
      7  C4'       25.9660   37.7020   31.7770 C.3     1  HAM1        0.1822
      8  O4'       25.9390   36.4450   31.0700 O.3     1  HAM1       -0.3135
      9  C3'       24.5450   38.0900   32.1360 C.3     1  HAM1        0.2184
     10  O3'       24.3400   39.4680   31.8060 O.3     1  HAM1       -0.2174
     11  C2'       23.6610   37.1800   31.2860 C.3     1  HAM1        0.2570
     12  O2'       23.0010   37.8620   30.2120 O.3     1  HAM1       -0.2130
     13  C1'       24.5890   36.1070   30.7340 C.3     1  HAM1        0.3186
     14  N9        24.1120   35.0290   31.5870 N.pl3   1  HAM1       -0.1439
     15  C8        24.7350   34.5490   32.6560 C.3     1  HAM1        0.3377
     16  N7        23.9890   33.5940   33.1910 N.2     1  HAM1       -0.2095
     17  C5        22.8940   33.4780   32.4650 C.2     1  HAM1        0.2526
     18  C6        21.7860   32.6510   32.5460 C.2     1  HAM1        0.4393
     19  N6        21.7190   31.7620   33.5420 N.pl3   1  HAM1        0.2180
     20  N1        20.8000   32.7810   31.6260 N.2     1  HAM1        0.0021
     21  C2        20.8920   33.6860   30.6540 C.3     1  HAM1        0.5254
     22  N3        21.9500   34.4900   30.5550 N.2     1  HAM1       -0.0055
     23  C4        22.9580   34.3990   31.4470 C.2     1  HAM1        0.3518
     24  C         30.9090   35.5020   32.8340 C.2     1  HAM1        0.3389
     25  O         31.2590   34.7910   31.8880 O.2     1  HAM1       -0.2482
     26  CA        31.8720   36.5740   33.3560 C.3     1  HAM1        0.1959
     27  N         33.1920   35.9420   33.4700 N.3     1  HAM1       -0.1206
     28  CB        31.9640   37.7970   32.4060 C.3     1  HAM1        0.0738
     29  CG        33.3380   37.9250   31.7250 C.2     1  HAM1        0.0651
     30  CD2       33.6600   37.5620   30.4930 C.3     1  HAM1        0.1683
     31  ND1       34.4260   38.4470   32.2760 N.2     1  HAM1       -0.2310
     32  CE1       35.4200   38.4070   31.3920 C.2     1  HAM1        0.1939
     33  NE2       34.9440   37.8560   30.2870 N.2     1  HAM1       -0.2440
@<TRIPOS>BOND
     1    12    11    1
     2    33    30    1
     3    33    32    2
     4    30    29    1
     5    22    21    1
     6    22    23    2
     7    21    20    1
     8    13     8    1
     9    13    11    1
    10    13    14    1
    11     8     7    1
    12    11     9    1
    13    32    31    1
    14    23    14    1
    15    23    17    1
    16    14    15    1
    17    20    18    2
    18    29    31    2
    19    29    28    1
    20     7     9    1
    21     7     6    1
    22    10     9    1
    23    25    24    2
    24    28    26    1
    25    17    18    1
    26    17    16    2
    27    18    19    1
    28    15    16    1
    29    24    26    1
    30    24     4    1
    31     5     6    1
    32     5     1    1
    33    26    27    1
    34     4     1    1
    35     1     2    2
    36     1     3    1
