@<TRIPOS>MOLECULE
3hrr_HC8_A_1.pdb
 21 22 0 0 0
SMALL
GASTEIGER

@<TRIPOS>ATOM
      1  O21       -9.8720   -6.7620   -8.1950 O.2   4000  HC84000    -0.2912
      2  C19      -10.5950   -7.4740   -7.4860 C.2   4000  HC84000     0.1763
      3  C20      -10.0690   -7.8540   -6.1610 C.3   4000  HC84000     0.0774
      4  C18      -11.9460   -8.0260   -7.9270 C.ar  4000  HC84000     0.0702
      5  C5       -12.7420   -8.8730   -7.1070 C.ar  4000  HC84000    -0.0089
      6  C4       -12.3810   -9.3660   -5.7060 C.3   4000  HC84000     0.0909
      7  C2       -11.9960   -8.3860   -4.5940 C.2   4000  HC84000     0.1555
      8  O3       -11.0530   -8.6800   -3.8330 O.2   4000  HC84000    -0.2957
      9  C1       -12.8110   -7.1200   -4.3250 C.3   4000  HC84000     0.0726
     10  C16      -12.4210   -7.6800   -9.2120 C.ar  4000  HC84000     0.2011
     11  O17      -11.6650   -6.8570  -10.0060 O.3   4000  HC84000    -0.2864
     12  C15      -13.6570   -8.1740   -9.6950 C.ar  4000  HC84000     0.0781
     13  C7       -14.4190   -9.0170   -8.8680 C.ar  4000  HC84000     0.0089
     14  C6       -13.9540   -9.3610   -7.5960 C.ar  4000  HC84000    -0.0033
     15  C13      -14.1570   -7.8310  -10.9810 C.ar  4000  HC84000     0.2018
     16  O14      -13.4780   -6.9970  -11.8420 O.3   4000  HC84000    -0.2864
     17  C12      -15.3940   -8.3480  -11.3960 C.ar  4000  HC84000     0.0790
     18  C9       -16.1500   -9.2010  -10.5820 C.ar  4000  HC84000     0.1419
     19  C8       -15.6580   -9.5220   -9.3050 C.ar  4000  HC84000     0.0372
     20  O10      -17.3810   -9.6930  -11.0440 O.3   4000  HC84000    -0.4713
     21  C11      -17.8870  -10.9560  -10.5940 C.3   4000  HC84000     0.2525
@<TRIPOS>BOND
     1    16    15    1
     2    17    15   ar
     3    17    18   ar
     4    20    21    1
     5    20    18    1
     6    15    12   ar
     7    18    19   ar
     8    11    10    1
     9    12    10   ar
    10    12    13   ar
    11    19    13   ar
    12    10     4   ar
    13    13    14   ar
    14     1     2    2
    15     4     2    1
    16     4     5   ar
    17    14     5   ar
    18     2     3    1
    19     5     6    1
    20     6     7    1
    21     7     9    1
    22     7     8    2
