@<TRIPOS>MOLECULE
3hrw_HEM_A_1.pdb
 43 50 0 0 0
SMALL
GASTEIGER

@<TRIPOS>ATOM
      1 FE         25.4590   19.5100   19.4370 Fe    200  HEM200      0.0000
      2  CHA       28.6530   20.9490   19.2700 C.2   200  HEM200      0.0000
      3  CHB       24.2520   22.2330   17.8330 C.2   200  HEM200      0.0000
      4  CHC       22.2700   18.4640   20.1250 C.2   200  HEM200      0.0000
      5  CHD       26.7030   16.6870   20.6810 C.2   200  HEM200      0.0000
      6  NA        26.3390   21.2300   18.5680 N.ar  200  HEM200      0.0000
      7  C1A       27.5990   21.7120   18.8540 C.ar  200  HEM200      0.0000
      8  C2A       27.6230   23.1500   18.6590 C.ar  200  HEM200      0.0000
      9  C3A       26.3990   23.5160   18.2680 C.ar  200  HEM200      0.0000
     10  C4A       25.5740   22.3130   18.1980 C.ar  200  HEM200      0.0000
     11  CMA       25.9620   24.9660   17.9520 C.3   200  HEM200      0.0000
     12  CAA       28.8370   24.0790   18.9240 C.3   200  HEM200      0.0000
     13  CBA       29.4720   24.7630   17.7190 C.3   200  HEM200      0.0000
     14  CGA       30.5290   25.7320   18.2110 C.2   200  HEM200      0.0000
     15  O1A       31.3010   25.3740   19.1410 O.co2 200  HEM200      0.0000
     16  O2A       30.5940   26.8750   17.6740 O.co2 200  HEM200      0.0000
     17  NB        23.6010   20.2000   18.9990 N.2   200  HEM200      0.0000
     18  C1B       23.3190   21.4220   18.4280 C.2   200  HEM200      0.0000
     19  C2B       21.8980   21.6720   18.5770 C.2   200  HEM200      0.0000
     20  C3B       21.3640   20.6400   19.2160 C.2   200  HEM200      0.0000
     21  C4B       22.4160   19.6820   19.4920 C.2   200  HEM200      0.0000
     22  CMB       21.1080   22.9020   18.0990 C.3   200  HEM200      0.0000
     23  CAB       19.8780   20.4860   19.5730 C.2   200  HEM200      0.0000
     24  CBB       19.0350   20.1500   18.5820 C.2   200  HEM200      0.0000
     25  NC        24.6440   17.8900   20.2530 N.ar  200  HEM200      0.0000
     26  C1C       23.3010   17.6200   20.4490 C.ar  200  HEM200      0.0000
     27  C2C       23.1890   16.3150   21.0550 C.ar  200  HEM200      0.0000
     28  C3C       24.4160   15.8280   21.2070 C.ar  200  HEM200      0.0000
     29  C4C       25.3500   16.8130   20.7070 C.ar  200  HEM200      0.0000
     30  CMC       21.8900   15.5890   21.4580 C.3   200  HEM200      0.0000
     31  CAC       24.7650   14.4470   21.8080 C.2   200  HEM200      0.0000
     32  CBC       24.9760   14.3070   23.1230 C.2   200  HEM200      0.0000
     33  ND        27.3670   18.9430   19.9140 N.2   200  HEM200      0.0000
     34  C1D       27.6300   17.6610   20.3990 C.2   200  HEM200      0.0000
     35  C2D       29.0660   17.5100   20.5740 C.2   200  HEM200      0.0000
     36  C3D       29.6620   18.8440   20.1270 C.2   200  HEM200      0.0000
     37  C4D       28.5450   19.6710   19.7450 C.2   200  HEM200      0.0000
     38  CMD       29.8630   16.2800   21.0860 C.3   200  HEM200      0.0000
     39  CAD       31.1550   19.2100   20.1140 C.3   200  HEM200      0.0000
     40  CBD       31.4460   19.9070   21.4360 C.3   200  HEM200      0.0000
     41  CGD       32.5610   20.8860   21.2390 C.2   200  HEM200      0.0000
     42  O1D       32.3740   21.8650   20.4640 O.co2 200  HEM200      0.0000
     43  O2D       33.6220   20.6540   21.8730 O.co2 200  HEM200      0.0000
@<TRIPOS>BOND
     1    16    14   ar
     2    13    14    1
     3    13    12    1
     4     3    10    2
     5     3    18    1
     6    11     9    1
     7    22    19    1
     8    10     9   ar
     9    10     6   ar
    10    14    15   ar
    11     9     8   ar
    12    18    19    1
    13    18    17    2
    14     6     7   ar
    15     6     1    1
    16    19    20    2
    17    24    23    2
    18     8     7   ar
    19     8    12    1
    20     7     2    2
    21    17     1    1
    22    17    21    1
    23    20    21    1
    24    20    23    1
    25     2    37    1
    26     1    33    1
    27     1    25    1
    28    21     4    2
    29    37    33    2
    30    37    36    1
    31    33    34    1
    32    39    36    1
    33    39    40    1
    34     4    26    1
    35    36    35    2
    36    25    26   ar
    37    25    29   ar
    38    34    35    1
    39    34     5    2
    40    26    27   ar
    41    42    41   ar
    42    35    38    1
    43     5    29    1
    44    29    28   ar
    45    27    28   ar
    46    27    30    1
    47    28    31    1
    48    41    40    1
    49    41    43   ar
    50    31    32    2
