@<TRIPOS>MOLECULE
3hs4_AZM_A_1.pdb
 13 13 0 0 0
SMALL
GASTEIGER

@<TRIPOS>ATOM
      1  C1        -5.0950    2.0810   15.8000 C.ar  701  AZM701      0.2590
      2  C2        -4.6920    3.9590   14.3420 C.ar  701  AZM701      0.2093
      3  C3        -5.8420    5.6620   13.1470 C.2   701  AZM701      0.2478
      4  C4        -5.6970    6.7650   12.1200 C.3   701  AZM701      0.0969
      5  N1        -5.4240   -0.5550   16.1880 N.3   701  AZM701      0.0413
      6  N2        -3.5970    3.3260   14.7090 N.ar  701  AZM701     -0.1222
      7  N3        -3.8200    2.1850   15.5420 N.ar  701  AZM701     -0.1189
      8  N4        -4.6850    5.0760   13.5080 N.am  701  AZM701     -0.1528
      9  O1        -5.3270    1.0560   18.0820 O.2   701  AZM701     -0.1483
     10  O2        -7.2460    1.0490   16.5670 O.2   701  AZM701     -0.1483
     11  O3        -6.9360    5.2920   13.5500 O.2   701  AZM701     -0.2729
     12  S1        -5.8540    0.8210   16.7930 S.O2  701  AZM701      0.1178
     13  S2        -6.0730    3.3040   15.0330 S.2   701  AZM701     -0.0087
@<TRIPOS>BOND
     1     4     3    1
     2     3     8   am
     3     3    11    2
     4     8     2    1
     5     2     6   ar
     6     2    13   ar
     7     6     7   ar
     8    13     1   ar
     9     7     1   ar
    10     1    12    1
    11     5    12    1
    12    10    12    2
    13    12     9    2
