@<TRIPOS>MOLECULE
3hs5_ACD_A_1.pdb
 22 21 0 0 0
SMALL
GASTEIGER

@<TRIPOS>ATOM
      1  C1        25.3890   17.7930   65.0820 C.2     1  ACD1        0.3649
      2  C2        24.8020   16.8180   66.0750 C.3     1  ACD1        0.1144
      3  C3        24.3960   17.5100   67.3700 C.3     1  ACD1        0.0165
      4  C4        22.9980   18.1120   67.2760 C.3     1  ACD1        0.0263
      5  C5        22.8680   19.2480   68.2630 C.2     1  ACD1       -0.0304
      6  C6        21.9200   19.1970   69.1910 C.2     1  ACD1       -0.0260
      7  C7        21.0070   17.9960   69.2290 C.3     1  ACD1        0.0513
      8  C8        20.8780   17.5310   70.6570 C.2     1  ACD1       -0.0257
      9  C9        20.5440   16.2720   70.9300 C.2     1  ACD1       -0.0257
     10  C10       20.2790   15.2710   69.8290 C.3     1  ACD1        0.0513
     11  C11       19.5210   14.1150   70.4340 C.2     1  ACD1       -0.0257
     12  C12       18.7720   13.3160   69.6810 C.2     1  ACD1       -0.0257
     13  C13       18.6540   13.5320   68.1920 C.3     1  ACD1        0.0513
     14  C14       17.5630   12.6270   67.6720 C.2     1  ACD1       -0.0260
     15  C15       17.5290   12.2980   66.3870 C.2     1  ACD1       -0.0304
     16  C16       18.5900   12.8410   65.4620 C.3     1  ACD1        0.0257
     17  C17       18.2660   12.4750   64.0170 C.3     1  ACD1        0.0047
     18  C18       19.4860   12.6710   63.1180 C.3     1  ACD1        0.0003
     19  C19       19.1860   13.6800   62.0180 C.3     1  ACD1        0.0000
     20  C20       17.7350   14.1040   62.0930 C.3     1  ACD1        0.0000
     21  O1        25.0690   17.6820   63.8780 O.co2   1  ACD1       -0.2457
     22  O2        26.1750   18.6680   65.4950 O.co2   1  ACD1       -0.2457
@<TRIPOS>BOND
     1    19    20    1
     2    19    18    1
     3    18    17    1
     4    21     1   ar
     5    17    16    1
     6     1    22   ar
     7     1     2    1
     8    16    15    1
     9     2     3    1
    10    15    14    2
    11     4     3    1
    12     4     5    1
    13    14    13    1
    14    13    12    1
    15     5     6    2
    16     6     7    1
    17     7     8    1
    18    12    11    2
    19    10    11    1
    20    10     9    1
    21     8     9    2
