@<TRIPOS>MOLECULE
3hs5_COH_A_1.pdb
 43 50 0 0 0
SMALL
GASTEIGER

@<TRIPOS>ATOM
      1 CO         34.0400   27.2210   73.0050 Co.oh 619  COH619      0.0000
      2  CHA       33.0680   29.8880   71.0780 C.2   619  COH619      0.0000
      3  CHB       36.5340   29.2510   74.4170 C.2   619  COH619      0.0000
      4  CHC       35.2690   24.5550   74.7920 C.2   619  COH619      0.0000
      5  CHD       31.3580   25.3700   71.9910 C.2   619  COH619      0.0000
      6  NA        34.6540   29.2570   72.8370 N.2   619  COH619      0.0000
      7  C1A       34.1880   30.1140   71.8550 C.2   619  COH619      0.0000
      8  C2A       35.0830   31.2650   71.7990 C.2   619  COH619      0.0000
      9  C3A       36.0380   31.0830   72.7270 C.2   619  COH619      0.0000
     10  C4A       35.7880   29.8170   73.3980 C.2   619  COH619      0.0000
     11  CMA       37.2070   32.0510   73.0330 C.3   619  COH619      0.0000
     12  CAA       34.9700   32.4970   70.8560 C.3   619  COH619      0.0000
     13  CBA       34.8420   32.1040   69.3800 C.3   619  COH619      0.0000
     14  CGA       36.1630   32.1310   68.6450 C.2   619  COH619      0.0000
     15  O1A       36.9060   33.1450   68.7450 O.co2 619  COH619      0.0000
     16  O2A       36.4720   31.1340   67.9370 O.co2 619  COH619      0.0000
     17  NB        35.6070   26.9680   74.4010 N.ar  619  COH619      0.0000
     18  C1B       36.5530   27.9130   74.7680 C.ar  619  COH619      0.0000
     19  C2B       37.5580   27.2420   75.5720 C.ar  619  COH619      0.0000
     20  C3B       37.2160   25.9520   75.6750 C.ar  619  COH619      0.0000
     21  C4B       35.9740   25.7450   74.9390 C.ar  619  COH619      0.0000
     22  CMB       38.8070   27.9020   76.2030 C.3   619  COH619      0.0000
     23  CAB       38.0150   24.8810   76.4530 C.2   619  COH619      0.0000
     24  CBB       38.5020   23.8110   75.8200 C.2   619  COH619      0.0000
     25  NC        33.4250   25.2920   73.3260 N.2   619  COH619      0.0000
     26  C1C       34.0710   24.3550   74.1150 C.2   619  COH619      0.0000
     27  C2C       33.2620   23.1450   74.0930 C.2   619  COH619      0.0000
     28  C3C       32.1870   23.3710   73.3200 C.2   619  COH619      0.0000
     29  C4C       32.2660   24.7310   72.8190 C.2   619  COH619      0.0000
     30  CMC       33.5880   21.8240   74.8310 C.3   619  COH619      0.0000
     31  CAC       31.0570   22.3650   73.0110 C.2   619  COH619      0.0000
     32  CBC       30.8380   21.9750   71.7530 C.2   619  COH619      0.0000
     33  ND        32.3870   27.6060   71.7820 N.ar  619  COH619      0.0000
     34  C1D       31.5320   26.5890   71.3570 C.ar  619  COH619      0.0000
     35  C2D       30.8660   27.0280   70.1440 C.ar  619  COH619      0.0000
     36  C3D       31.4080   28.4390   69.8720 C.ar  619  COH619      0.0000
     37  C4D       32.3470   28.7140   70.9380 C.ar  619  COH619      0.0000
     38  CMD       29.8290   26.2510   69.3020 C.3   619  COH619      0.0000
     39  CAD       31.0520   29.3780   68.7010 C.3   619  COH619      0.0000
     40  CBD       32.1450   29.2180   67.6450 C.3   619  COH619      0.0000
     41  CGD       32.1750   30.3930   66.7020 C.2   619  COH619      0.0000
     42  O1D       31.0850   30.9440   66.4040 O.co2 619  COH619      0.0000
     43  O2D       33.2850   30.7720   66.2430 O.co2 619  COH619      0.0000
@<TRIPOS>BOND
     1    43    41   ar
     2    42    41   ar
     3    41    40    1
     4    40    39    1
     5    16    14   ar
     6    14    15   ar
     7    14    13    1
     8    39    36    1
     9    38    35    1
    10    13    12    1
    11    36    35   ar
    12    36    37   ar
    13    35    34   ar
    14    12     8    1
    15    37     2    2
    16    37    33   ar
    17     2     7    1
    18    34    33   ar
    19    34     5    2
    20    32    31    2
    21    33     1    1
    22     8     7    1
    23     8     9    2
    24     7     6    2
    25     5    29    1
    26     9    11    1
    27     9    10    1
    28    29    28    1
    29    29    25    2
    30     6     1    1
    31     6    10    1
    32     1    25    1
    33     1    17    1
    34    31    28    1
    35    28    27    2
    36    25    26    1
    37    10     3    2
    38    27    26    1
    39    27    30    1
    40    26     4    2
    41    17    18   ar
    42    17    21   ar
    43     3    18    1
    44    18    19   ar
    45     4    21    1
    46    21    20   ar
    47    19    20   ar
    48    19    22    1
    49    20    23    1
    50    24    23    2
