@<TRIPOS>MOLECULE
3hs6_COH_A_1.pdb
 43 50 0 0 0
SMALL
GASTEIGER

@<TRIPOS>ATOM
      1 CO         34.9070   27.1270   72.9360 Co.oh 619  COH619      0.0000
      2  CHA       33.6450   29.7330   71.1170 C.2   619  COH619      0.0000
      3  CHB       37.5630   29.1480   73.9550 C.2   619  COH619      0.0000
      4  CHC       36.3410   24.4600   74.6170 C.2   619  COH619      0.0000
      5  CHD       32.3460   25.0640   71.8920 C.2   619  COH619      0.0000
      6  NA        35.5190   29.0940   72.5790 N.2   619  COH619      0.0000
      7  C1A       34.8040   30.0070   71.8250 C.2   619  COH619      0.0000
      8  C2A       35.4910   31.2880   71.9180 C.2   619  COH619      0.0000
      9  C3A       36.5710   31.1250   72.7010 C.2   619  COH619      0.0000
     10  C4A       36.6130   29.7360   73.1350 C.2   619  COH619      0.0000
     11  CMA       37.5970   32.2240   73.0760 C.3   619  COH619      0.0000
     12  CAA       35.0550   32.6140   71.2370 C.3   619  COH619      0.0000
     13  CBA       35.2380   32.5590   69.7180 C.3   619  COH619      0.0000
     14  CGA       36.6080   32.0560   69.3240 C.2   619  COH619      0.0000
     15  O1A       37.6220   32.7120   69.6850 O.co2 619  COH619      0.0000
     16  O2A       36.6860   30.9960   68.6450 O.co2 619  COH619      0.0000
     17  NB        36.6640   26.8520   74.0740 N.ar  619  COH619      0.0000
     18  C1B       37.5900   27.8340   74.3950 C.ar  619  COH619      0.0000
     19  C2B       38.5820   27.2260   75.2660 C.ar  619  COH619      0.0000
     20  C3B       38.2540   25.9390   75.4480 C.ar  619  COH619      0.0000
     21  C4B       37.0300   25.6690   74.7000 C.ar  619  COH619      0.0000
     22  CMB       39.8110   27.9390   75.8810 C.3   619  COH619      0.0000
     23  CAB       39.0480   24.9340   76.3190 C.2   619  COH619      0.0000
     24  CBB       39.5260   23.7970   75.8060 C.2   619  COH619      0.0000
     25  NC        34.4340   25.1000   73.1880 N.2   619  COH619      0.0000
     26  C1C       35.1430   24.1950   73.9610 C.2   619  COH619      0.0000
     27  C2C       34.3940   22.9410   73.9460 C.2   619  COH619      0.0000
     28  C3C       33.2950   23.1100   73.1950 C.2   619  COH619      0.0000
     29  C4C       33.2980   24.4750   72.7010 C.2   619  COH619      0.0000
     30  CMC       34.7920   21.6330   74.6680 C.3   619  COH619      0.0000
     31  CAC       32.2120   22.0410   72.9080 C.2   619  COH619      0.0000
     32  CBC       31.7390   21.8500   71.6730 C.2   619  COH619      0.0000
     33  ND        33.1610   27.3910   71.7490 N.ar  619  COH619      0.0000
     34  C1D       32.4230   26.3030   71.2830 C.ar  619  COH619      0.0000
     35  C2D       31.7590   26.6870   70.0570 C.ar  619  COH619      0.0000
     36  C3D       32.1670   28.1450   69.8190 C.ar  619  COH619      0.0000
     37  C4D       33.0400   28.5020   70.9200 C.ar  619  COH619      0.0000
     38  CMD       30.8370   25.8180   69.1780 C.3   619  COH619      0.0000
     39  CAD       31.7420   29.0390   68.6430 C.3   619  COH619      0.0000
     40  CBD       32.8350   28.9750   67.5830 C.3   619  COH619      0.0000
     41  CGD       32.9040   30.2820   66.8420 C.2   619  COH619      0.0000
     42  O1D       31.9090   31.0530   66.8920 O.co2 619  COH619      0.0000
     43  O2D       33.9550   30.5520   66.2040 O.co2 619  COH619      0.0000
@<TRIPOS>BOND
     1    43    41   ar
     2    41    42   ar
     3    41    40    1
     4    40    39    1
     5    39    36    1
     6    16    14   ar
     7    38    35    1
     8    14    15   ar
     9    14    13    1
    10    13    12    1
    11    36    35   ar
    12    36    37   ar
    13    35    34   ar
    14    37     2    2
    15    37    33   ar
    16     2     7    1
    17    12     8    1
    18    34    33   ar
    19    34     5    2
    20    32    31    2
    21    33     1    1
    22     7     8    1
    23     7     6    2
    24     5    29    1
    25     8     9    2
    26     6     1    1
    27     6    10    1
    28     9    11    1
    29     9    10    1
    30    29    25    2
    31    29    28    1
    32    31    28    1
    33     1    25    1
    34     1    17    1
    35    10     3    2
    36    25    26    1
    37    28    27    2
    38    27    26    1
    39    27    30    1
    40     3    18    1
    41    26     4    2
    42    17    18   ar
    43    17    21   ar
    44    18    19   ar
    45     4    21    1
    46    21    20   ar
    47    19    20   ar
    48    19    22    1
    49    20    23    1
    50    24    23    2
