@<TRIPOS>MOLECULE
3hs6_EPA_A_1.pdb
 22 21 0 0 0
SMALL
GASTEIGER

@<TRIPOS>ATOM
      1  C1        26.3430   17.6870   65.1070 C.2     1  EPA1        0.3649
      2  OA        27.2280   18.5550   65.2660 O.co2   1  EPA1       -0.2457
      3  OB        25.8940   17.3910   63.9800 O.co2   1  EPA1       -0.2457
      4  C2        25.7830   16.9890   66.3250 C.3     1  EPA1        0.1144
      5  C3        24.4660   17.6650   66.6810 C.3     1  EPA1        0.0165
      6  C4        24.1900   17.6110   68.1670 C.3     1  EPA1        0.0263
      7  C5        23.7040   18.9660   68.6360 C.2     1  EPA1       -0.0304
      8  C6        22.4820   19.1250   69.1350 C.2     1  EPA1       -0.0260
      9  C7        21.5130   17.9670   69.2340 C.3     1  EPA1        0.0513
     10  C8        21.5830   17.3330   70.6020 C.2     1  EPA1       -0.0257
     11  C9        21.5470   16.0120   70.7780 C.2     1  EPA1       -0.0257
     12  C10       21.4240   15.0360   69.6340 C.3     1  EPA1        0.0513
     13  C11       20.6390   13.8480   70.1330 C.2     1  EPA1       -0.0257
     14  C12       19.7210   13.2180   69.3990 C.2     1  EPA1       -0.0257
     15  C13       19.3580   13.6060   67.9850 C.3     1  EPA1        0.0513
     16  C14       18.3120   12.6240   67.5100 C.2     1  EPA1       -0.0257
     17  C15       18.3270   12.0220   66.3180 C.2     1  EPA1       -0.0257
     18  C16       19.3940   12.2470   65.2770 C.3     1  EPA1        0.0513
     19  C17       18.8600   13.2300   64.2340 C.2     1  EPA1       -0.0260
     20  C18       19.6280   13.7680   63.2790 C.2     1  EPA1       -0.0304
     21  C19       21.1150   13.4380   63.1420 C.3     1  EPA1        0.0257
     22  C20       21.3650   12.5710   61.9260 C.3     1  EPA1        0.0050
@<TRIPOS>BOND
     1    22    21    1
     2    21    20    1
     3    20    19    2
     4     3     1   ar
     5    19    18    1
     6     1     2   ar
     7     1     4    1
     8    18    17    1
     9    17    16    2
    10     4     5    1
    11     5     6    1
    12    16    15    1
    13    15    14    1
    14     6     7    1
    15     7     8    2
    16     8     9    1
    17     9    10    1
    18    14    13    2
    19    12    13    1
    20    12    11    1
    21    10    11    2
