@<TRIPOS>MOLECULE
3hs7_HXA_A_1.pdb
 24 23 0 0 0
SMALL
GASTEIGER

@<TRIPOS>ATOM
      1  C1        42.7500   12.4920   23.4150 C.2     1  HXA1        0.3652
      2  O1        42.0650   12.7910   24.4170 O.co2   1  HXA1       -0.2456
      3  O2        44.0020   12.4450   23.3610 O.co2   1  HXA1       -0.2456
      4  C2        41.9850   12.1790   22.1290 C.3     1  HXA1        0.1187
      5  C3        41.9510   13.4200   21.2390 C.3     1  HXA1        0.0375
      6  C4        41.0150   13.3100   20.2130 C.2     1  HXA1       -0.0298
      7  C5        39.7270   13.8630   20.2410 C.2     1  HXA1       -0.0260
      8  C6        39.1510   14.5850   21.2970 C.3     1  HXA1        0.0513
      9  C7        39.9190   15.6900   21.6660 C.2     1  HXA1       -0.0257
     10  C8        39.8870   16.9310   21.0290 C.2     1  HXA1       -0.0257
     11  C9        39.0330   17.2320   19.9700 C.3     1  HXA1        0.0513
     12  C10       38.4790   18.5060   20.1210 C.2     1  HXA1       -0.0257
     13  C11       37.7020   18.9360   21.2050 C.2     1  HXA1       -0.0257
     14  C12       37.4090   18.1770   22.3410 C.3     1  HXA1        0.0513
     15  C13       36.4900   17.1650   22.0640 C.2     1  HXA1       -0.0257
     16  C14       35.5690   16.7060   23.0040 C.2     1  HXA1       -0.0257
     17  C15       35.4970   17.2350   24.2890 C.3     1  HXA1        0.0513
     18  C16       34.1950   17.5710   24.6350 C.2     1  HXA1       -0.0257
     19  C17       33.8780   18.1190   25.8780 C.2     1  HXA1       -0.0257
     20  C18       34.8200   18.3640   26.8740 C.3     1  HXA1        0.0513
     21  C19       34.3210   17.9800   28.1160 C.2     1  HXA1       -0.0260
     22  C20       34.2480   18.8410   29.2140 C.2     1  HXA1       -0.0304
     23  C21       34.6550   20.1730   29.1700 C.3     1  HXA1        0.0257
     24  C22       33.9830   20.9900   30.2730 C.3     1  HXA1        0.0050
@<TRIPOS>BOND
     1    11    12    1
     2    11    10    1
     3    12    13    2
     4     6     7    2
     5     6     5    1
     6     7     8    1
     7    10     9    2
     8    13    14    1
     9     5     4    1
    10     8     9    1
    11    15    14    1
    12    15    16    2
    13     4     1    1
    14    16    17    1
    15     3     1   ar
    16     1     2   ar
    17    17    18    1
    18    18    19    2
    19    19    20    1
    20    20    21    1
    21    21    22    2
    22    23    22    1
    23    23    24    1
