@<TRIPOS>MOLECULE
3hs7_COH_A_1.pdb
 43 50 0 0 0
SMALL
GASTEIGER

@<TRIPOS>ATOM
      1 CO         26.3460   26.9540   17.0150 Co.oh 619  COH619      0.0000
      2  CHA       27.5670   29.5490   18.8000 C.2   619  COH619      0.0000
      3  CHB       23.5180   28.8630   16.2400 C.2   619  COH619      0.0000
      4  CHC       25.0550   24.3780   15.1180 C.2   619  COH619      0.0000
      5  CHD       29.0190   24.9850   17.8600 C.2   619  COH619      0.0000
      6  NA        25.6910   28.9240   17.3650 N.ar  619  COH619      0.0000
      7  C1A       26.2880   29.7300   18.3140 C.ar  619  COH619      0.0000
      8  C2A       25.3400   30.7650   18.6950 C.ar  619  COH619      0.0000
      9  C3A       24.2160   30.5720   17.9840 C.ar  619  COH619      0.0000
     10  C4A       24.4180   29.4100   17.1330 C.ar  619  COH619      0.0000
     11  CMA       22.9260   31.4270   18.0470 C.3   619  COH619      0.0000
     12  CAA       25.6020   31.8840   19.7370 C.3   619  COH619      0.0000
     13  CBA       26.1820   33.1110   19.0300 C.3   619  COH619      0.0000
     14  CGA       27.6320   33.3630   19.3780 C.2   619  COH619      0.0000
     15  O1A       28.0870   34.5180   19.1730 O.co2 619  COH619      0.0000
     16  O2A       28.3460   32.4350   19.8480 O.co2 619  COH619      0.0000
     17  NB        24.5890   26.6660   15.9060 N.2   619  COH619      0.0000
     18  C1B       23.5920   27.6030   15.6760 C.2   619  COH619      0.0000
     19  C2B       22.6430   27.0220   14.7450 C.2   619  COH619      0.0000
     20  C3B       23.0630   25.7900   14.4370 C.2   619  COH619      0.0000
     21  C4B       24.2990   25.5360   15.1610 C.2   619  COH619      0.0000
     22  CMB       21.3690   27.7110   14.2040 C.3   619  COH619      0.0000
     23  CAB       22.3500   24.8110   13.4760 C.2   619  COH619      0.0000
     24  CBB       21.7810   23.7020   13.9550 C.2   619  COH619      0.0000
     25  NC        26.9480   25.0340   16.5440 N.ar  619  COH619      0.0000
     26  C1C       26.2360   24.1190   15.7930 C.ar  619  COH619      0.0000
     27  C2C       26.9510   22.8540   15.8480 C.ar  619  COH619      0.0000
     28  C3C       28.0440   23.0220   16.6050 C.ar  619  COH619      0.0000
     29  C4C       28.0640   24.3990   17.0570 C.ar  619  COH619      0.0000
     30  CMC       26.5240   21.5380   15.1540 C.3   619  COH619      0.0000
     31  CAC       29.1050   21.9480   16.9440 C.2   619  COH619      0.0000
     32  CBC       29.2690   21.5380   18.2060 C.2   619  COH619      0.0000
     33  ND        28.1460   27.2720   18.0770 N.2   619  COH619      0.0000
     34  C1D       28.8770   26.1790   18.5350 C.2   619  COH619      0.0000
     35  C2D       29.4490   26.5050   19.8240 C.2   619  COH619      0.0000
     36  C3D       28.9900   27.9400   20.1160 C.2   619  COH619      0.0000
     37  C4D       28.1920   28.3330   18.9750 C.2   619  COH619      0.0000
     38  CMD       30.3300   25.6080   20.7190 C.3   619  COH619      0.0000
     39  CAD       29.3160   28.7840   21.3650 C.3   619  COH619      0.0000
     40  CBD       28.1250   28.7800   22.3170 C.3   619  COH619      0.0000
     41  CGD       27.9990   30.1220   22.9880 C.2   619  COH619      0.0000
     42  O1D       28.9800   30.9100   22.9500 O.co2 619  COH619      0.0000
     43  O2D       26.9130   30.4020   23.5600 O.co2 619  COH619      0.0000
@<TRIPOS>BOND
     1    23    24    2
     2    23    20    1
     3    22    19    1
     4    20    19    2
     5    20    21    1
     6    19    18    1
     7     4    21    2
     8     4    26    1
     9    30    27    1
    10    21    17    1
    11    18    17    2
    12    18     3    1
    13    26    27   ar
    14    26    25   ar
    15    27    28   ar
    16    17     1    1
    17     3    10    2
    18    25     1    1
    19    25    29   ar
    20    28    31    1
    21    28    29   ar
    22    31    32    2
    23     1     6    1
    24     1    33    1
    25    29     5    1
    26    10     6   ar
    27    10     9   ar
    28     6     7   ar
    29     5    34    2
    30     9    11    1
    31     9     8   ar
    32    33    34    1
    33    33    37    2
    34     7     8   ar
    35     7     2    2
    36    34    35    1
    37     8    12    1
    38     2    37    1
    39    37    36    1
    40    13    14    1
    41    13    12    1
    42    15    14   ar
    43    14    16   ar
    44    35    36    2
    45    35    38    1
    46    36    39    1
    47    39    40    1
    48    40    41    1
    49    42    41   ar
    50    41    43   ar
