@<TRIPOS>MOLECULE
3hsc_ADP_A_1.pdb
 27 29 0 0 0
SMALL
GASTEIGER

@<TRIPOS>ATOM
      1  PB        18.0340   29.3590   16.3850 P.3   486  ADP486      0.5373
      2  O1B       18.5640   29.2890   17.7400 O.3   486  ADP486     -0.1143
      3  O2B       18.4870   28.3450   15.3810 O.2   486  ADP486     -0.2221
      4  O3B       16.5680   29.4750   16.3680 O.3   486  ADP486     -0.1143
      5  PA        19.7420   31.5360   15.2930 P.3   486  ADP486      0.2231
      6  O1A       20.9350   30.7050   15.5570 O.3   486  ADP486     -0.4370
      7  O2A       19.5190   32.0300   13.9670 O.2   486  ADP486     -0.5169
      8  O3A       18.4600   30.7470   15.8250 O.3   486  ADP486     -0.2261
      9  O5'       19.8470   32.7070   16.2930 O.3   486  ADP486     -0.3111
     10  C5'       18.9270   33.8050   16.3600 C.3   486  ADP486      0.1813
     11  C4'       19.4820   34.7680   17.4070 C.3   486  ADP486      0.1821
     12  O4'       20.6890   35.3230   16.8370 O.3   486  ADP486     -0.3135
     13  C3'       18.5260   35.9250   17.7860 C.3   486  ADP486      0.2184
     14  O3'       18.6140   35.9300   19.2420 O.3   486  ADP486     -0.2174
     15  C2'       19.1630   37.1310   17.0140 C.3   486  ADP486      0.2570
     16  O2'       19.0250   38.3590   17.7510 O.3   486  ADP486     -0.2130
     17  C1'       20.6350   36.7170   17.0830 C.3   486  ADP486      0.3186
     18  N9        21.4980   37.4310   16.1180 N.pl3 486  ADP486     -0.1439
     19  C8        21.5250   37.4710   14.7440 C.3   486  ADP486      0.3377
     20  N7        22.4510   38.2540   14.2620 N.2   486  ADP486     -0.2095
     21  C5        23.0730   38.7570   15.4090 C.2   486  ADP486      0.2526
     22  C6        24.1490   39.6500   15.6070 C.2   486  ADP486      0.4393
     23  N6        24.7560   40.2610   14.6130 N.pl3 486  ADP486      0.2180
     24  N1        24.5320   39.9250   16.8660 N.2   486  ADP486      0.0021
     25  C2        23.8660   39.3410   17.8420 C.3   486  ADP486      0.5254
     26  N3        22.8400   38.5010   17.8050 N.2   486  ADP486     -0.0055
     27  C4        22.4920   38.2510   16.5270 C.2   486  ADP486      0.3518
@<TRIPOS>BOND
     1     7     5    2
     2    20    19    1
     3    20    21    2
     4    23    22    1
     5    19    18    1
     6     5     6    1
     7     5     8    1
     8     5     9    1
     9     3     1    2
    10    21    22    1
    11    21    27    1
    12    22    24    2
    13     8     1    1
    14    18    27    1
    15    18    17    1
    16     9    10    1
    17    10    11    1
    18     4     1    1
    19     1     2    1
    20    27    26    2
    21    12    17    1
    22    12    11    1
    23    24    25    1
    24    15    17    1
    25    15    16    1
    26    15    13    1
    27    11    13    1
    28    13    14    1
    29    26    25    1
