@<TRIPOS>MOLECULE
3hsg_APC_A_1.pdb
 31 33 0 0 0
SMALL
GASTEIGER

@<TRIPOS>ATOM
      1  PG        14.7090   31.1130   20.3010 P.3   171  APC171      0.5389
      2  O1G       15.0790   31.2380   21.7580 O.3   171  APC171     -0.1143
      3  O2G       14.0470   32.3360   19.6850 O.2   171  APC171     -0.2220
      4  O3G       13.9430   29.8480   20.0500 O.3   171  APC171     -0.1143
      5  PB        17.2370   29.8670   19.6350 P.3   171  APC171      0.3895
      6  O1B       16.6140   28.7210   20.3900 O.3   171  APC171     -0.1388
      7  O2B       17.7780   29.5620   18.2720 O.2   171  APC171     -0.2544
      8  O3B       16.1200   31.0010   19.4770 O.3   171  APC171     -0.2026
      9  PA        19.9140   29.5630   20.9370 P.3   171  APC171      0.3820
     10  O1A       19.4260   28.1610   20.9760 O.3   171  APC171     -0.1392
     11  O2A       21.0150   29.8610   20.0010 O.2   171  APC171     -0.2548
     12  C3A       18.5150   30.6400   20.6260 C.3   171  APC171      0.2357
     13  O5'       20.3640   29.8940   22.4290 O.3   171  APC171     -0.2896
     14  C5'       21.0410   31.1390   22.6940 C.3   171  APC171      0.1836
     15  C4'       21.0480   31.4060   24.1750 C.3   171  APC171      0.1822
     16  O4'       19.6900   31.5830   24.6410 O.3   171  APC171     -0.3135
     17  C3'       21.5840   30.3120   25.0820 C.3   171  APC171      0.2184
     18  O3'       22.9780   30.2030   25.0860 O.3   171  APC171     -0.2174
     19  C2'       20.9830   30.6940   26.4270 C.3   171  APC171      0.2570
     20  O2'       21.9430   31.3960   27.2400 O.3   171  APC171     -0.2130
     21  C1'       19.8250   31.6230   26.0690 C.3   171  APC171      0.3186
     22  N9        18.5360   31.3330   26.6800 N.pl3 171  APC171     -0.1439
     23  C8        17.7920   32.2290   27.3940 C.3   171  APC171      0.3377
     24  N7        16.6760   31.7140   27.8610 N.2   171  APC171     -0.2095
     25  C5        16.6920   30.3900   27.4130 C.2   171  APC171      0.2526
     26  C6        15.7590   29.3380   27.5780 C.2   171  APC171      0.4393
     27  N6        14.5960   29.5060   28.2230 N.pl3 171  APC171      0.2180
     28  N1        16.0670   28.1400   27.0180 N.2   171  APC171      0.0021
     29  C2        17.2240   28.0430   26.3380 C.3   171  APC171      0.5254
     30  N3        18.1680   28.9570   26.1240 N.2   171  APC171     -0.0055
     31  C4        17.8390   30.1310   26.6790 C.2   171  APC171      0.3518
@<TRIPOS>BOND
     1     7     5    2
     2     8     5    1
     3     8     1    1
     4     5     6    1
     5     5    12    1
     6     3     1    2
     7    11     9    2
     8     4     1    1
     9     1     2    1
    10    12     9    1
    11     9    10    1
    12     9    13    1
    13    13    14    1
    14    14    15    1
    15    15    16    1
    16    15    17    1
    17    16    21    1
    18    17    18    1
    19    17    19    1
    20    21    19    1
    21    21    22    1
    22    30    29    1
    23    30    31    2
    24    29    28    1
    25    19    20    1
    26    31    22    1
    27    31    25    1
    28    22    23    1
    29    28    26    2
    30    23    24    1
    31    25    26    1
    32    25    24    2
    33    26    27    1
