@<TRIPOS>MOLECULE
3hsk_NAP_A_1.pdb
 48 52 0 0 0
SMALL
GASTEIGER

@<TRIPOS>ATOM
      1  PA        10.0820   -8.7420   22.6240 P.3   366  NAP366      0.2189
      2  O1A        9.2780   -8.7100   21.3790 O.2   366  NAP366     -0.5170
      3  O2A        9.3800   -9.4970   23.6910 O.3   366  NAP366     -0.4371
      4  O5B       11.5250   -9.3890   22.3350 O.3   366  NAP366     -0.3112
      5  C5B       12.4140   -8.7870   21.4240 C.3   366  NAP366      0.1813
      6  C4B       12.8060   -9.8230   20.3850 C.3   366  NAP366      0.1820
      7  O4B       13.0870  -11.0550   21.0290 O.3   366  NAP366     -0.3136
      8  C3B       11.6780  -10.0730   19.3940 C.3   366  NAP366      0.2157
      9  O3B       12.1690   -9.9980   18.0780 O.3   366  NAP366     -0.2175
     10  C2B       11.2100  -11.4780   19.7140 C.3   366  NAP366      0.2314
     11  O2B       10.7910  -12.1900   18.5760 O.3   366  NAP366     -0.2630
     12  C1B       12.4300  -12.1140   20.3600 C.3   366  NAP366      0.3158
     13  N9A       12.0320  -13.2070   21.2690 N.pl3 366  NAP366     -0.1439
     14  C8A       11.1230  -13.1550   22.2950 C.3   366  NAP366      0.3377
     15  N7A       11.0500  -14.3770   22.8660 N.2   366  NAP366     -0.2095
     16  C5A       11.8960  -15.2100   22.2190 C.2   366  NAP366      0.2526
     17  C6A       12.2120  -16.5580   22.3850 C.2   366  NAP366      0.4393
     18  N6A       11.6290  -17.2740   23.3410 N.pl3 366  NAP366      0.2180
     19  N1A       13.1420  -17.1540   21.5480 N.2   366  NAP366      0.0021
     20  C2A       13.7570  -16.4140   20.5520 C.3   366  NAP366      0.5254
     21  N3A       13.4310  -15.0800   20.3930 N.2   366  NAP366     -0.0055
     22  C4A       12.5200  -14.4870   21.2090 C.2   366  NAP366      0.3518
     23  O3        10.4290   -7.2460   23.1120 O.3   366  NAP366     -0.2703
     24  PN        10.2450   -5.8090   22.4030 P.3   366  NAP366      0.2189
     25  O1N       10.3590   -4.7750   23.4600 O.3   366  NAP366     -0.4371
     26  O2N       11.1250   -5.7260   21.2140 O.2   366  NAP366     -0.5170
     27  O5D        8.7130   -5.8490   21.9030 O.3   366  NAP366     -0.3112
     28  C5D        8.0800   -4.6750   21.4380 C.3   366  NAP366      0.1813
     29  C4D        7.1060   -4.0740   22.4590 C.3   366  NAP366      0.1799
     30  O4D        5.8380   -3.9020   21.8390 O.3   366  NAP366     -0.3327
     31  C3D        6.8850   -4.9140   23.7170 C.3   366  NAP366      0.2158
     32  O3D        7.5910   -4.3950   24.8240 O.3   366  NAP366     -0.2175
     33  C2D        5.3830   -4.8910   23.9450 C.3   366  NAP366      0.2309
     34  O2D        5.0340   -3.9320   24.9220 O.3   366  NAP366     -0.2158
     35  C1D        4.7890   -4.4820   22.6010 C.3   366  NAP366      0.2263
     36  N1N        4.1840   -5.6440   21.8960 N.pl3 366  NAP366     -0.2787
     37  C2N        2.8150   -5.7240   21.8210 C.3   366  NAP366      0.1244
     38  C3N        2.1930   -6.7920   21.1660 C.2   366  NAP366      0.0544
     39  C7N        0.7300   -6.7020   20.8160 C.2   366  NAP366      0.2818
     40  O7N        0.0080   -7.8820   20.5250 O.2   366  NAP366     -0.2670
     41  N7N        0.1420   -5.5030   20.7870 N.am  366  NAP366     -0.0839
     42  C4N        2.9810   -7.7910   20.5870 C.2   366  NAP366      0.0033
     43  C5N        4.3720   -7.7100   20.6630 C.2   366  NAP366      0.0157
     44  C6N        4.9590   -6.6290   21.3200 C.2   366  NAP366      0.0633
     45  P2B        9.2320  -12.5470   18.3640 P.3   366  NAP366      0.5328
     46  O1X        9.1620  -13.8360   17.5890 O.2   366  NAP366     -0.2224
     47  O2X        8.5630  -11.4360   17.5930 O.3   366  NAP366     -0.1145
     48  O3X        8.5290  -12.7080   19.6910 O.3   366  NAP366     -0.1145
@<TRIPOS>BOND
     1    46    45    2
     2    47    45    1
     3     9     8    1
     4    45    11    1
     5    45    48    1
     6    11    10    1
     7     8    10    1
     8     8     6    1
     9    10    12    1
    10    12     7    1
    11    12    13    1
    12     6     7    1
    13     6     5    1
    14    21    20    1
    15    21    22    2
    16    40    39    2
    17    20    19    1
    18    42    43    1
    19    42    38    2
    20    43    44    2
    21    41    39   am
    22    39    38    1
    23    38    37    1
    24    22    13    1
    25    22    16    1
    26    26    24    2
    27    13    14    1
    28    44    36    1
    29     2     1    2
    30     5     4    1
    31    28    27    1
    32    28    29    1
    33    19    17    2
    34    37    36    1
    35    30    29    1
    36    30    35    1
    37    36    35    1
    38    27    24    1
    39    16    17    1
    40    16    15    2
    41    14    15    1
    42     4     1    1
    43    17    18    1
    44    24    23    1
    45    24    25    1
    46    29    31    1
    47    35    33    1
    48     1    23    1
    49     1     3    1
    50    31    33    1
    51    31    32    1
    52    33    34    1
