@<TRIPOS>MOLECULE
3hsn_HEM_A_1.pdb
 43 50 0 0 0
SMALL
GASTEIGER

@<TRIPOS>ATOM
      1  CHA       13.0600    4.6320   26.5980 C.2   750  HEM750      0.0000
      2  CHB       16.9350    1.7170   26.0990 C.2   750  HEM750      0.0000
      3  CHC       17.6480    3.5600   21.6200 C.2   750  HEM750      0.0000
      4  CHD       14.7560    7.3600   22.7980 C.2   750  HEM750      0.0000
      5  C1A       13.9230    3.5480   26.7420 C.2   750  HEM750      0.0000
      6  C2A       13.7560    2.4160   27.6300 C.2   750  HEM750      0.0000
      7  C3A       14.8240    1.6080   27.4920 C.2   750  HEM750      0.0000
      8  C4A       15.7190    2.2150   26.5240 C.2   750  HEM750      0.0000
      9  CMA       15.1400    0.2630   28.2030 C.3   750  HEM750      0.0000
     10  CAA       12.4980    2.1970   28.4980 C.3   750  HEM750      0.0000
     11  CBA       11.4210    1.7150   27.5230 C.3   750  HEM750      0.0000
     12  CGA       10.1800    1.2880   28.2750 C.2   750  HEM750      0.0000
     13  O1A       10.2280    1.1180   29.5240 O.co2 750  HEM750      0.0000
     14  O2A        9.1390    1.0760   27.6200 O.co2 750  HEM750      0.0000
     15  C1B       17.4450    1.9280   24.8310 C.ar  750  HEM750      0.0000
     16  C2B       18.5070    1.1870   24.2100 C.ar  750  HEM750      0.0000
     17  C3B       18.7180    1.6840   22.9980 C.ar  750  HEM750      0.0000
     18  C4B       17.7910    2.7850   22.7730 C.ar  750  HEM750      0.0000
     19  CMB       19.2990    0.0170   24.8260 C.3   750  HEM750      0.0000
     20  CAB       19.7950    1.1080   22.0560 C.2   750  HEM750      0.0000
     21  CBB       20.2690    1.8190   21.0340 C.2   750  HEM750      0.0000
     22  C1C       16.9170    4.7420   21.5210 C.2   750  HEM750      0.0000
     23  C2C       16.8600    5.6190   20.3710 C.2   750  HEM750      0.0000
     24  C3C       16.0530    6.6560   20.7010 C.2   750  HEM750      0.0000
     25  C4C       15.6000    6.5050   22.0760 C.2   750  HEM750      0.0000
     26  CMC       17.5860    5.3050   19.0320 C.3   750  HEM750      0.0000
     27  CAC       15.6580    7.8890   19.8440 C.2   750  HEM750      0.0000
     28  CBC       16.3870    8.2060   18.7650 C.2   750  HEM750      0.0000
     29  C1D       13.9550    6.9720   23.8740 C.ar  750  HEM750      0.0000
     30  C2D       12.7700    7.6570   24.3900 C.ar  750  HEM750      0.0000
     31  C3D       12.2980    6.8150   25.5720 C.ar  750  HEM750      0.0000
     32  C4D       13.1780    5.6680   25.6580 C.ar  750  HEM750      0.0000
     33  CMD       12.1250    8.9870   23.9290 C.3   750  HEM750      0.0000
     34  CAD       11.0560    7.0650   26.4370 C.3   750  HEM750      0.0000
     35  CBD        9.9420    6.3910   25.6220 C.3   750  HEM750      0.0000
     36  CGD        8.6220    6.4570   26.3450 C.2   750  HEM750      0.0000
     37  O1D        8.4020    7.4740   27.0480 O.co2 750  HEM750      0.0000
     38  O2D        7.8220    5.4940   26.2110 O.co2 750  HEM750      0.0000
     39  NA        15.1410    3.3850   26.0940 N.2   750  HEM750      0.0000
     40  NB        17.0340    2.8990   23.9270 N.ar  750  HEM750      0.0000
     41  NC        16.1260    5.3160   22.5140 N.2   750  HEM750      0.0000
     42  ND        14.1320    5.8130   24.6380 N.ar  750  HEM750      0.0000
     43 FE         15.7120    4.4520   24.3110 Fe    750  HEM750      0.0000
@<TRIPOS>BOND
     1    28    27    2
     2    26    23    1
     3    27    24    1
     4    23    24    2
     5    23    22    1
     6    24    25    1
     7    21    20    2
     8    22     3    2
     9    22    41    1
    10     3    18    1
    11    20    17    1
    12    25    41    2
    13    25     4    1
    14    41    43    1
    15    18    17   ar
    16    18    40   ar
    17     4    29    2
    18    17    16   ar
    19    29    30   ar
    20    29    42   ar
    21    40    43    1
    22    40    15   ar
    23    33    30    1
    24    16    19    1
    25    16    15   ar
    26    43    42    1
    27    43    39    1
    28    30    31   ar
    29    42    32   ar
    30    15     2    1
    31    31    32   ar
    32    31    34    1
    33    35    36    1
    34    35    34    1
    35    32     1    2
    36    39     8    1
    37    39     5    2
    38     2     8    2
    39    38    36   ar
    40    36    37   ar
    41     8     7    1
    42     1     5    1
    43     5     6    1
    44     7     6    2
    45     7     9    1
    46    11    12    1
    47    11    10    1
    48    14    12   ar
    49     6    10    1
    50    12    13   ar
