@<TRIPOS>MOLECULE
3hsn_H4B_A_1.pdb
 17 18 0 0 0
SMALL
GASTEIGER

@<TRIPOS>ATOM
      1  N1         9.9940    2.4800   33.7960 N.2   760  H4B760     -0.2683
      2  C2        10.1750    2.1100   32.5180 C.1   760  H4B760      0.2608
      3  N2        11.4210    1.9930   32.0020 N.pl3 760  H4B760     -0.0220
      4  N3         9.0640    1.8820   31.7340 N.2   760  H4B760     -0.2474
      5  C4         7.7910    2.0190   32.2990 C.1   760  H4B760      0.2441
      6  O4         6.8260    1.7710   31.5660 O.2   760  H4B760     -0.2063
      7  C4A        7.6560    2.3070   33.6850 C.2   760  H4B760      0.2463
      8  C8A        8.7970    2.6710   34.3840 C.1   760  H4B760      0.1270
      9  N5         6.3930    2.6580   34.1420 N.2   760  H4B760     -0.2460
     10  N8         8.7210    3.0300   35.7640 N.2   760  H4B760     -0.2054
     11  C6         6.2340    3.4320   35.3960 C.3   760  H4B760      0.1627
     12  C7         7.3520    2.9800   36.3700 C.3   760  H4B760      0.1643
     13  C9         4.8690    3.2850   36.1310 C.3   760  H4B760      0.2063
     14  O9         4.4450    1.9860   36.4780 O.3   760  H4B760     -0.2183
     15  C10        4.7560    4.2580   37.3270 C.3   760  H4B760      0.1842
     16  C11        3.2630    4.3480   37.7200 C.3   760  H4B760      0.0383
     17  O10        5.1250    5.5400   36.8220 O.3   760  H4B760     -0.2204
@<TRIPOS>BOND
     1     6     5    2
     2     4     5    2
     3     4     2    2
     4     3     2    1
     5     5     7    1
     6     2     1    2
     7     7     9    2
     8     7     8    1
     9     1     8    2
    10     9    11    1
    11     8    10    2
    12    11    13    1
    13    11    12    1
    14    10    12    1
    15    13    14    1
    16    13    15    1
    17    17    15    1
    18    15    16    1
