@<TRIPOS>MOLECULE
3hsn_HAR_A_1.pdb
 13 12 0 0 0
SMALL
GASTEIGER

@<TRIPOS>ATOM
      1  N          9.6970   -1.3150   26.2310 N.3   770  HAR770     -0.1208
      2  CA         9.1370   -1.6050   24.8880 C.3   770  HAR770      0.1944
      3  C          8.9520   -3.1340   24.6970 C.2   770  HAR770      0.3819
      4  O          8.4300   -3.5250   23.5300 O.co2 770  HAR770     -0.2441
      5  CB        10.1030   -1.1000   23.8020 C.3   770  HAR770      0.0343
      6  CG        10.3610    0.4270   23.8960 C.3   770  HAR770      0.0490
      7  CD        11.6050    0.7480   23.0400 C.3   770  HAR770      0.2205
      8  NE        12.7500   -0.0030   23.6240 N.pl3 770  HAR770     -0.0871
      9  CZ        14.0010    0.0540   23.1730 C.2   770  HAR770      0.5283
     10  NH1       14.2140    0.8500   22.1300 N.4   770  HAR770      0.1134
     11  NH2       15.0470   -0.6060   23.6570 N.pl3 770  HAR770      0.1348
     12  OH1       15.5250    0.9380   21.4880 O.3   770  HAR770      0.0294
     13  OXT        9.3430   -3.9850   25.6660 O.co2 770  HAR770     -0.2441
@<TRIPOS>BOND
     1    12    10    1
     2    10     9    1
     3     7     8    1
     4     7     6    1
     5     9     8    1
     6     9    11    2
     7     4     3   ar
     8     5     6    1
     9     5     2    1
    10     3     2    1
    11     3    13   ar
    12     2     1    1
