@<TRIPOS>MOLECULE
3hso_HAR_A_1.pdb
 13 12 0 0 0
SMALL
GASTEIGER

@<TRIPOS>ATOM
      1  N          9.6470   -1.2490   26.1360 N.3   770  HAR770     -0.1208
      2  CA         9.1080   -1.5580   24.7780 C.3   770  HAR770      0.1944
      3  C          8.9520   -3.0880   24.5820 C.2   770  HAR770      0.3819
      4  O          8.4410   -3.5040   23.4290 O.co2 770  HAR770     -0.2441
      5  CB        10.1460   -1.0520   23.7560 C.3   770  HAR770      0.0343
      6  CG        10.4040    0.4600   23.8520 C.3   770  HAR770      0.0490
      7  CD        11.7220    0.7910   23.0740 C.3   770  HAR770      0.2205
      8  NE        12.8470    0.0410   23.7090 N.pl3 770  HAR770     -0.0871
      9  CZ        14.0820    0.1330   23.2550 C.2   770  HAR770      0.5283
     10  NH1       14.1620    0.9400   22.1870 N.4   770  HAR770      0.1134
     11  NH2       15.2030   -0.4670   23.6720 N.pl3 770  HAR770      0.1348
     12  OH1       15.3970    0.9790   21.4010 O.3   770  HAR770      0.0294
     13  OXT        9.3600   -3.9230   25.5720 O.co2 770  HAR770     -0.2441
@<TRIPOS>BOND
     1    12    10    1
     2    10     9    1
     3     7     8    1
     4     7     6    1
     5     9    11    2
     6     9     8    1
     7     4     3   ar
     8     5     6    1
     9     5     2    1
    10     3     2    1
    11     3    13   ar
    12     2     1    1
