@<TRIPOS>MOLECULE
3hso_HEM_A_1.pdb
 43 50 0 0 0
SMALL
GASTEIGER

@<TRIPOS>ATOM
      1  CHA       13.0320    4.6300   26.4380 C.2   750  HEM750      0.0000
      2  CHB       16.9300    1.7550   26.0750 C.2   750  HEM750      0.0000
      3  CHC       17.7070    3.5740   21.6900 C.2   750  HEM750      0.0000
      4  CHD       14.7770    7.3240   22.7280 C.2   750  HEM750      0.0000
      5  C1A       13.9420    3.6180   26.6410 C.2   750  HEM750      0.0000
      6  C2A       13.8110    2.5640   27.5830 C.2   750  HEM750      0.0000
      7  C3A       14.8680    1.7540   27.4790 C.2   750  HEM750      0.0000
      8  C4A       15.7420    2.3010   26.4590 C.2   750  HEM750      0.0000
      9  CMA       15.1360    0.4630   28.3090 C.3   750  HEM750      0.0000
     10  CAA       12.5910    2.3450   28.5040 C.3   750  HEM750      0.0000
     11  CBA       11.4970    1.9120   27.5230 C.3   750  HEM750      0.0000
     12  CGA       10.2620    1.4170   28.2460 C.2   750  HEM750      0.0000
     13  O1A       10.3020    1.2220   29.4900 O.co2 750  HEM750      0.0000
     14  O2A        9.2390    1.1990   27.5450 O.co2 750  HEM750      0.0000
     15  C1B       17.4890    1.9530   24.8550 C.ar  750  HEM750      0.0000
     16  C2B       18.5860    1.2290   24.2800 C.ar  750  HEM750      0.0000
     17  C3B       18.8130    1.7250   23.0710 C.ar  750  HEM750      0.0000
     18  C4B       17.8480    2.7930   22.8340 C.ar  750  HEM750      0.0000
     19  CMB       19.3800    0.0980   24.9550 C.3   750  HEM750      0.0000
     20  CAB       19.9330    1.2050   22.1350 C.2   750  HEM750      0.0000
     21  CBB       20.4780    1.9950   21.2210 C.2   750  HEM750      0.0000
     22  C1C       16.9690    4.7370   21.5860 C.2   750  HEM750      0.0000
     23  C2C       16.9010    5.5630   20.4110 C.2   750  HEM750      0.0000
     24  C3C       16.1000    6.6150   20.7050 C.2   750  HEM750      0.0000
     25  C4C       15.6240    6.4680   22.0500 C.2   750  HEM750      0.0000
     26  CMC       17.6440    5.2540   19.0750 C.3   750  HEM750      0.0000
     27  CAC       15.6910    7.7950   19.7910 C.2   750  HEM750      0.0000
     28  CBC       16.2700    7.9560   18.5940 C.2   750  HEM750      0.0000
     29  C1D       13.9790    6.9250   23.7830 C.ar  750  HEM750      0.0000
     30  C2D       12.8080    7.6350   24.2400 C.ar  750  HEM750      0.0000
     31  C3D       12.2700    6.8270   25.3930 C.ar  750  HEM750      0.0000
     32  C4D       13.1520    5.6730   25.5130 C.ar  750  HEM750      0.0000
     33  CMD       12.3050    8.9530   23.6490 C.3   750  HEM750      0.0000
     34  CAD       11.0170    7.0900   26.2390 C.3   750  HEM750      0.0000
     35  CBD        9.9270    6.3560   25.4280 C.3   750  HEM750      0.0000
     36  CGD        8.6170    6.4130   26.1940 C.2   750  HEM750      0.0000
     37  O1D        8.4520    7.4100   26.9630 O.co2 750  HEM750      0.0000
     38  O2D        7.8040    5.4670   26.0590 O.co2 750  HEM750      0.0000
     39  NA        15.1470    3.4520   25.9610 N.2   750  HEM750      0.0000
     40  NB        17.0770    2.8990   23.9630 N.ar  750  HEM750      0.0000
     41  NC        16.1400    5.2820   22.5570 N.2   750  HEM750      0.0000
     42  ND        14.1540    5.8130   24.5640 N.ar  750  HEM750      0.0000
     43 FE         15.6530    4.4070   24.2410 Fe    750  HEM750      0.0000
@<TRIPOS>BOND
     1    28    27    2
     2    26    23    1
     3    27    24    1
     4    23    24    2
     5    23    22    1
     6    24    25    1
     7    21    20    2
     8    22     3    2
     9    22    41    1
    10     3    18    1
    11    25    41    2
    12    25     4    1
    13    20    17    1
    14    41    43    1
    15     4    29    2
    16    18    17   ar
    17    18    40   ar
    18    17    16   ar
    19    33    30    1
    20    29    30   ar
    21    29    42   ar
    22    40    43    1
    23    40    15   ar
    24    30    31   ar
    25    43    42    1
    26    43    39    1
    27    16    15   ar
    28    16    19    1
    29    42    32   ar
    30    15     2    1
    31    31    32   ar
    32    31    34    1
    33    35    36    1
    34    35    34    1
    35    32     1    2
    36    39     8    1
    37    39     5    2
    38    38    36   ar
    39     2     8    2
    40    36    37   ar
    41     1     5    1
    42     8     7    1
    43     5     6    1
    44     7     6    2
    45     7     9    1
    46    11    12    1
    47    11    10    1
    48    14    12   ar
    49     6    10    1
    50    12    13   ar
