@<TRIPOS>MOLECULE
3hso_H4B_A_1.pdb
 17 18 0 0 0
SMALL
GASTEIGER

@<TRIPOS>ATOM
      1  N1        10.0250    2.5250   33.7500 N.2   760  H4B760     -0.2683
      2  C2        10.1670    2.1590   32.4840 C.1   760  H4B760      0.2608
      3  N2        11.3980    2.0390   31.9580 N.pl3 760  H4B760     -0.0220
      4  N3         9.0690    1.9180   31.7060 N.2   760  H4B760     -0.2474
      5  C4         7.7880    2.0720   32.2510 C.1   760  H4B760      0.2441
      6  O4         6.8150    1.8120   31.5170 O.2   760  H4B760     -0.2063
      7  C4A        7.6790    2.3640   33.6150 C.2   760  H4B760      0.2463
      8  C8A        8.8280    2.7570   34.3000 C.1   760  H4B760      0.1270
      9  N5         6.4050    2.7030   34.0690 N.2   760  H4B760     -0.2460
     10  N8         8.7480    3.1190   35.6630 N.2   760  H4B760     -0.2054
     11  C6         6.2610    3.5060   35.2900 C.3   760  H4B760      0.1627
     12  C7         7.3420    3.0570   36.2640 C.3   760  H4B760      0.1643
     13  C9         4.8790    3.4330   35.9730 C.3   760  H4B760      0.2063
     14  O9         4.4590    2.1820   36.4840 O.3   760  H4B760     -0.2183
     15  C10        4.8000    4.5320   37.0830 C.3   760  H4B760      0.1842
     16  C11        3.3390    4.6610   37.5300 C.3   760  H4B760      0.0383
     17  O10        5.1820    5.7240   36.4970 O.3   760  H4B760     -0.2204
@<TRIPOS>BOND
     1     6     5    2
     2     4     5    2
     3     4     2    2
     4     3     2    1
     5     5     7    1
     6     2     1    2
     7     7     9    2
     8     7     8    1
     9     1     8    2
    10     9    11    1
    11     8    10    2
    12    11    13    1
    13    11    12    1
    14    10    12    1
    15    13    14    1
    16    13    15    1
    17    17    15    1
    18    15    16    1
