@<TRIPOS>MOLECULE
3hsp_HEM_A_1.pdb
 43 50 0 0 0
SMALL
GASTEIGER

@<TRIPOS>ATOM
      1  CHA       13.0090    4.6540   26.3800 C.2   750  HEM750      0.0000
      2  CHB       16.8140    1.6330   25.9560 C.2   750  HEM750      0.0000
      3  CHC       17.6320    3.5230   21.5700 C.2   750  HEM750      0.0000
      4  CHD       14.7670    7.3050   22.6960 C.2   750  HEM750      0.0000
      5  C1A       13.8880    3.6150   26.5560 C.2   750  HEM750      0.0000
      6  C2A       13.7310    2.5670   27.5150 C.2   750  HEM750      0.0000
      7  C3A       14.7530    1.7310   27.4100 C.2   750  HEM750      0.0000
      8  C4A       15.6350    2.2340   26.3730 C.2   750  HEM750      0.0000
      9  CMA       14.9580    0.4350   28.2390 C.3   750  HEM750      0.0000
     10  CAA       12.5270    2.3960   28.4410 C.3   750  HEM750      0.0000
     11  CBA       11.5600    1.6790   27.4980 C.3   750  HEM750      0.0000
     12  CGA       10.2720    1.2750   28.1810 C.2   750  HEM750      0.0000
     13  O1A       10.2380    1.0860   29.4280 O.co2 750  HEM750      0.0000
     14  O2A        9.2690    1.1340   27.4500 O.co2 750  HEM750      0.0000
     15  C1B       17.3840    1.8490   24.7210 C.ar  750  HEM750      0.0000
     16  C2B       18.5100    1.1530   24.1420 C.ar  750  HEM750      0.0000
     17  C3B       18.7500    1.6740   22.9460 C.ar  750  HEM750      0.0000
     18  C4B       17.7880    2.7400   22.7090 C.ar  750  HEM750      0.0000
     19  CMB       19.3260    0.0160   24.7770 C.3   750  HEM750      0.0000
     20  CAB       19.8940    1.1630   22.0360 C.2   750  HEM750      0.0000
     21  CBB       20.2860    1.8610   20.9800 C.2   750  HEM750      0.0000
     22  C1C       16.9000    4.6970   21.4560 C.2   750  HEM750      0.0000
     23  C2C       16.7970    5.5600   20.2920 C.2   750  HEM750      0.0000
     24  C3C       16.0070    6.6020   20.6210 C.2   750  HEM750      0.0000
     25  C4C       15.5910    6.4440   21.9890 C.2   750  HEM750      0.0000
     26  CMC       17.4710    5.2570   18.9320 C.3   750  HEM750      0.0000
     27  CAC       15.5630    7.8130   19.7700 C.2   750  HEM750      0.0000
     28  CBC       16.1980    8.1030   18.6310 C.2   750  HEM750      0.0000
     29  C1D       13.9380    6.9380   23.7340 C.ar  750  HEM750      0.0000
     30  C2D       12.7690    7.6550   24.2040 C.ar  750  HEM750      0.0000
     31  C3D       12.2330    6.8220   25.3450 C.ar  750  HEM750      0.0000
     32  C4D       13.1160    5.6740   25.4520 C.ar  750  HEM750      0.0000
     33  CMD       12.1850    8.9740   23.6790 C.3   750  HEM750      0.0000
     34  CAD       10.9770    7.0860   26.1740 C.3   750  HEM750      0.0000
     35  CBD        9.9690    6.1090   25.5150 C.3   750  HEM750      0.0000
     36  CGD        8.5920    6.2030   26.1580 C.2   750  HEM750      0.0000
     37  O1D        8.3520    7.1900   26.9020 O.co2 750  HEM750      0.0000
     38  O2D        7.7600    5.2790   25.9540 O.co2 750  HEM750      0.0000
     39  NA        15.0710    3.3950   25.8730 N.2   750  HEM750      0.0000
     40  NB        16.9730    2.8090   23.8170 N.ar  750  HEM750      0.0000
     41  NC        16.1220    5.2570   22.4540 N.2   750  HEM750      0.0000
     42  ND        14.1070    5.7930   24.4980 N.ar  750  HEM750      0.0000
     43 FE         15.6340    4.3870   24.1540 Fe    750  HEM750      0.0000
@<TRIPOS>BOND
     1    28    27    2
     2    26    23    1
     3    27    24    1
     4    23    24    2
     5    23    22    1
     6    24    25    1
     7    21    20    2
     8    22     3    2
     9    22    41    1
    10     3    18    1
    11    25    41    2
    12    25     4    1
    13    20    17    1
    14    41    43    1
    15     4    29    2
    16    18    17   ar
    17    18    40   ar
    18    17    16   ar
    19    33    30    1
    20    29    30   ar
    21    29    42   ar
    22    40    43    1
    23    40    15   ar
    24    16    15   ar
    25    16    19    1
    26    43    42    1
    27    43    39    1
    28    30    31   ar
    29    42    32   ar
    30    15     2    1
    31    31    32   ar
    32    31    34    1
    33    32     1    2
    34    35    36    1
    35    35    34    1
    36    39     8    1
    37    39     5    2
    38    38    36   ar
    39     2     8    2
    40    36    37   ar
    41     8     7    1
    42     1     5    1
    43     5     6    1
    44     7     6    2
    45     7     9    1
    46    14    12   ar
    47    11    12    1
    48    11    10    1
    49     6    10    1
    50    12    13   ar
