@<TRIPOS>MOLECULE
3hsp_HAR_A_1.pdb
 13 12 0 0 0
SMALL
GASTEIGER

@<TRIPOS>ATOM
      1  N          9.5330   -1.3350   26.0810 N.3   770  HAR770     -0.1208
      2  CA         9.0670   -1.6750   24.7200 C.3   770  HAR770      0.1944
      3  C          8.9680   -3.2000   24.5890 C.2   770  HAR770      0.3819
      4  O          8.4860   -3.7070   23.4350 O.co2 770  HAR770     -0.2441
      5  CB        10.1350   -1.1820   23.7560 C.3   770  HAR770      0.0343
      6  CG        10.3910    0.3360   23.9360 C.3   770  HAR770      0.0490
      7  CD        11.6550    0.6830   23.1270 C.3   770  HAR770      0.2205
      8  NE        12.8230   -0.0790   23.6720 N.pl3 770  HAR770     -0.0871
      9  CZ        14.0450    0.0620   23.1870 C.2   770  HAR770      0.5283
     10  NH1       14.1160    0.9060   22.1700 N.4   770  HAR770      0.1134
     11  NH2       15.1500   -0.5880   23.6260 N.pl3 770  HAR770      0.1348
     12  OH1       15.3320    0.9120   21.3810 O.3   770  HAR770      0.0294
     13  OXT        9.3650   -3.9260   25.6520 O.co2 770  HAR770     -0.2441
@<TRIPOS>BOND
     1    12    10    1
     2    10     9    1
     3     7     8    1
     4     7     6    1
     5     9    11    2
     6     9     8    1
     7     4     3   ar
     8     5     6    1
     9     5     2    1
    10     3     2    1
    11     3    13   ar
    12     2     1    1
