@<TRIPOS>MOLECULE
3hsp_H4B_A_1.pdb
 17 18 0 0 0
SMALL
GASTEIGER

@<TRIPOS>ATOM
      1  N1         9.9660    2.4300   33.6710 N.2   760  H4B760     -0.2683
      2  C2        10.0970    2.0380   32.3970 C.1   760  H4B760      0.2608
      3  N2        11.3240    1.8910   31.8550 N.pl3 760  H4B760     -0.0220
      4  N3         8.9580    1.8090   31.6520 N.2   760  H4B760     -0.2474
      5  C4         7.7020    1.9480   32.1970 C.1   760  H4B760      0.2441
      6  O4         6.7500    1.6690   31.4460 O.2   760  H4B760     -0.2063
      7  C4A        7.6080    2.2630   33.5830 C.2   760  H4B760      0.2463
      8  C8A        8.7740    2.6540   34.2590 C.1   760  H4B760      0.1270
      9  N5         6.3510    2.6110   34.0800 N.2   760  H4B760     -0.2460
     10  N8         8.7280    3.0180   35.6280 N.2   760  H4B760     -0.2054
     11  C6         6.2480    3.3970   35.3180 C.3   760  H4B760      0.1627
     12  C7         7.3970    2.9560   36.2600 C.3   760  H4B760      0.1643
     13  C9         4.9140    3.2920   36.0400 C.3   760  H4B760      0.2063
     14  O9         4.4840    1.9770   36.3870 O.3   760  H4B760     -0.2183
     15  C10        4.8980    4.3110   37.2170 C.3   760  H4B760      0.1842
     16  C11        3.5000    4.4500   37.8010 C.3   760  H4B760      0.0383
     17  O10        5.2140    5.5590   36.6320 O.3   760  H4B760     -0.2204
@<TRIPOS>BOND
     1     6     5    2
     2     4     5    2
     3     4     2    2
     4     3     2    1
     5     5     7    1
     6     2     1    2
     7     7     9    2
     8     7     8    1
     9     1     8    2
    10     9    11    1
    11     8    10    2
    12    11    13    1
    13    11    12    1
    14    10    12    1
    15    13    14    1
    16    13    15    1
    17    17    15    1
    18    15    16    1
