@<TRIPOS>MOLECULE
3hst_MLR_A_1.pdb
 34 36 0 0 0
SMALL
GASTEIGER

@<TRIPOS>ATOM
      1  C1A       -2.0570   -0.1790   26.0840 C.3     1  MLR1        0.3023
      2  C2A       -3.5180   -0.6480   26.0830 C.3     1  MLR1        0.2433
      3  C3A       -4.1850   -0.2360   24.7630 C.3     1  MLR1        0.2168
      4  C4A       -4.1720    1.2690   24.5400 C.3     1  MLR1        0.1804
      5  C5A       -2.6680    1.7010   24.5670 C.3     1  MLR1        0.1804
      6  C6A       -2.4340    3.2270   24.4820 C.3     1  MLR1        0.2141
      7  O1X       -1.3060   -0.8710   25.1020 O.3     1  MLR1       -0.1869
      8  O2A       -3.5230   -2.0700   26.1050 O.3     1  MLR1       -0.2148
      9  O3A       -5.5070   -0.7310   24.6450 O.3     1  MLR1       -0.2175
     10  O4A       -4.8090    1.4690   23.2630 O.3     1  MLR1       -0.3257
     11  O5A       -2.0050    1.2030   25.7500 O.3     1  MLR1       -0.3237
     12  O6A       -1.2350    3.3190   23.7310 O.3     1  MLR1       -0.2176
     13  C1B       -6.0490    2.1860   23.3270 C.3     1  MLR1        0.2695
     14  C2B       -6.9510    1.6230   22.2800 C.3     1  MLR1        0.2404
     15  C3B       -6.2480    1.8940   20.9480 C.3     1  MLR1        0.2167
     16  C4B       -6.2110    3.3770   20.6640 C.3     1  MLR1        0.1804
     17  C5B       -5.3660    3.9930   21.8140 C.3     1  MLR1        0.1803
     18  C6B       -5.5410    5.4890   21.9640 C.3     1  MLR1        0.2141
     19  O2B       -7.0220    0.2110   22.4870 O.3     1  MLR1       -0.2149
     20  O3B       -6.8610    1.1650   19.9080 O.3     1  MLR1       -0.2175
     21  O4B       -5.5700    3.4720   19.4160 O.3     1  MLR1       -0.3257
     22  O5B       -5.8730    3.5660   23.0760 O.3     1  MLR1       -0.3257
     23  O6B       -4.2930    6.0990   22.3240 O.3     1  MLR1       -0.2176
     24  C1C       -6.2000    4.1660   18.3630 C.3     1  MLR1        0.2695
     25  C2C       -5.9510    3.3280   17.0930 C.3     1  MLR1        0.2406
     26  C3C       -4.4350    3.3510   16.7500 C.3     1  MLR1        0.2198
     27  C4C       -3.8720    4.7570   16.5690 C.3     1  MLR1        0.2144
     28  C5C       -4.1720    5.5700   17.8520 C.3     1  MLR1        0.1835
     29  C6C       -3.7510    7.0090   17.6610 C.3     1  MLR1        0.2142
     30  O2C       -6.3720    1.9580   17.3200 O.3     1  MLR1       -0.2149
     31  O3C       -4.1300    2.6360   15.5530 O.3     1  MLR1       -0.2174
     32  O4C       -2.4600    4.7110   16.1770 O.3     1  MLR1       -0.2176
     33  O5C       -5.5950    5.5020   18.2440 O.3     1  MLR1       -0.3256
     34  O6C       -3.9020    7.6820   18.9120 O.3     1  MLR1       -0.2176
@<TRIPOS>BOND
     1    31    26    1
     2    32    27    1
     3    27    26    1
     4    27    28    1
     5    26    25    1
     6    25    30    1
     7    25    24    1
     8    29    28    1
     9    29    34    1
    10    28    33    1
    11    33    24    1
    12    24    21    1
    13    21    16    1
    14    20    15    1
    15    16    15    1
    16    16    17    1
    17    15    14    1
    18    17    18    1
    19    17    22    1
    20    18    23    1
    21    14    19    1
    22    14    13    1
    23    22    13    1
    24    10    13    1
    25    10     4    1
    26    12     6    1
    27     6     5    1
    28     4     5    1
    29     4     3    1
    30     5    11    1
    31     9     3    1
    32     3     2    1
    33     7     1    1
    34    11     1    1
    35     2     1    1
    36     2     8    1
