@<TRIPOS>MOLECULE
3hsw_MCW_A_1.pdb
 10 10 0 0 0
SMALL
GASTEIGER

@<TRIPOS>ATOM
      1  C7       -33.4280   18.2420   -8.1240 C.3   500  MCW500      0.2526
      2  O3       -34.2560   18.6350   -6.9560 O.2   500  MCW500     -0.4681
      3  C6       -35.6040   18.3120   -6.9650 C.2   500  MCW500      0.1806
      4  C5       -36.3070   18.1210   -8.1560 C.2   500  MCW500      0.0822
      5  C3       -37.6380   17.7890   -8.1190 C.2   500  MCW500      0.1990
      6  O1       -38.2590   17.6270   -9.1400 O.2   500  MCW500     -0.2865
      7  C1       -38.3190   17.6530   -6.9500 C.2   500  MCW500      0.0455
      8  C2       -37.6450   17.8550   -5.7600 C.2   500  MCW500      0.0485
      9  C4       -36.2990   18.1800   -5.7640 C.2   500  MCW500      0.2295
     10  O2       -35.7520   18.3380   -4.6810 O.2   500  MCW500     -0.2833
@<TRIPOS>BOND
     1     6     5    2
     2     4     5    1
     3     4     3    2
     4     1     2    1
     5     5     7    1
     6     3     2    1
     7     3     9    1
     8     7     8    2
     9     9     8    1
    10     9    10    2
