@<TRIPOS>MOLECULE
3ht3_DCP_A_1.pdb
 28 29 0 0 0
SMALL
GASTEIGER

@<TRIPOS>ATOM
      1  N1       124.6510  -23.5000   40.4520 N.am  201  DCP201     -0.1802
      2  C2       123.9000  -22.8510   39.4310 C.1   201  DCP201      0.2756
      3  N3       122.8770  -22.0230   39.7590 N.2   201  DCP201     -0.3024
      4  C4       122.5590  -21.7980   41.0530 C.2   201  DCP201      0.2346
      5  C5       123.2860  -22.4170   42.0680 C.2   201  DCP201      0.0687
      6  C6       124.3350  -23.2640   41.7430 C.2   201  DCP201      0.0835
      7  O2       124.1700  -23.0410   38.2230 O.2   201  DCP201     -0.1925
      8  N4       121.5340  -20.9650   41.3700 N.pl3 201  DCP201     -0.0921
      9  C1'      125.7690  -24.4050   40.1120 C.3   201  DCP201      0.2090
     10  C2'      127.0770  -23.6390   39.8620 C.3   201  DCP201      0.0874
     11  C3'      127.9290  -23.9640   41.0850 C.3   201  DCP201      0.1857
     12  C4'      127.3860  -25.2870   41.6050 C.3   201  DCP201      0.1773
     13  O4'      126.0100  -25.3290   41.1920 O.3   201  DCP201     -0.3339
     14  O3'      129.3390  -24.0380   40.8100 O.3   201  DCP201     -0.2203
     15  C5'      127.5460  -25.4200   43.1270 C.3   201  DCP201      0.1812
     16  O5'      126.8730  -24.3540   43.8080 O.3   201  DCP201     -0.3112
     17  PA       127.5840  -23.4520   44.9490 P.3   201  DCP201      0.2189
     18  O1A      126.5410  -22.4710   45.4200 O.2   201  DCP201     -0.5170
     19  O2A      128.2740  -24.3700   45.9370 O.3   201  DCP201     -0.4371
     20  O3A      128.6930  -22.6210   44.1110 O.3   201  DCP201     -0.2700
     21  PB       130.2230  -22.3100   44.5470 P.3   201  DCP201      0.2277
     22  O1B      130.8790  -21.6180   43.3760 O.2   201  DCP201     -0.5168
     23  O2B      130.8410  -23.5360   45.1710 O.3   201  DCP201     -0.4368
     24  O3B      130.0340  -21.1650   45.6680 O.3   201  DCP201     -0.2258
     25  PG       130.8690  -21.1110   47.0440 P.3   201  DCP201      0.5373
     26  O1G      130.1240  -20.0580   47.8310 O.3   201  DCP201     -0.1143
     27  O2G      130.7370  -22.5230   47.5640 O.3   201  DCP201     -0.1143
     28  O3G      132.2650  -20.6990   46.6500 O.2   201  DCP201     -0.2221
@<TRIPOS>BOND
     1     7     2    2
     2     2     3    2
     3     2     1   am
     4     3     4    2
     5    10     9    1
     6    10    11    1
     7     9     1    1
     8     9    13    1
     9     1     6    1
    10    14    11    1
    11     4     8    1
    12     4     5    1
    13    11    12    1
    14    13    12    1
    15    12    15    1
    16     6     5    2
    17    15    16    1
    18    22    21    2
    19    16    17    1
    20    20    21    1
    21    20    17    1
    22    21    23    1
    23    21    24    1
    24    17    18    2
    25    17    19    1
    26    24    25    1
    27    28    25    2
    28    25    27    1
    29    25    26    1
