@<TRIPOS>MOLECULE
3ht5_PMP_A_1.pdb
 16 16 0 0 0
SMALL
GASTEIGER

@<TRIPOS>ATOM
      1  N1        29.7530   14.2010   20.2460 N.ar  6236  PMP6236    -0.2452
      2  C2        29.6030   13.3630   19.2070 C.ar  6236  PMP6236     0.0978
      3  C2A       29.3650   11.9090   19.4380 C.3   6236  PMP6236     0.0555
      4  C3        29.6000   13.8560   17.9100 C.ar  6236  PMP6236     0.2063
      5  O3        29.3870   13.0600   16.8510 O.3   6236  PMP6236    -0.2856
      6  C4        29.7740   15.2420   17.7290 C.ar  6236  PMP6236     0.0369
      7  C4A       29.7620   15.7850   16.3290 C.3   6236  PMP6236     0.1386
      8  N4A       31.0750   15.5140   15.8820 N.3   6236  PMP6236    -0.1261
      9  C5        29.9630   16.0610   18.8150 C.ar  6236  PMP6236     0.0275
     10  C6        29.9240   15.5130   20.0690 C.ar  6236  PMP6236     0.0965
     11  C5A       30.2460   17.5360   18.6580 C.3   6236  PMP6236     0.1816
     12  O4P       31.4160   17.7530   17.9960 O.3   6236  PMP6236    -0.2653
     13  P         31.7750   19.0710   17.2790 P.3   6236  PMP6236     0.5329
     14  O1P       30.9750   19.1200   16.0980 O.2   6236  PMP6236    -0.2224
     15  O2P       31.4520   20.1570   18.0850 O.3   6236  PMP6236    -0.1145
     16  O3P       33.1430   19.0310   16.9420 O.3   6236  PMP6236    -0.1145
@<TRIPOS>BOND
     1     8     7    1
     2    14    13    2
     3     7     6    1
     4     5     4    1
     5    16    13    1
     6    13    12    1
     7    13    15    1
     8     6     4   ar
     9     6     9   ar
    10     4     2   ar
    11    12    11    1
    12    11     9    1
    13     9    10   ar
    14     2     3    1
    15     2     1   ar
    16    10     1   ar
