@<TRIPOS>MOLECULE
3htb_JZ4_A_1.pdb
 10 10 0 0 0
SMALL
GASTEIGER

@<TRIPOS>ATOM
      1  C4        24.2940  -24.1240   -0.0710 C.3   167  JZ4167      0.0004
      2  C7        21.5530  -27.2140   -4.1120 C.ar  167  JZ4167     -0.0001
      3  C8        22.0680  -26.7470   -5.3310 C.ar  167  JZ4167      0.0033
      4  C9        22.6710  -25.5120   -5.4480 C.ar  167  JZ4167      0.0417
      5  C10       22.7690  -24.7300   -4.2950 C.ar  167  JZ4167      0.1917
      6  C11       21.6930  -26.4590   -2.9540 C.ar  167  JZ4167     -0.0011
      7  C12       22.2940  -25.1870   -3.0750 C.ar  167  JZ4167      0.0167
      8  C13       22.4630  -24.4140   -1.8080 C.3   167  JZ4167      0.0296
      9  C14       23.9250  -24.7040   -1.3940 C.3   167  JZ4167      0.0048
     10  OAB       23.4120  -23.5360   -4.3420 O.3   167  JZ4167     -0.2869
@<TRIPOS>BOND
     1     4     3   ar
     2     4     5   ar
     3     3     2   ar
     4    10     5    1
     5     5     7   ar
     6     2     6   ar
     7     7     6   ar
     8     7     8    1
     9     8     9    1
    10     9     1    1
