@<TRIPOS>MOLECULE
3hth_PRL_A_1.pdb
 16 18 0 0 0
SMALL
GASTEIGER

@<TRIPOS>ATOM
      1  C1       -44.6330   34.2850   -9.0270 C.ar  201  PRL201      0.0036
      2  C2       -43.8480   34.6240   -7.9320 C.ar  201  PRL201      0.0182
      3  C3       -42.6690   35.4370   -8.0680 C.ar  201  PRL201      0.0916
      4  C4       -42.2610   35.9280   -9.3250 C.ar  201  PRL201      0.0501
      5  C5       -42.9360   36.2440  -14.1010 C.2   201  PRL201      0.0462
      6  C6       -43.6770   35.9220  -15.2440 C.2   201  PRL201      0.0910
      7  C7       -44.8590   35.1240  -15.1700 C.2   201  PRL201      0.0143
      8  C8       -45.3250   34.6280  -13.9580 C.2   201  PRL201     -0.0137
      9  C9       -45.0380   34.4250  -11.4880 C.2   201  PRL201     -0.0125
     10  N10      -42.6540   36.0600  -11.7010 N.2   201  PRL201     -0.4055
     11  C11      -43.0260   35.6110  -10.4900 C.ar  201  PRL201      0.1320
     12  C12      -44.6070   34.9170  -12.7460 C.3   201  PRL201      0.0963
     13  C13      -44.2660   34.7530  -10.3370 C.ar  201  PRL201      0.0261
     14  C14      -43.3590   35.7650  -12.8210 C.2   201  PRL201      0.1180
     15  N15      -41.9150   35.7500   -6.9290 N.pl3 201  PRL201     -0.1280
     16  N16      -43.2450   36.3910  -16.4770 N.pl3 201  PRL201     -0.1280
@<TRIPOS>BOND
     1    16     6    1
     2     6     7    1
     3     6     5    2
     4     7     8    2
     5     5    14    1
     6     8    12    1
     7    14    12    1
     8    14    10    2
     9    12     9    1
    10    10    11    2
    11     9    13    2
    12    11    13   ar
    13    11     4   ar
    14    13     1   ar
    15     4     3   ar
    16     1     2   ar
    17     3     2   ar
    18     3    15    1
