@<TRIPOS>MOLECULE
3hti_MGR_A_1.pdb
 25 27 0 0 0
SMALL
GASTEIGER

@<TRIPOS>ATOM
      1  C1        24.6880  -22.6490   11.8030 C.3   201  MGR201      0.0667
      2  C2        23.4890  -21.9780   11.2000 C.ar  201  MGR201     -0.0143
      3  C3        22.7300  -21.0420   11.9790 C.ar  201  MGR201     -0.0036
      4  C4        21.6040  -20.4150   11.4300 C.ar  201  MGR201     -0.0003
      5  C5        21.2110  -20.7000   10.1130 C.ar  201  MGR201     -0.0000
      6  C6        21.9440  -21.6130    9.3400 C.ar  201  MGR201     -0.0003
      7  C7        23.0800  -22.2580    9.8690 C.ar  201  MGR201     -0.0036
      8  C8        24.5140  -24.0070   12.3360 C.ar  201  MGR201     -0.0142
      9  C9        23.5080  -24.2640   13.3320 C.ar  201  MGR201     -0.0024
     10  C10       23.3410  -25.5360   13.8450 C.ar  201  MGR201      0.0142
     11  C11       24.1700  -26.6310   13.4040 C.ar  201  MGR201      0.0479
     12  C12       25.1720  -26.3780   12.4040 C.ar  201  MGR201      0.0142
     13  C13       25.3380  -25.1090   11.8810 C.ar  201  MGR201     -0.0024
     14  C14       26.0010  -21.9390   11.8640 C.ar  201  MGR201     -0.0142
     15  C15       26.1510  -20.6060   11.3290 C.ar  201  MGR201     -0.0024
     16  C16       27.3750  -19.9490   11.3850 C.ar  201  MGR201      0.0142
     17  C17       28.5230  -20.5760   11.9800 C.ar  201  MGR201      0.0479
     18  C18       28.3830  -21.8920   12.5140 C.ar  201  MGR201      0.0142
     19  C19       27.1710  -22.5520   12.4620 C.ar  201  MGR201     -0.0024
     20  C22       22.9760  -28.1820   14.9620 C.3   201  MGR201      0.1122
     21  C23       24.8530  -29.0250   13.5220 C.3   201  MGR201      0.1122
     22  C24       29.9190  -18.5550   11.4890 C.3   201  MGR201      0.1122
     23  C25       30.9320  -20.5650   12.6410 C.3   201  MGR201      0.1122
     24  N2        24.0040  -27.9120   13.9430 N.pl3 201  MGR201     -0.3041
     25  N3        29.7520  -19.9190   12.0340 N.pl3 201  MGR201     -0.3041
@<TRIPOS>BOND
     1     6     7   ar
     2     6     5   ar
     3     7     2   ar
     4     5     4   ar
     5     2     1    1
     6     2     3   ar
     7    15    16   ar
     8    15    14   ar
     9    16    17   ar
    10     4     3   ar
    11    22    25    1
    12     1    14    1
    13     1     8    1
    14    14    19   ar
    15    13     8   ar
    16    13    12   ar
    17    17    25    1
    18    17    18   ar
    19    25    23    1
    20     8     9   ar
    21    12    11   ar
    22    19    18   ar
    23     9    10   ar
    24    11    10   ar
    25    11    24    1
    26    21    24    1
    27    24    20    1
