@<TRIPOS>MOLECULE
3htj_ET_A_1.pdb
 24 27 0 0 0
SMALL
GASTEIGER

@<TRIPOS>ATOM
      1  C1       -24.7260   24.0740   21.9220 C.2   201  ET201      -0.0010
      2  C2       -25.6970   23.0880   22.1120 C.2   201  ET201       0.0175
      3  C3       -26.3590   22.4950   20.9970 C.2   201  ET201       0.0868
      4  C4       -26.0520   22.8910   19.6980 C.2   201  ET201       0.0158
      5  N5       -24.7470   24.3050   18.1430 N.pl3 201  ET201      -0.3018
      6  C6       -23.7880   25.2800   17.8560 C.2   201  ET201       0.0482
      7  C7       -22.0410   26.9840   18.7700 C.ar  201  ET201       0.0193
      8  C8       -21.3740   27.5890   19.8560 C.ar  201  ET201       0.0891
      9  C9       -21.6680   27.1990   21.1850 C.ar  201  ET201       0.0180
     10  C10      -22.6250   26.2120   21.4450 C.ar  201  ET201       0.0012
     11  C11      -23.0390   25.9600   18.9900 C.ar  201  ET201       0.0144
     12  C12      -23.3370   25.5680   20.3660 C.ar  201  ET201      -0.0008
     13  C13      -24.3800   24.5060   20.6010 C.2   201  ET201      -0.0000
     14  C14      -25.0560   23.9080   19.4470 C.3   201  ET201       0.1192
     15  C15      -23.4580   25.6860   16.4170 C.ar  201  ET201       0.0133
     16  C16      -24.0610   26.8260   15.8050 C.ar  201  ET201       0.0012
     17  C17      -23.7270   27.1700   14.4810 C.ar  201  ET201       0.0000
     18  C18      -22.8000   26.3970   13.7550 C.ar  201  ET201       0.0000
     19  C19      -22.1980   25.2690   14.3470 C.ar  201  ET201       0.0000
     20  C20      -22.5170   24.9080   15.6680 C.ar  201  ET201       0.0012
     21  C21      -25.4980   23.6340   17.0150 C.3   201  ET201       0.0914
     22  C22      -26.8340   24.3630   16.7190 C.3   201  ET201       0.0232
     23  N23      -27.3240   21.5060   21.1970 N.pl3 201  ET201      -0.1283
     24  N24      -20.4160   28.5800   19.6160 N.pl3 201  ET201      -0.1281
@<TRIPOS>BOND
     1    18    19   ar
     2    18    17   ar
     3    19    20   ar
     4    17    16   ar
     5    20    15   ar
     6    16    15   ar
     7    15     6    1
     8    22    21    1
     9    21     5    1
    10     6     5    1
    11     6    11    2
    12     5    14    1
    13     7    11   ar
    14     7     8   ar
    15    11    12   ar
    16    14     4    1
    17    14    13    1
    18    24     8    1
    19     4     3    2
    20     8     9   ar
    21    12    13    2
    22    12    10   ar
    23    13     1    1
    24     3    23    1
    25     3     2    1
    26     9    10   ar
    27     1     2    2
