@<TRIPOS>MOLECULE
3htp_SIA_A_1.pdb
 20 20 0 0 0
SMALL
GASTEIGER

@<TRIPOS>ATOM
      1  C1         8.2840   42.0740    9.0160 C.2   801  SIA801      0.3914
      2  C2         7.2080   41.1280    8.4890 C.3   801  SIA801      0.2203
      3  C3         7.0760   41.3140    6.9760 C.3   801  SIA801      0.0760
      4  C4         8.4140   40.9780    6.3170 C.3   801  SIA801      0.1773
      5  C5         8.8510   39.5690    6.7030 C.3   801  SIA801      0.1552
      6  C6         8.8710   39.3860    8.2240 C.3   801  SIA801      0.1710
      7  C7         9.1500   37.9120    8.5330 C.3   801  SIA801      0.2134
      8  C8         9.1440   37.6270   10.0390 C.3   801  SIA801      0.2173
      9  C9         9.6350   36.2130   10.3070 C.3   801  SIA801      0.2175
     10  C10       10.3200   38.4440    5.1790 C.2   801  SIA801      0.2420
     11  C11       10.6520   37.0210    5.5690 C.3   801  SIA801      0.0964
     12  N5        10.1700   39.3120    6.1690 N.am  801  SIA801     -0.2020
     13  O1A        8.1340   43.3020    8.8470 O.co2 801  SIA801     -0.2430
     14  O1B        9.2760   41.5960    9.6040 O.co2 801  SIA801     -0.2430
     15  O4         8.2940   41.0660    4.9060 O.3   801  SIA801     -0.2211
     16  O6         7.5970   39.7740    8.7990 O.3   801  SIA801     -0.3429
     17  O7         8.1700   37.1030    7.8990 O.3   801  SIA801     -0.2176
     18  O8         9.9830   38.5480   10.7140 O.3   801  SIA801     -0.2175
     19  O9         9.7240   36.0030   11.7050 O.3   801  SIA801     -0.2175
     20  O10       10.1970   38.7460    3.9940 O.2   801  SIA801     -0.2733
@<TRIPOS>BOND
     1    20    10    2
     2    15     4    1
     3    10    11    1
     4    10    12   am
     5    12     5    1
     6     4     5    1
     7     4     3    1
     8     5     6    1
     9     3     2    1
    10    17     7    1
    11     6     7    1
    12     6    16    1
    13     2    16    1
    14     2     1    1
    15     7     8    1
    16    13     1   ar
    17     1    14   ar
    18     8     9    1
    19     8    18    1
    20     9    19    1
