@<TRIPOS>MOLECULE
3htq_SIA_A_1.pdb
 20 20 0 0 0
SMALL
GASTEIGER

@<TRIPOS>ATOM
      1  C1         7.7080   42.3480    8.8280 C.2   801  SIA801      0.3914
      2  C2         6.7410   41.4000    8.1000 C.3   801  SIA801      0.2203
      3  C3         6.8280   41.6460    6.5880 C.3   801  SIA801      0.0760
      4  C4         8.1820   41.2340    6.0340 C.3   801  SIA801      0.1773
      5  C5         8.4660   39.7920    6.4410 C.3   801  SIA801      0.1552
      6  C6         8.3860   39.6460    7.9540 C.3   801  SIA801      0.1710
      7  C7         8.5960   38.1950    8.3400 C.3   801  SIA801      0.2134
      8  C8         8.8940   38.0610    9.8430 C.3   801  SIA801      0.2173
      9  C9         9.2470   36.6190   10.1960 C.3   801  SIA801      0.2175
     10  C10        9.8460   38.5170    4.9630 C.2   801  SIA801      0.2420
     11  C11       10.3160   37.1250    5.3340 C.3   801  SIA801      0.0964
     12  N5         9.7670   39.3920    5.9570 N.am  801  SIA801     -0.2020
     13  O1A        7.8010   43.5270    8.4170 O.co2 801  SIA801     -0.2430
     14  O1B        8.3620   41.9380    9.8220 O.co2 801  SIA801     -0.2430
     15  O4         8.1420   41.3330    4.6140 O.3   801  SIA801     -0.2211
     16  O6         7.0800   40.0380    8.4160 O.3   801  SIA801     -0.3429
     17  O7         7.4130   37.4680    8.0340 O.3   801  SIA801     -0.2176
     18  O8         9.9680   38.9160   10.2120 O.3   801  SIA801     -0.2175
     19  O9         9.5960   36.5310   11.5690 O.3   801  SIA801     -0.2175
     20  O10        9.5390   38.7770    3.7990 O.2   801  SIA801     -0.2733
@<TRIPOS>BOND
     1    20    10    2
     2    15     4    1
     3    10    11    1
     4    10    12   am
     5    12     5    1
     6     4     5    1
     7     4     3    1
     8     5     6    1
     9     3     2    1
    10     6     7    1
    11     6    16    1
    12    17     7    1
    13     2    16    1
    14     2     1    1
    15     7     8    1
    16    13     1   ar
    17     1    14   ar
    18     8     9    1
    19     8    18    1
    20     9    19    1
