@<TRIPOS>MOLECULE
3htt_SIA_A_1.pdb
 20 20 0 0 0
SMALL
GASTEIGER

@<TRIPOS>ATOM
      1  C1         8.4170   41.9830    8.8550 C.2   3033  SIA3033     0.3914
      2  C2         7.2610   41.1100    8.3680 C.3   3033  SIA3033     0.2203
      3  C3         7.0830   41.3160    6.8600 C.3   3033  SIA3033     0.0760
      4  C4         8.3720   40.8790    6.1440 C.3   3033  SIA3033     0.1773
      5  C5         8.7570   39.4460    6.5230 C.3   3033  SIA3033     0.1552
      6  C6         8.7930   39.2890    8.0450 C.3   3033  SIA3033     0.1710
      7  C7         9.0260   37.8270    8.3940 C.3   3033  SIA3033     0.2134
      8  C8         9.0180   37.6090    9.9080 C.3   3033  SIA3033     0.2173
      9  C9         9.5040   36.2050   10.2220 C.3   3033  SIA3033     0.2175
     10  C10       10.3210   38.2280    5.1220 C.2   3033  SIA3033     0.2420
     11  C11        9.7050   36.8640    5.3450 C.3   3033  SIA3033     0.0964
     12  N5        10.0900   39.1700    6.0260 N.am  3033  SIA3033    -0.2020
     13  O1A        8.3450   43.2170    8.6810 O.co2 3033  SIA3033    -0.2430
     14  O1B        9.3910   41.4450    9.4240 O.co2 3033  SIA3033    -0.2430
     15  O4         8.2170   40.9740    4.7340 O.3   3033  SIA3033    -0.2211
     16  O6         7.5610   39.7370    8.6460 O.3   3033  SIA3033    -0.3429
     17  O7         8.0140   37.0310    7.7910 O.3   3033  SIA3033    -0.2176
     18  O8         9.8640   38.5560   10.5410 O.3   3033  SIA3033    -0.2175
     19  O9         9.7340   36.0800   11.6140 O.3   3033  SIA3033    -0.2175
     20  O10       11.0330   38.4230    4.1400 O.2   3033  SIA3033    -0.2733
@<TRIPOS>BOND
     1    20    10    2
     2    15     4    1
     3    10    11    1
     4    10    12   am
     5    12     5    1
     6     4     5    1
     7     4     3    1
     8     5     6    1
     9     3     2    1
    10    17     7    1
    11     6     7    1
    12     6    16    1
    13     2    16    1
    14     2     1    1
    15     7     8    1
    16    13     1   ar
    17     1    14   ar
    18     8     9    1
    19     8    18    1
    20     9    19    1
