@<TRIPOS>MOLECULE
3htx_SAH_A_1.pdb
 26 28 0 0 0
SMALL
GASTEIGER

@<TRIPOS>ATOM
      1  N       -146.0750  130.9190   34.8250 N.3   951  SAH951     -0.1208
      2  CA      -144.7230  130.3060   35.0960 C.3   951  SAH951      0.1952
      3  CB      -144.8910  129.0110   35.9210 C.3   951  SAH951      0.0422
      4  CG      -143.8800  128.8540   37.0490 C.3   951  SAH951      0.0597
      5  SD      -144.0940  127.3420   38.0260 S.3   951  SAH951     -0.1375
      6  C       -143.9840  129.9940   33.7630 C.2   951  SAH951      0.3819
      7  O       -142.7240  130.2550   33.6890 O.co2 951  SAH951     -0.2441
      8  OXT     -144.6710  129.4870   32.8130 O.co2 951  SAH951     -0.2441
      9  C5'     -144.5710  127.9920   39.6420 C.3   951  SAH951      0.0899
     10  C4'     -143.6200  129.0120   40.2250 C.3   951  SAH951      0.1630
     11  O4'     -144.1990  129.4380   41.4690 O.3   951  SAH951     -0.3153
     12  C3'     -142.2100  128.5330   40.6240 C.3   951  SAH951      0.2168
     13  O3'     -141.1810  129.2080   39.8920 O.3   951  SAH951     -0.2175
     14  C2'     -142.1310  128.7960   42.1300 C.3   951  SAH951      0.2569
     15  O2'     -140.8410  129.1970   42.5670 O.3   951  SAH951     -0.2130
     16  C1'     -143.2120  129.8800   42.3300 C.3   951  SAH951      0.3185
     17  N9      -143.8440  129.9620   43.6710 N.pl3 951  SAH951     -0.1439
     18  C8      -144.4820  128.9690   44.4090 C.3   951  SAH951      0.3377
     19  N7      -144.9490  129.3640   45.5740 N.2   951  SAH951     -0.2095
     20  C5      -144.5910  130.6830   45.6270 C.2   951  SAH951      0.2526
     21  C6      -144.8200  131.6740   46.5960 C.2   951  SAH951      0.4393
     22  N6      -145.4310  131.4150   47.7540 N.pl3 951  SAH951      0.2180
     23  N1      -144.3410  132.9440   46.3490 N.2   951  SAH951      0.0021
     24  C2      -143.7120  133.1930   45.1580 C.3   951  SAH951      0.5254
     25  N3      -143.4470  132.3240   44.1520 N.2   951  SAH951     -0.0055
     26  C4      -143.9440  131.0870   44.4370 C.2   951  SAH951      0.3518
@<TRIPOS>BOND
     1     8     6   ar
     2     7     6   ar
     3     6     2    1
     4     1     2    1
     5     2     3    1
     6     3     4    1
     7     4     5    1
     8     5     9    1
     9     9    10    1
    10    13    12    1
    11    10    12    1
    12    10    11    1
    13    12    14    1
    14    11    16    1
    15    14    16    1
    16    14    15    1
    17    16    17    1
    18    17    18    1
    19    17    26    1
    20    25    26    2
    21    25    24    1
    22    18    19    1
    23    26    20    1
    24    24    23    1
    25    19    20    2
    26    20    21    1
    27    23    21    2
    28    21    22    1
