@<TRIPOS>MOLECULE
3hu1_AGS_A_1.pdb
 31 33 0 0 0
SMALL
GASTEIGER

@<TRIPOS>ATOM
      1  PG         8.4780   44.0810   -4.4480 P.3   800  AGS800      0.4340
      2  S1G        7.9180   42.4450   -5.4620 S.3   800  AGS800      0.0416
      3  O2G        9.4320   44.8280   -5.3220 O.2   800  AGS800     -0.2423
      4  O3G        8.9200   43.5640   -3.1050 O.3   800  AGS800     -0.1305
      5  PB         6.9990   46.4080   -3.7580 P.3   800  AGS800      0.2262
      6  O1B        8.2250   47.1720   -4.1870 O.2   800  AGS800     -0.5168
      7  O2B        6.6330   46.2880   -2.3050 O.3   800  AGS800     -0.4369
      8  O3B        7.1010   44.9290   -4.3430 O.3   800  AGS800     -0.2405
      9  PA         5.7210   48.2520   -5.4720 P.3   800  AGS800      0.2189
     10  O1A        6.5820   47.9080   -6.6320 O.2   800  AGS800     -0.5170
     11  O2A        6.0190   49.5150   -4.7240 O.3   800  AGS800     -0.4371
     12  O3A        5.7040   47.0140   -4.4620 O.3   800  AGS800     -0.2701
     13  O5'        4.1950   48.2680   -5.8510 O.3   800  AGS800     -0.3112
     14  C5'        3.7900   48.2340   -7.1820 C.3   800  AGS800      0.1813
     15  C4'        2.7040   49.2650   -7.4290 C.3   800  AGS800      0.1821
     16  O4'        1.5160   48.9430   -6.7090 O.3   800  AGS800     -0.3135
     17  C3'        3.0890   50.6870   -7.0690 C.3   800  AGS800      0.2184
     18  O3'        3.6150   51.3640   -8.2010 O.3   800  AGS800     -0.2174
     19  C2'        1.7820   51.2970   -6.6590 C.3   800  AGS800      0.2570
     20  O2'        1.1270   51.8920   -7.7950 O.3   800  AGS800     -0.2130
     21  C1'        0.9470   50.1210   -6.1750 C.3   800  AGS800      0.3186
     22  N9         1.0020   50.0130   -4.6990 N.pl3 800  AGS800     -0.1439
     23  C8         1.4960   48.9590   -4.0110 C.3   800  AGS800      0.3377
     24  N7         1.3580   49.1590   -2.6730 N.2   800  AGS800     -0.2095
     25  C5         0.7960   50.3580   -2.4920 C.2   800  AGS800      0.2526
     26  C6         0.3290   51.1560   -1.3250 C.2   800  AGS800      0.4393
     27  N6         0.4850   50.6960   -0.0500 N.pl3 800  AGS800      0.2180
     28  N1        -0.2370   52.3690   -1.5680 N.2   800  AGS800      0.0021
     29  C2        -0.4460   52.8230   -2.8200 C.3   800  AGS800      0.5254
     30  N3        -0.0610   52.1310   -3.9120 N.2   800  AGS800     -0.0055
     31  C4         0.5440   50.9130   -3.8170 C.2   800  AGS800      0.3518
@<TRIPOS>BOND
     1    18    17    1
     2    20    19    1
     3    15    14    1
     4    15    17    1
     5    15    16    1
     6    14    13    1
     7    17    19    1
     8    16    21    1
     9    19    21    1
    10    10     9    2
    11    21    22    1
    12    13     9    1
    13     9    11    1
    14     9    12    1
    15     2     1    1
    16     3     1    2
    17    22    23    1
    18    22    31    1
    19    12     5    1
    20     1     8    1
    21     1     4    1
    22     8     5    1
    23     6     5    2
    24    23    24    1
    25    30    31    2
    26    30    29    1
    27    31    25    1
    28     5     7    1
    29    29    28    1
    30    24    25    2
    31    25    26    1
    32    28    26    2
    33    26    27    1
