@<TRIPOS>MOLECULE
3hu2_AGS_A_1.pdb
 31 33 0 0 0
SMALL
GASTEIGER

@<TRIPOS>ATOM
      1  PG        -2.5980   44.3660   -4.4330 P.3   800  AGS800      0.4340
      2  S1G       -3.5070   42.9940   -5.5860 S.3   800  AGS800      0.0416
      3  O2G       -1.6770   45.1580   -5.3090 O.2   800  AGS800     -0.2423
      4  O3G       -2.0500   43.6630   -3.2180 O.3   800  AGS800     -0.1305
      5  PB        -3.9400   46.7810   -3.7260 P.3   800  AGS800      0.2262
      6  O1B       -2.6780   47.4660   -4.1170 O.2   800  AGS800     -0.5168
      7  O2B       -4.4630   46.8470   -2.3280 O.3   800  AGS800     -0.4369
      8  O3B       -3.8670   45.2260   -3.9890 O.3   800  AGS800     -0.2405
      9  PA        -5.1360   48.7150   -5.3970 P.3   800  AGS800      0.2189
     10  O1A       -4.4450   48.7580   -6.6880 O.2   800  AGS800     -0.5170
     11  O2A       -4.7920   49.7050   -4.3340 O.3   800  AGS800     -0.4371
     12  O3A       -5.0490   47.2510   -4.7810 O.3   800  AGS800     -0.2701
     13  O5'       -6.6920   48.7770   -5.6740 O.3   800  AGS800     -0.3112
     14  C5'       -7.1800   48.6220   -6.9980 C.3   800  AGS800      0.1813
     15  C4'       -8.2890   49.6050   -7.3230 C.3   800  AGS800      0.1821
     16  O4'       -9.4480   49.2760   -6.5890 O.3   800  AGS800     -0.3135
     17  C3'       -7.9490   51.0430   -7.0060 C.3   800  AGS800      0.2184
     18  O3'       -7.4430   51.6900   -8.1670 O.3   800  AGS800     -0.2174
     19  C2'       -9.2480   51.6410   -6.5600 C.3   800  AGS800      0.2570
     20  O2'       -9.9410   52.2190   -7.6740 O.3   800  AGS800     -0.2130
     21  C1'      -10.0550   50.4520   -6.0720 C.3   800  AGS800      0.3186
     22  N9       -10.0250   50.3460   -4.5990 N.pl3 800  AGS800     -0.1439
     23  C8        -9.4860   49.3230   -3.9280 C.3   800  AGS800      0.3377
     24  N7        -9.6460   49.4910   -2.5970 N.2   800  AGS800     -0.2095
     25  C5       -10.2380   50.6580   -2.3940 C.2   800  AGS800      0.2526
     26  C6       -10.6910   51.4280   -1.2100 C.2   800  AGS800      0.4393
     27  N6       -10.5060   50.9470    0.0370 N.pl3 800  AGS800      0.2180
     28  N1       -11.2900   52.6240   -1.4070 N.2   800  AGS800      0.0021
     29  C2       -11.5000   53.1060   -2.6540 C.3   800  AGS800      0.5254
     30  N3       -11.1160   52.4460   -3.7710 N.2   800  AGS800     -0.0055
     31  C4       -10.4990   51.2290   -3.7060 C.2   800  AGS800      0.3518
@<TRIPOS>BOND
     1    18    17    1
     2    20    19    1
     3    15    17    1
     4    15    14    1
     5    15    16    1
     6    17    19    1
     7    14    13    1
     8    10     9    2
     9    16    21    1
    10    19    21    1
    11    21    22    1
    12    13     9    1
    13     2     1    1
    14     9    12    1
    15     9    11    1
    16     3     1    2
    17    12     5    1
    18    22    23    1
    19    22    31    1
    20     1     8    1
    21     1     4    1
    22     6     5    2
    23     8     5    1
    24    23    24    1
    25    30    31    2
    26    30    29    1
    27     5     7    1
    28    31    25    1
    29    29    28    1
    30    24    25    2
    31    25    26    1
    32    28    26    2
    33    26    27    1
