@<TRIPOS>MOLECULE
3hu3_AGS_A_1.pdb
 31 33 0 0 0
SMALL
GASTEIGER

@<TRIPOS>ATOM
      1  PG        18.1600   52.9450  -12.0610 P.3   800  AGS800      0.4340
      2  S1G       16.2960   52.4140  -12.8180 S.3   800  AGS800      0.0416
      3  O2G       17.8770   53.3440  -10.6300 O.3   800  AGS800     -0.1305
      4  O3G       18.9030   54.0020  -12.8750 O.2   800  AGS800     -0.2423
      5  PB        20.4530   51.1770  -11.5060 P.3   800  AGS800      0.2262
      6  O1B       21.4500   51.3230  -12.6080 O.2   800  AGS800     -0.5168
      7  O2B       20.5460   51.7930  -10.1560 O.3   800  AGS800     -0.4369
      8  O3B       18.9960   51.5670  -12.1330 O.3   800  AGS800     -0.2405
      9  PA        20.4810   48.7320  -10.0390 P.3   800  AGS800      0.2189
     10  O1A       21.9230   48.9850   -9.7220 O.2   800  AGS800     -0.5170
     11  O2A       19.3820   49.1120   -9.0830 O.3   800  AGS800     -0.4371
     12  O3A       20.1350   49.5980  -11.3480 O.3   800  AGS800     -0.2701
     13  O5'       20.3070   47.2640  -10.7010 O.3   800  AGS800     -0.3112
     14  C5'       19.1300   46.4650  -10.5460 C.3   800  AGS800      0.1813
     15  C4'       19.5690   45.0010  -10.4110 C.3   800  AGS800      0.1821
     16  O4'       20.0870   44.5150  -11.6660 O.3   800  AGS800     -0.3135
     17  C3'       20.7230   44.8520   -9.4300 C.3   800  AGS800      0.2184
     18  O3'       20.3310   44.7990   -8.0460 O.3   800  AGS800     -0.2174
     19  C2'       21.4530   43.6300   -9.9180 C.3   800  AGS800      0.2570
     20  O2'       20.7260   42.4710   -9.4840 O.3   800  AGS800     -0.2130
     21  C1'       21.3070   43.7620  -11.4440 C.3   800  AGS800      0.3186
     22  N9        22.4900   44.4450  -12.0220 N.pl3 800  AGS800     -0.1439
     23  C8        22.4570   45.6450  -12.6100 C.3   800  AGS800      0.3377
     24  N7        23.6820   46.0340  -13.0340 N.2   800  AGS800     -0.2095
     25  C5        24.5540   45.0630  -12.7170 C.2   800  AGS800      0.2526
     26  C6        26.0120   44.8480  -12.8820 C.2   800  AGS800      0.4393
     27  N6        26.7970   45.7650  -13.5030 N.pl3 800  AGS800      0.2180
     28  N1        26.5420   43.6990  -12.4070 N.2   800  AGS800      0.0021
     29  C2        25.7820   42.7760  -11.7990 C.3   800  AGS800      0.5254
     30  N3        24.4610   42.9120  -11.6310 N.2   800  AGS800     -0.0055
     31  C4        23.7790   44.0130  -12.0550 C.2   800  AGS800      0.3518
@<TRIPOS>BOND
     1    27    26    1
     2    24    25    2
     3    24    23    1
     4    26    25    1
     5    26    28    2
     6     4     1    2
     7     2     1    1
     8    25    31    1
     9    23    22    1
    10     6     5    2
    11    28    29    1
    12     8     1    1
    13     8     5    1
    14     1     3    1
    15    31    22    1
    16    31    30    2
    17    22    21    1
    18    29    30    1
    19    16    21    1
    20    16    15    1
    21     5    12    1
    22     5     7    1
    23    21    19    1
    24    12     9    1
    25    13    14    1
    26    13     9    1
    27    14    15    1
    28    15    17    1
    29     9    10    2
    30     9    11    1
    31    19    20    1
    32    19    17    1
    33    17    18    1
