@<TRIPOS>MOLECULE
3hu6_III_C_1.pdb
 40 39 0 0 0
SMALL
GASTEIGER

@<TRIPOS>ATOM
      1  N         -7.8380   71.8520   -8.4610 N.3    97  GLU97      -0.1231
      2  CA        -6.7160   71.9590   -9.4430 C.3    97  GLU97       0.1694
      3  C         -5.4460   71.3270   -8.8820 C.2    97  GLU97       0.2592
      4  O         -5.0650   71.5690   -7.7390 O.2    97  GLU97      -0.2718
      5  CB        -6.4560   73.4320   -9.8030 C.3    97  GLU97       0.0304
      6  N         -4.8020   70.5200   -9.7140 N.am   98  VAL98      -0.1966
      7  CA        -3.5820   69.8070   -9.3640 C.3    98  VAL98       0.1727
      8  C         -2.3680   70.5100   -9.9790 C.2    98  VAL98       0.2617
      9  O         -2.4230   70.9250  -11.1350 O.2    98  VAL98      -0.2715
     10  CB        -3.6790   68.3380   -9.8950 C.3    98  VAL98       0.0290
     11  CG1       -2.3090   67.6740   -9.9250 C.3    98  VAL98       0.0023
     12  CG2       -4.6330   67.5360   -9.0190 C.3    98  VAL98       0.0023
     13  N         -1.2860   70.6550   -9.2120 N.am   99  THR99      -0.1937
     14  CA        -0.0630   71.2940   -9.7190 C.3    99  THR99       0.2028
     15  C          1.1540   70.6830   -9.0680 C.2    99  THR99       0.2643
     16  O          1.0350   69.8240   -8.1960 O.2    99  THR99      -0.2714
     17  CB         0.0230   72.8120   -9.4200 C.3    99  THR99       0.1808
     18  OG1        0.1340   73.0060   -8.0050 O.3    99  THR99      -0.2208
     19  CG2       -1.1880   73.5510   -9.9630 C.3    99  THR99       0.0379
     20  N          2.3250   71.1530   -9.4830 N.am  100  SER100     -0.1935
     21  CA         3.5900   70.6660   -8.9500 C.3   100  SER100      0.2055
     22  C          4.3540   71.8630   -8.3920 C.2   100  SER100      0.2644
     23  O          4.1130   72.9910   -8.8190 O.2   100  SER100     -0.2714
     24  CB         4.3920   69.9860  -10.0670 C.3   100  SER100      0.2130
     25  OG         5.6120   69.4520   -9.5870 O.3   100  SER100     -0.2179
     26  N          5.2540   71.6360   -7.4340 N.am  101  THR101     -0.1936
     27  CA         6.0140   72.7510   -6.8770 C.3   101  THR101      0.2028
     28  C          7.0990   73.1060   -7.8650 C.2   101  THR101      0.2643
     29  O          7.6440   74.2120   -7.8430 O.2   101  THR101     -0.2714
     30  CB         6.7020   72.4120   -5.5550 C.3   101  THR101      0.1808
     31  OG1        7.7210   71.4320   -5.7810 O.3   101  THR101     -0.2208
     32  CG2        5.6990   71.9060   -4.5530 C.3   101  THR101      0.0379
     33  N          7.4110   72.1530   -8.7310 N.am  102  THR102     -0.1914
     34  CA         8.4270   72.3510   -9.7490 C.3   102  THR102      0.2278
     35  C          7.7230   72.6340  -11.0810 C.2   102  THR102      0.3868
     36  O          6.5080   72.9640  -11.0510 O.co2 102  THR102     -0.2437
     37  CB         9.3240   71.1080   -9.8840 C.3   102  THR102      0.1829
     38  OG1        8.6570   70.1180  -10.6750 O.3   102  THR102     -0.2207
     39  CG2        9.6190   70.5230   -8.5000 C.3   102  THR102      0.0380
     40  OXT        8.3940   72.5450  -12.1340 O.co2 102  THR102     -0.2437
@<TRIPOS>BOND
     1    40    35   ar
     2     9     8    2
     3    35    36   ar
     4    35    34    1
     5    38    37    1
     6    24    25    1
     7    24    21    1
     8     8     7    1
     9     8    13   am
    10    19    17    1
    11    11    10    1
    12    10     7    1
    13    10    12    1
    14    37    34    1
    15    37    39    1
    16     5     2    1
    17    34    33    1
    18    14    17    1
    19    14    13    1
    20    14    15    1
    21     6     7    1
    22     6     3   am
    23    20    15   am
    24    20    21    1
    25     2     3    1
    26     2     1    1
    27    17    18    1
    28    15    16    2
    29    21    22    1
    30     3     4    2
    31    23    22    2
    32    33    28   am
    33    22    26   am
    34    28    29    2
    35    28    27    1
    36    26    27    1
    37    27    30    1
    38    31    30    1
    39    30    32    1
