@<TRIPOS>MOLECULE
3hu8_261_A_1.pdb
 10 10 0 0 0
SMALL
GASTEIGER

@<TRIPOS>ATOM
      1  CAA       23.8480  -23.9920   -0.3080 C.3   167  261167      0.0512
      2  CAG       23.5360  -23.9730   -1.8010 C.3   167  261167      0.2057
      3  OAH       22.2750  -24.6570   -2.0140 O.3   167  261167     -0.4722
      4  CAJ       22.2570  -25.4490   -3.1170 C.ar  167  261167      0.1772
      5  CAF       22.9410  -25.0860   -4.2780 C.ar  167  261167      0.0402
      6  CAD       22.9060  -25.9320   -5.3910 C.ar  167  261167      0.0033
      7  CAC       22.1770  -27.1190   -5.3480 C.ar  167  261167      0.0035
      8  CAE       21.4800  -27.4770   -4.1900 C.ar  167  261167      0.0452
      9  CAI       21.5210  -26.6380   -3.0740 C.ar  167  261167      0.2293
     10  OAB       20.8420  -26.9820   -1.9410 O.3   167  261167     -0.2833
@<TRIPOS>BOND
     1     6     7   ar
     2     6     5   ar
     3     7     8   ar
     4     5     4   ar
     5     8     9   ar
     6     4     9   ar
     7     4     3    1
     8     9    10    1
     9     3     2    1
    10     2     1    1
