@<TRIPOS>MOLECULE
3hub_469_A_1.pdb
 36 39 0 0 0
SMALL
GASTEIGER

@<TRIPOS>ATOM
      1  CAC       23.3340    7.5090  -27.9140 C.3   361  469361      0.1153
      2  NBG       22.7820    8.6990  -27.1480 N.am  361  469361     -0.2699
      3  CAD       23.3850   10.0280  -27.3800 C.3   361  469361      0.1153
      4  CAV       21.7490    8.5850  -26.2310 C.2   361  469361      0.2883
      5  OAG       21.3040    9.5420  -25.5950 O.2   361  469361     -0.2664
      6  CAU       21.1240    7.1880  -25.8850 C.2   361  469361      0.2501
      7  OAF       21.5210    6.2570  -26.5740 O.2   361  469361     -0.2817
      8  CBB       19.9110    6.9160  -24.9880 C.ar  361  469361      0.0622
      9  CBC       19.4060    5.6500  -24.7460 C.ar  361  469361      0.0207
     10  CAP       19.8400    4.3680  -25.0650 C.ar  361  469361      0.0069
     11  CAQ       19.0510    7.8340  -24.5030 C.ar  361  469361      0.0793
     12  NBJ       18.0400    7.1880  -23.9040 N.ar  361  469361     -0.3239
     13  CAE       16.9630    7.8460  -23.1960 C.3   361  469361      0.1305
     14  CBD       18.2150    5.8560  -24.0230 C.ar  361  469361      0.0609
     15  CAO       17.4620    4.7540  -23.6110 C.ar  361  469361      0.0287
     16  CAY       17.9070    3.4740  -23.9050 C.ar  361  469361      0.0635
     17 CLA        16.9030    2.1580  -23.3790 Cl    361  469361     -0.0820
     18  CBA       19.0930    3.2870  -24.6360 C.ar  361  469361      0.0642
     19  CAW       19.6330    1.8900  -24.9520 C.2   361  469361      0.2499
     20  OAH       19.8200    1.5200  -26.0970 O.2   361  469361     -0.2699
     21  NBI       19.9810    1.1290  -23.8830 N.am  361  469361     -0.2749
     22  CBF       20.5040   -0.2380  -23.9710 C.3   361  469361      0.0917
     23  CAS       21.6810   -0.2880  -23.0430 C.3   361  469361      0.0924
     24  CAB       19.4290   -1.2350  -23.4520 C.3   361  469361      0.0230
     25  CAT       19.7190    1.6610  -22.4870 C.3   361  469361      0.1096
     26  CBE       20.8870    1.5350  -21.5500 C.3   361  469361      0.0777
     27  CAA       21.9300    2.5430  -22.0670 C.3   361  469361      0.0192
     28  NBH       21.2560    0.1040  -21.6760 N.3   361  469361     -0.2672
     29  CAR       22.2790   -0.3190  -20.7460 C.3   361  469361      0.0992
     30  CAZ       22.7890   -1.7770  -20.8740 C.ar  361  469361     -0.0060
     31  CAM       24.0910   -2.0300  -21.3830 C.ar  361  469361     -0.0006
     32  CAK       24.5500   -3.3550  -21.4390 C.ar  361  469361      0.0294
     33  CAX       23.7280   -4.4150  -20.9840 C.ar  361  469361      0.1401
     34  FAI       24.1680   -5.7040  -21.0340 F     361  469361     -0.2042
     35  CAL       22.4350   -4.1580  -20.4980 C.ar  361  469361      0.0294
     36  CAN       21.9670   -2.8330  -20.4280 C.ar  361  469361     -0.0006
@<TRIPOS>BOND
     1     1     2    1
     2     3     2    1
     3     2     4   am
     4     7     6    2
     5     4     6    1
     6     4     5    2
     7    20    19    2
     8     6     8    1
     9    10     9   ar
    10    10    18   ar
    11     8     9   ar
    12     8    11   ar
    13    19    18    1
    14    19    21   am
    15     9    14   ar
    16    18    16   ar
    17    11    12   ar
    18    14    12   ar
    19    14    15   ar
    20    22    21    1
    21    22    24    1
    22    22    23    1
    23    16    15   ar
    24    16    17    1
    25    12    13    1
    26    21    25    1
    27    23    28    1
    28    25    26    1
    29    27    26    1
    30    28    26    1
    31    28    29    1
    32    32    31   ar
    33    32    33   ar
    34    31    30   ar
    35    34    33    1
    36    33    35   ar
    37    30    29    1
    38    30    36   ar
    39    35    36   ar
