@<TRIPOS>MOLECULE
3huc_G97_A_1.pdb
 27 30 0 0 0
SMALL
GASTEIGER

@<TRIPOS>ATOM
      1  CAH       24.7520   -1.9090  -20.8760 C.ar  362  G97362      0.0120
      2  CAE       25.3510   -2.9980  -21.5080 C.ar  362  G97362      0.0007
      3  CAD       24.8970   -4.2750  -21.2010 C.ar  362  G97362      0.0000
      4  CAF       23.8760   -4.4740  -20.2690 C.ar  362  G97362      0.0007
      5  CAI       23.2760   -3.3800  -19.6380 C.ar  362  G97362      0.0120
      6  CAW       23.7150   -2.0910  -19.9500 C.ar  362  G97362      0.0857
      7  C2        23.1530   -0.9930  -19.3060 C.1   362  G97362      0.1392
      8  N1        23.0020    0.1980  -19.9310 N.2   362  G97362     -0.3227
      9  N3        22.7970   -1.1460  -18.0150 N.2   362  G97362     -0.3397
     10  C4        22.2710   -0.1250  -17.3250 C.2   362  G97362      0.1483
     11  CAM       21.9000   -0.3240  -15.9950 C.2   362  G97362      0.0457
     12  CAU       21.3380    0.7140  -15.2550 C.2   362  G97362      0.0580
     13  NAQ       21.0190    0.4530  -13.9710 N.am  362  G97362     -0.1832
     14  CAT       20.1930    1.1450  -13.1760 C.2   362  G97362      0.2453
     15  OAB       19.5700    2.1540  -13.5240 O.2   362  G97362     -0.2730
     16  CAC       20.0260    0.6750  -11.8710 C.3   362  G97362      0.0872
     17  CAA       19.1830    1.3240  -10.9700 C.3   362  G97362      0.0101
     18  CAK       21.1580    1.9670  -15.8690 C.3   362  G97362      0.0695
     19  CAL       21.5350    2.1660  -17.2050 C.2   362  G97362     -0.0135
     20  C5        22.0950    1.1170  -17.9450 C.2   362  G97362      0.0733
     21  C6        22.4780    1.2630  -19.2890 C.2   362  G97362      0.2193
     22  NAR       22.3330    2.4370  -19.9390 N.pl3 362  G97362     -0.1621
     23  CAV       22.4610    2.5860  -21.2810 C.ar  362  G97362      0.1772
     24  CAJ       22.5710    3.7560  -21.9050 C.ar  362  G97362      0.0605
     25  CAG       22.6670    3.4550  -23.2030 C.ar  362  G97362      0.1252
     26  NAS       22.6040    2.1190  -23.3250 N.ar  362  G97362     -0.1450
     27  NAN       22.4840    1.6090  -22.2000 N.ar  362  G97362     -0.1309
@<TRIPOS>BOND
     1    26    25   ar
     2    26    27   ar
     3    25    24   ar
     4    27    23   ar
     5    24    23   ar
     6     2     3   ar
     7     2     1   ar
     8    23    22    1
     9     3     4   ar
    10     1     6   ar
    11     4     5   ar
    12     6     5   ar
    13     6     7    1
    14    22    21    1
    15     8     7    2
    16     8    21    2
    17     7     9    2
    18    21    20    1
    19     9    10    2
    20    20    10    1
    21    20    19    2
    22    10    11    1
    23    19    18    1
    24    11    12    2
    25    18    12    1
    26    12    13    1
    27    13    14   am
    28    15    14    2
    29    14    16    1
    30    16    17    1
