@<TRIPOS>MOLECULE
3hud_NAD_A_1.pdb
 44 48 0 0 0
SMALL
GASTEIGER

@<TRIPOS>ATOM
      1  PA        -8.4930   13.6710  -27.3410 P.3   377  NAD377      0.2189
      2  O1A       -9.4210   12.6780  -26.7650 O.2   377  NAD377     -0.5170
      3  O2A       -8.8340   14.9310  -26.6140 O.3   377  NAD377     -0.4371
      4  O5B       -8.7370   13.8480  -28.9470 O.3   377  NAD377     -0.3112
      5  C5B       -9.7640   13.1270  -29.7330 C.3   377  NAD377      0.1813
      6  C4B      -10.5900   13.9950  -30.6870 C.3   377  NAD377      0.1821
      7  O4B      -11.2960   13.1420  -31.5980 O.3   377  NAD377     -0.3135
      8  C3B      -11.6840   14.7990  -29.9480 C.3   377  NAD377      0.2184
      9  O3B      -11.8180   16.0920  -30.5310 O.3   377  NAD377     -0.2174
     10  C2B      -12.9410   14.0170  -30.3280 C.3   377  NAD377      0.2570
     11  O2B      -14.0510   14.9070  -30.2550 O.3   377  NAD377     -0.2130
     12  C1B      -12.5790   13.7150  -31.7780 C.3   377  NAD377      0.3186
     13  N9A      -13.4620   12.7470  -32.4210 N.pl3 377  NAD377     -0.1439
     14  C8A      -14.1810   11.7800  -31.8740 C.3   377  NAD377      0.3377
     15  N7A      -14.8660   11.0590  -32.7570 N.2   377  NAD377     -0.2095
     16  C5A      -14.5560   11.6010  -33.8920 C.2   377  NAD377      0.2526
     17  C6A      -14.9110   11.1700  -35.1250 C.2   377  NAD377      0.4393
     18  N6A      -15.6820   10.0950  -35.3400 N.pl3 377  NAD377      0.2180
     19  N1A      -14.3870   11.8190  -36.1070 N.2   377  NAD377      0.0021
     20  C2A      -13.5690   12.8200  -35.8590 C.3   377  NAD377      0.5254
     21  N3A      -13.1940   13.2580  -34.6740 N.2   377  NAD377     -0.0055
     22  C4A      -13.7190   12.6170  -33.6880 C.2   377  NAD377      0.3518
     23  O3        -6.9930   13.1700  -27.0130 O.3   377  NAD377     -0.2703
     24  PN        -5.6570   13.2170  -27.8420 P.3   377  NAD377      0.2189
     25  O1N       -4.6260   13.6140  -26.8640 O.3   377  NAD377     -0.4371
     26  O2N       -5.6540   14.1940  -28.9440 O.2   377  NAD377     -0.5170
     27  O5D       -5.1180   11.8470  -28.4060 O.3   377  NAD377     -0.3112
     28  C5D       -5.4470   11.3730  -29.7480 C.3   377  NAD377      0.1813
     29  C4D       -4.7750   10.0410  -29.9500 C.3   377  NAD377      0.1799
     30  O4D       -3.4160   10.3140  -30.1170 O.3   377  NAD377     -0.3327
     31  C3D       -4.7590    9.1540  -28.7260 C.3   377  NAD377      0.2158
     32  O3D       -5.8410    8.2510  -28.8160 O.3   377  NAD377     -0.2175
     33  C2D       -3.4840    8.3650  -28.8360 C.3   377  NAD377      0.2309
     34  O2D       -3.7780    7.0820  -29.3710 O.3   377  NAD377     -0.2158
     35  C1D       -2.6800    9.1390  -29.8950 C.3   377  NAD377      0.2263
     36  N1N       -1.3280    9.4940  -29.4250 N.pl3 377  NAD377     -0.2787
     37  C2N       -0.3360    9.2130  -30.2290 C.3   377  NAD377      0.1244
     38  C3N        0.9800    9.4020  -29.8710 C.2   377  NAD377      0.0544
     39  C7N        2.0130    9.0700  -30.7710 C.2   377  NAD377      0.2818
     40  O7N        3.2110    9.1380  -30.4940 O.2   377  NAD377     -0.2670
     41  N7N        1.7570    8.8820  -32.0610 N.am  377  NAD377     -0.0839
     42  C4N        1.2250    9.8990  -28.6020 C.2   377  NAD377      0.0033
     43  C5N        0.1730   10.1950  -27.7710 C.2   377  NAD377      0.0157
     44  C6N       -1.1010    9.9790  -28.2210 C.2   377  NAD377      0.0633
@<TRIPOS>BOND
     1    19    20    1
     2    19    17    2
     3    20    21    1
     4    18    17    1
     5    17    16    1
     6    21    22    2
     7    16    22    1
     8    16    15    2
     9    22    13    1
    10    15    14    1
    11    13    14    1
    12    13    12    1
    13    41    39   am
    14    12     7    1
    15    12    10    1
    16     7     6    1
    17    39    40    2
    18    39    38    1
    19     6     8    1
    20     6     5    1
    21     9     8    1
    22    10    11    1
    23    10     8    1
    24    37    38    1
    25    37    36    1
    26    30    29    1
    27    30    35    1
    28    29    28    1
    29    29    31    1
    30    35    36    1
    31    35    33    1
    32    38    42    2
    33    28    27    1
    34     5     4    1
    35    36    44    1
    36    34    33    1
    37     4     1    1
    38    26    24    2
    39    33    31    1
    40    32    31    1
    41    42    43    1
    42    27    24    1
    43    44    43    2
    44    24    23    1
    45    24    25    1
    46     1    23    1
    47     1     2    2
    48     1     3    1
