@<TRIPOS>MOLECULE
3huf_III_E_1.pdb
 40 39 0 0 0
SMALL
GASTEIGER

@<TRIPOS>ATOM
      1  N        -43.4230   -2.1780    5.0260 N.3    77  SER77      -0.1231
      2  CA       -42.2070   -1.5280    5.5910 C.3    77  SER77       0.1694
      3  CB       -41.3090   -1.0170    4.4710 C.3    77  SER77       0.0304
      4  C        -42.6000   -0.3900    6.5320 C.2    77  SER77       0.2593
      5  O        -43.4460    0.4410    6.1920 O.2    77  SER77      -0.2718
      6  N        -41.9940   -0.3690    7.7180 N.am   78  THR78      -0.1939
      7  CA       -42.2910    0.6450    8.7280 C.3    78  THR78       0.2028
      8  C        -41.2650    1.7650    8.6450 C.2    78  THR78       0.2643
      9  O        -40.0660    1.5140    8.5320 O.2    78  THR78      -0.2714
     10  CB       -42.3170    0.0630   10.1710 C.3    78  THR78       0.1808
     11  OG1      -43.0060   -1.1980   10.1870 O.3    78  THR78      -0.2208
     12  CG2      -43.0090    1.0300   11.1390 C.3    78  THR78       0.0379
     13  N        -41.7640    2.9980    8.7020 N.am   79  THR79      -0.1937
     14  CA       -40.9710    4.2260    8.5940 C.3    79  THR79       0.2002
     15  CB       -41.9850    5.3840    8.5530 C.3    79  THR79       0.1551
     16  CG2      -41.3450    6.7090    8.1860 C.3    79  THR79       0.0350
     17  OG1      -43.0650    5.1340    7.6440 O.3    79  THR79      -0.2705
     18  P        -44.5820    4.8980    8.1570 P.3    79  THR79       0.5326
     19  O1P      -44.9200    6.1470    8.9420 O.3    79  THR79      -0.1145
     20  O2P      -44.5110    3.6390    8.9930 O.3    79  THR79      -0.1145
     21  O3P      -45.4180    4.7430    6.9020 O.2    79  THR79      -0.2224
     22  C        -40.0480    4.4260    9.7670 C.2    79  THR79       0.2641
     23  O        -40.4750    4.2900   10.9120 O.2    79  THR79      -0.2714
     24  N        -38.7750    4.7260    9.4950 N.am   80  ASP80      -0.1957
     25  CA       -37.8530    5.2710   10.5100 C.3    80  ASP80       0.1840
     26  C        -36.6840    6.0310    9.8690 C.2    80  ASP80       0.2621
     27  O        -36.7900    6.4680    8.7330 O.2    80  ASP80      -0.2715
     28  CB       -37.3800    4.2210   11.5460 C.3    80  ASP80       0.1450
     29  CG       -36.9300    2.9020   10.9130 C.2    80  ASP80       0.3671
     30  OD1      -36.6500    2.8660    9.6890 O.co2  80  ASP80      -0.2456
     31  OD2      -36.8550    1.8960   11.6560 O.co2  80  ASP80      -0.2456
     32  N        -35.5800    6.1900   10.5940 N.am   81  GLU81      -0.1977
     33  CA       -34.4650    7.0130   10.1180 C.3    81  GLU81       0.1602
     34  C        -33.7100    6.4260    8.9180 C.2    81  GLU81       0.2287
     35  O        -33.1020    5.3580    9.0020 O.2    81  GLU81      -0.2864
     36  CB       -33.4960    7.3260   11.2630 C.3    81  GLU81       0.0415
     37  CG       -34.0040    8.3780   12.2440 C.3    81  GLU81       0.1163
     38  CD       -34.8340    7.8000   13.3850 C.2    81  GLU81       0.3649
     39  OE1      -34.8650    6.5430   13.5150 O.co2  81  GLU81      -0.2457
     40  OE2      -35.4540    8.6090   14.1620 O.co2  81  GLU81      -0.2457
@<TRIPOS>BOND
     1     3     2    1
     2     1     2    1
     3     2     4    1
     4     5     4    2
     5     4     6   am
     6    21    18    2
     7    17    18    1
     8    17    15    1
     9     6     7    1
    10    18    19    1
    11    18    20    1
    12    16    15    1
    13     9     8    2
    14    15    14    1
    15    14    13    1
    16    14    22    1
    17     8    13   am
    18     8     7    1
    19     7    10    1
    20    27    26    2
    21    34    35    2
    22    34    33    1
    23    24    22   am
    24    24    25    1
    25    30    29   ar
    26    22    23    2
    27    26    25    1
    28    26    32   am
    29    33    32    1
    30    33    36    1
    31    10    11    1
    32    10    12    1
    33    25    28    1
    34    29    28    1
    35    29    31   ar
    36    36    37    1
    37    37    38    1
    38    38    39   ar
    39    38    40   ar
