@<TRIPOS>MOLECULE
3huk_J0Z_A_1.pdb
 11 11 0 0 0
SMALL
GASTEIGER

@<TRIPOS>ATOM
      1  CAA       34.1740  -11.3720    3.3310 C.3   166  J0Z166      0.1212
      2  CAJ       33.1800  -10.2110    3.2930 C.2   166  J0Z166      0.3179
      3  OAB       32.7670   -9.7800    2.2160 O.2   166  J0Z166     -0.2501
      4  OAI       32.7610   -9.6760    4.4750 O.3   166  J0Z166     -0.4435
      5  CAH       32.0970   -8.4060    4.3340 C.3   166  J0Z166      0.2350
      6  CAK       32.8350   -7.2310    4.2430 C.ar  166  J0Z166      0.0213
      7  CAF       32.7390   -6.4380    3.0990 C.ar  166  J0Z166     -0.0007
      8  CAD       33.4750   -5.2540    3.0090 C.ar  166  J0Z166     -0.0002
      9  CAC       34.3060   -4.8710    4.0630 C.ar  166  J0Z166     -0.0000
     10  CAE       34.4020   -5.6650    5.2070 C.ar  166  J0Z166     -0.0002
     11  CAG       33.6640   -6.8450    5.2980 C.ar  166  J0Z166     -0.0007
@<TRIPOS>BOND
     1     3     2    2
     2     8     7   ar
     3     8     9   ar
     4     7     6   ar
     5     2     1    1
     6     2     4    1
     7     9    10   ar
     8     6     5    1
     9     6    11   ar
    10     5     4    1
    11    10    11   ar
