@<TRIPOS>MOLECULE
3huo_PNN_A_1.pdb
 23 25 0 0 0
SMALL
GASTEIGER

@<TRIPOS>ATOM
      1  O8        -3.4020  -15.2870   13.6570 O.2   300  PNN300     -0.2729
      2  C7        -4.0080  -16.3410   13.7950 C.2   300  PNN300      0.2491
      3  N4        -3.7900  -17.5620   13.4540 N.am  300  PNN300     -0.2594
      4  C3        -2.8970  -18.1310   12.4520 C.3   300  PNN300      0.1888
      5  C11       -1.4630  -18.4040   12.8970 C.2   300  PNN300      0.3833
      6  O13       -1.1880  -18.5190   14.1120 O.co2 300  PNN300     -0.2438
      7  O12       -0.6150  -18.4310   12.0260 O.co2 300  PNN300     -0.2438
      8  C2        -3.6880  -19.3340   11.8380 C.3   300  PNN300      0.0681
      9  C10       -3.4230  -20.6190   12.5970 C.3   300  PNN300      0.0131
     10  C9        -3.4110  -19.5260   10.3570 C.3   300  PNN300      0.0131
     11  S1        -5.3920  -18.8510   12.0690 S.3   300  PNN300     -0.1184
     12  C5        -5.1210  -18.1150   13.6570 C.3   300  PNN300      0.1529
     13  C6        -5.4750  -16.6040   13.9100 C.3   300  PNN300      0.1995
     14  N14       -6.2750  -15.9190   12.9060 N.am  300  PNN300     -0.1949
     15  C15       -7.5870  -16.1150   12.8110 C.2   300  PNN300      0.2463
     16  O16       -8.1830  -16.9010   13.5250 O.2   300  PNN300     -0.2730
     17  C17       -8.3700  -15.2360   11.8410 C.3   300  PNN300      0.1131
     18  C18       -8.1580  -15.4880   10.3820 C.ar  300  PNN300     -0.0130
     19  C19       -8.8890  -14.7210    9.4730 C.ar  300  PNN300     -0.0038
     20  C20       -8.7230  -14.9090    8.1070 C.ar  300  PNN300     -0.0003
     21  C21       -7.8300  -15.8670    7.6510 C.ar  300  PNN300     -0.0000
     22  C22       -7.1000  -16.6270    8.5570 C.ar  300  PNN300     -0.0003
     23  C23       -7.2630  -16.4400    9.9290 C.ar  300  PNN300     -0.0038
@<TRIPOS>BOND
     1    21    20   ar
     2    21    22   ar
     3    20    19   ar
     4    22    23   ar
     5    19    18   ar
     6    23    18   ar
     7    10     8    1
     8    18    17    1
     9     8    11    1
    10     8     4    1
    11     8     9    1
    12    17    15    1
    13     7     5   ar
    14    11    12    1
    15     4     5    1
    16     4     3    1
    17    15    14   am
    18    15    16    2
    19     5     6   ar
    20    14    13    1
    21     3    12    1
    22     3     2   am
    23    12    13    1
    24     1     2    2
    25     2    13    1
