@<TRIPOS>MOLECULE
3huo_PNK_B_1.pdb
 24 25 0 0 0
SMALL
GASTEIGER

@<TRIPOS>ATOM
      1  C1        52.0980   15.3720  -18.8470 C.3   305  PNK305      0.2236
      2  C2        51.8060   13.8690  -18.9660 C.2   305  PNK305      0.3865
      3  C3        56.5780   19.0280  -18.2800 C.ar  305  PNK305     -0.0038
      4  C4        51.5300   16.2170  -20.0270 C.3   305  PNK305      0.1514
      5  C5        49.4220   16.4900  -21.2340 C.3   305  PNK305      0.1857
      6  C6        50.1940   15.6320  -22.3280 C.3   305  PNK305      0.0658
      7  C7        57.0700   20.0630  -19.0660 C.ar  305  PNK305     -0.0003
      8  C8        56.9800   19.9800  -20.4470 C.ar  305  PNK305     -0.0000
      9  C9        49.3490   17.9580  -21.5490 C.2   305  PNK305      0.3811
     10  C10       56.4050   18.8680  -21.0460 C.ar  305  PNK305     -0.0003
     11  C11       55.9160   17.8340  -20.2540 C.ar  305  PNK305     -0.0038
     12  C12       49.5780   14.2420  -22.4110 C.3   305  PNK305      0.0129
     13  N1        50.0450   16.2300  -19.9050 N.3   305  PNK305     -0.1956
     14  O1        48.3890   18.3280  -22.2600 O.co2 305  PNK305     -0.2441
     15  O2        50.2070   18.7000  -21.0510 O.co2 305  PNK305     -0.2441
     16  O3        52.7640   13.0790  -18.7080 O.co2 305  PNK305     -0.2437
     17  O4        50.6380   13.5400  -19.2490 O.co2 305  PNK305     -0.2437
     18  O5        53.2440   17.6240  -17.6910 O.2   305  PNK305     -0.2730
     19  C16       56.0000   17.9180  -18.8750 C.ar  305  PNK305     -0.0130
     20  C15       55.4770   16.7880  -18.0060 C.3   305  PNK305      0.1131
     21  C14       53.9680   16.7100  -18.1130 C.2   305  PNK305      0.2463
     22  N2        53.5220   15.6100  -18.6830 N.am  305  PNK305     -0.1929
     23  S1        51.8950   15.5320  -21.6790 S.3   305  PNK305     -0.1211
     24  C13       50.1660   16.3330  -23.6930 C.3   305  PNK305      0.0129
@<TRIPOS>BOND
     1    24     6    1
     2    12     6    1
     3     6    23    1
     4     6     5    1
     5    14     9   ar
     6    23     4    1
     7     9     5    1
     8     9    15   ar
     9     5    13    1
    10    10     8   ar
    11    10    11   ar
    12     8     7   ar
    13    11    19   ar
    14     4    13    1
    15     4     1    1
    16    17     2   ar
    17     7     3   ar
    18     2     1    1
    19     2    16   ar
    20    19     3   ar
    21    19    20    1
    22     1    22    1
    23    22    21   am
    24    21    20    1
    25    21    18    2
