@<TRIPOS>MOLECULE
3hus_III_G_1.pdb
 30 31 0 0 0
SMALL
GASTEIGER

@<TRIPOS>ATOM
      1  N         35.3450   -4.8560  -95.1570 N.3     1  GLY1       -0.1210
      2  CA        35.5410   -4.9190  -96.6340 C.3     1  GLY1        0.1940
      3  C         34.5810   -5.8890  -97.2990 C.2     1  GLY1        0.2454
      4  O         33.4660   -6.0870  -96.8120 O.2     1  GLY1       -0.2732
      5  N         35.0070   -6.5020  -98.4200 N.am    2  PRO2       -0.2717
      6  CA        34.1750   -7.4860  -99.1120 C.3     2  PRO2        0.1535
      7  C         34.1790   -8.8420  -98.4060 C.2     2  PRO2        0.2598
      8  O         35.0840   -9.1260  -97.6160 O.2     2  PRO2       -0.2715
      9  CB        34.8400   -7.5970 -100.4840 C.3     2  PRO2        0.0310
     10  CG        36.2680   -7.2760 -100.2360 C.3     2  PRO2        0.0237
     11  CD        36.2920   -6.2780  -99.1120 C.3     2  PRO2        0.0939
     12  N         33.1730   -9.6630  -98.6940 N.am    3  ARG3       -0.1964
     13  CA        33.0640  -10.9970  -98.1040 C.3     3  ARG3        0.1714
     14  C         33.0540  -12.0910  -99.1710 C.2     3  ARG3        0.2459
     15  O         32.3030  -12.0000 -100.1460 O.2     3  ARG3       -0.2730
     16  CB        31.8080  -11.1100  -97.2320 C.3     3  ARG3        0.0347
     17  CG        31.8180  -10.2630  -95.9630 C.3     3  ARG3        0.0492
     18  CD        32.7890  -10.7950  -94.9120 C.3     3  ARG3        0.2205
     19  NE        32.6190  -10.1370  -93.6160 N.pl3   3  ARG3       -0.0865
     20  CZ        33.1760   -8.9770  -93.2730 C.cat   3  ARG3        0.5346
     21  NH1       33.9450   -8.3150  -94.1290 N.pl3   3  ARG3        0.1354
     22  NH2       32.9550   -8.4710  -92.0670 N.pl3   3  ARG3        0.1354
     23  N         33.8950  -13.1280  -98.9930 N.am    4  PRO4       -0.2699
     24  CA        33.8940  -14.2760  -99.8990 C.3     4  PRO4        0.1791
     25  C         32.8280  -15.3080  -99.5290 C.2     4  PRO4        0.3825
     26  O         32.3250  -16.0290 -100.3910 O.co2   4  PRO4       -0.2438
     27  CB        35.2950  -14.8630  -99.7180 C.3     4  PRO4        0.0332
     28  CG        35.6810  -14.5010  -98.3280 C.3     4  PRO4        0.0238
     29  CD        34.9630  -13.2240  -97.9780 C.3     4  PRO4        0.0940
     30  OXT       32.4410  -15.4490  -98.3680 O.co2   4  PRO4       -0.2438
@<TRIPOS>BOND
     1     9    10    1
     2     9     6    1
     3    26    25   ar
     4    10    11    1
     5    15    14    2
     6    24    27    1
     7    24    25    1
     8    24    23    1
     9    27    28    1
    10    25    30   ar
    11    14    23   am
    12    14    13    1
    13     6     5    1
    14     6     7    1
    15    11     5    1
    16    23    29    1
    17    12     7   am
    18    12    13    1
    19     5     3   am
    20     7     8    2
    21    28    29    1
    22    13    16    1
    23     3     4    2
    24     3     2    1
    25    16    17    1
    26     2     1    1
    27    17    18    1
    28    18    19    1
    29    21    20    1
    30    19    20    2
    31    20    22    1
