@<TRIPOS>MOLECULE
3hv0_TRP_A_1.pdb
 15 16 0 0 0
SMALL
GASTEIGER

@<TRIPOS>ATOM
      1  N         22.7870    1.9330   13.9720 N.3     1  TRP1       -0.1205
      2  CA        23.5730    1.8090   12.7090 C.3     1  TRP1        0.1987
      3  C         25.0590    1.7410   13.0280 C.2     1  TRP1        0.3822
      4  O         25.4830    2.1570   14.1220 O.co2   1  TRP1       -0.2440
      5  CB        23.2810    2.9580   11.7230 C.3     1  TRP1        0.0585
      6  CG        22.0470    2.7400   10.8800 C.2     1  TRP1        0.0001
      7  CD1       20.8260    3.3530   11.0270 C.2     1  TRP1        0.0946
      8  CD2       21.9120    1.8650    9.7490 C.2     1  TRP1        0.0113
      9  NE1       19.9560    2.9140   10.0660 N.2     1  TRP1       -0.2442
     10  CE2       20.5900    1.9910    9.2780 C.2     1  TRP1        0.0804
     11  CE3       22.7760    0.9930    9.0930 C.2     1  TRP1       -0.0202
     12  CZ2       20.1150    1.2760    8.1810 C.2     1  TRP1        0.0148
     13  CZ3       22.3000    0.2810    8.0070 C.3     1  TRP1        0.0521
     14  CH2       20.9730    0.4200    7.5680 C.2     1  TRP1       -0.0199
     15  OXT       25.8360    1.2530   12.1860 O.co2   1  TRP1       -0.2440
@<TRIPOS>BOND
     1    14    13    1
     2    14    12    2
     3    13    11    1
     4    12    10    1
     5    11     8    2
     6    10     8    1
     7    10     9    2
     8     8     6    1
     9     9     7    1
    10     6     7    2
    11     6     5    1
    12     5     2    1
    13    15     3   ar
    14     2     3    1
    15     2     1    1
    16     3     4   ar
