@<TRIPOS>MOLECULE
3hv3_R49_A_1.pdb
 38 42 0 0 0
SMALL
GASTEIGER

@<TRIPOS>ATOM
      1  CAA       -1.3720   -9.2630  -14.9900 C.3   361  R49361      0.0311
      2  CBA       -0.8240   -8.5270  -13.7970 C.ar  361  R49361     -0.0204
      3  CAR       -0.2530   -7.2530  -13.9610 C.ar  361  R49361      0.0149
      4  CAI       -0.9280   -9.1350  -12.5380 C.ar  361  R49361     -0.0042
      5  CAG       -0.4180   -8.4730  -11.4230 C.ar  361  R49361      0.0012
      6  CAJ        0.1300   -7.1870  -11.5820 C.ar  361  R49361      0.0192
      7  CBE        0.2230   -6.5620  -12.8270 C.ar  361  R49361      0.0839
      8  NBK        0.8130   -5.3420  -12.8930 N.ar  361  R49361     -0.2145
      9  NAV        1.8900   -5.0520  -12.3070 N.ar  361  R49361     -0.1683
     10  CBG        2.2050   -3.7500  -12.5710 C.ar  361  R49361      0.0811
     11  CBL        3.4570   -3.0030  -12.0130 C.3   361  R49361      0.0372
     12  CAC        4.4680   -3.9750  -11.3900 C.3   361  R49361      0.0060
     13  CAD        4.1840   -2.1340  -13.0660 C.3   361  R49361      0.0060
     14  CAB        2.9620   -2.0730  -10.8860 C.3   361  R49361      0.0060
     15  CAS        1.2300   -3.2410  -13.3600 C.ar  361  R49361      0.0527
     16  CBH        0.3300   -4.2660  -13.5560 C.ar  361  R49361      0.1587
     17  NAX       -0.8250   -4.2850  -14.3110 N.am  361  R49361     -0.1418
     18  CAZ       -1.0730   -3.5830  -15.4760 C.2   361  R49361      0.3491
     19  OAF       -0.2320   -2.8430  -15.9750 O.2   361  R49361     -0.2484
     20  NAW       -2.2930   -3.6750  -16.0410 N.am  361  R49361     -0.1606
     21  CBC       -2.7290   -3.2280  -17.2380 C.ar  361  R49361      0.0751
     22  CAM       -1.8360   -3.2950  -18.3230 C.ar  361  R49361      0.0180
     23  CAO       -2.2080   -2.9410  -19.6470 C.ar  361  R49361      0.0178
     24  CAL       -4.0440   -2.8750  -17.5060 C.ar  361  R49361      0.0180
     25  CAN       -4.4340   -2.5410  -18.8350 C.ar  361  R49361      0.0178
     26  CBD       -3.5370   -2.5600  -19.9070 C.ar  361  R49361      0.0706
     27  NAY       -3.9430   -2.2400  -21.1870 N.pl3 361  R49361     -0.2127
     28  CBF       -3.9750   -1.0100  -21.7130 C.ar  361  R49361      0.0695
     29  CBJ       -4.1680   -0.8320  -23.0880 C.ar  361  R49361      0.0128
     30  CAT       -4.3520   -1.9320  -23.9470 C.3   361  R49361      0.0732
     31  CBB       -4.5560   -1.6980  -25.3140 C.2   361  R49361      0.0673
     32  NAE       -4.7240   -2.7260  -26.1680 N.pl3 361  R49361     -0.1327
     33  CAP       -4.5770   -0.3950  -25.7990 C.2   361  R49361     -0.0058
     34  CAQ       -4.4150    0.6950  -24.9490 C.3   361  R49361      0.0725
     35  CBI       -4.2020    0.4840  -23.5910 C.ar  361  R49361      0.0610
     36  NAU       -4.0510    1.5620  -22.7920 N.ar  361  R49361     -0.2480
     37  CAH       -3.8540    1.4130  -21.4880 C.ar  361  R49361      0.0998
     38  CAK       -3.8200    0.1360  -20.9250 C.ar  361  R49361      0.0368
@<TRIPOS>BOND
     1    32    31    1
     2    33    31    2
     3    33    34    1
     4    31    30    1
     5    34    35    1
     6    30    29    1
     7    35    29   ar
     8    35    36   ar
     9    29    28   ar
    10    36    37   ar
    11    28    27    1
    12    28    38   ar
    13    37    38   ar
    14    27    26    1
    15    26    23   ar
    16    26    25   ar
    17    23    22   ar
    18    25    24   ar
    19    22    21   ar
    20    24    21   ar
    21    21    20    1
    22    20    18   am
    23    19    18    2
    24    18    17   am
    25     1     2    1
    26    17    16    1
    27     3     2   ar
    28     3     7   ar
    29     2     4   ar
    30    16    15   ar
    31    16     8   ar
    32    15    10   ar
    33    13    11    1
    34     8     7    1
    35     8     9   ar
    36     7     6   ar
    37    10     9   ar
    38    10    11    1
    39     4     5   ar
    40    11    12    1
    41    11    14    1
    42     6     5   ar
