@<TRIPOS>MOLECULE
3hv4_L51_A_1.pdb
 38 42 0 0 0
SMALL
GASTEIGER

@<TRIPOS>ATOM
      1  CBJ       12.5160    1.5600    3.5570 C.ar  361  L51361      0.0128
      2  CAT       12.2680    2.4550    2.4860 C.3   361  L51361      0.0732
      3  CBB       12.0630    3.8360    2.7440 C.2   361  L51361      0.0673
      4  NAE       11.8030    4.7160    1.7560 N.pl3 361  L51361     -0.1327
      5  CAN       12.1080    4.3060    4.0650 C.2   361  L51361     -0.0058
      6  CAQ       12.3580    3.4230    5.1230 C.3   361  L51361      0.0725
      7  CBI       12.5490    2.0520    4.8820 C.ar  361  L51361      0.0610
      8  NAU       12.7920    1.2160    5.9200 N.ar  361  L51361     -0.2480
      9  CAH       13.0050   -0.0850    5.7340 C.ar  361  L51361      0.0998
     10  CAM       12.9740   -0.6410    4.4660 C.ar  361  L51361      0.0368
     11  CBF       12.7340    0.1820    3.3610 C.ar  361  L51361      0.0695
     12  NAY       12.7100   -0.3340    2.1300 N.pl3 361  L51361     -0.2126
     13  CBD       12.4260   -1.6330    1.8680 C.ar  361  L51361      0.0718
     14  CAR       13.3610   -2.4430    1.1570 C.ar  361  L51361      0.0331
     15  CAJ       11.2030   -2.1640    2.3000 C.ar  361  L51361      0.0166
     16  CAG       10.9270   -3.4880    2.0130 C.ar  361  L51361      0.0027
     17  CAI       11.8300   -4.2660    1.3030 C.ar  361  L51361      0.0167
     18  CBC       13.0510   -3.7730    0.8690 C.ar  361  L51361      0.0763
     19  NAW       13.8390   -4.6250    0.1940 N.am  361  L51361     -0.1606
     20  CAZ       15.1110   -4.9330    0.3930 C.2   361  L51361      0.3491
     21  OAF       15.7980   -4.4190    1.2780 O.2   361  L51361     -0.2484
     22  NAX       15.5990   -5.8020   -0.4970 N.am  361  L51361     -0.1418
     23  CBH       16.8520   -6.3750   -0.4960 C.ar  361  L51361      0.1587
     24  CAS       17.5880   -6.5910    0.5940 C.ar  361  L51361      0.0527
     25  CBG       18.6660   -7.2440    0.1560 C.ar  361  L51361      0.0811
     26  CBL       19.8480   -7.7200    1.0350 C.3   361  L51361      0.0372
     27  CAC       20.4050   -6.5600    1.8640 C.3   361  L51361      0.0060
     28  CAD       19.3720   -8.8130    1.9860 C.3   361  L51361      0.0060
     29  CAB       20.9030   -8.3130    0.1320 C.3   361  L51361      0.0060
     30  NAV       18.5750   -7.4670   -1.1470 N.ar  361  L51361     -0.1683
     31  NBK       17.5060   -6.9650   -1.5260 N.ar  361  L51361     -0.2145
     32  CBE       17.0690   -7.0600   -2.7960 C.ar  361  L51361      0.0842
     33  CAO       17.2170   -8.3040   -3.4260 C.ar  361  L51361      0.0189
     34  CAK       16.7910   -8.5140   -4.7480 C.ar  361  L51361     -0.0027
     35  CBA       16.1830   -7.4500   -5.4000 C.ar  361  L51361     -0.0218
     36  CAA       15.7090   -7.6360   -6.8290 C.3   361  L51361      0.0310
     37  CAL       16.0090   -6.2120   -4.7690 C.ar  361  L51361     -0.0027
     38  CAP       16.4590   -6.0070   -3.4730 C.ar  361  L51361      0.0189
@<TRIPOS>BOND
     1    36    35    1
     2    35    37   ar
     3    35    34   ar
     4    37    38   ar
     5    34    33   ar
     6    38    32   ar
     7    33    32   ar
     8    32    31    1
     9    31    30   ar
    10    31    23   ar
    11    30    25   ar
    12    22    23    1
    13    22    20   am
    14    23    24   ar
    15    29    26    1
    16    25    24   ar
    17    25    26    1
    18    19    20   am
    19    19    18    1
    20    20    21    2
    21    18    14   ar
    22    18    17   ar
    23    26    27    1
    24    26    28    1
    25    14    13   ar
    26    17    16   ar
    27     4     3    1
    28    13    12    1
    29    13    15   ar
    30    16    15   ar
    31    12    11    1
    32     2     3    1
    33     2     1    1
    34     3     5    2
    35    11     1   ar
    36    11    10   ar
    37     1     7   ar
    38     5     6    1
    39    10     9   ar
    40     7     6    1
    41     7     8   ar
    42     9     8   ar
