@<TRIPOS>MOLECULE
3hv5_R24_A_1.pdb
 40 44 0 0 0
SMALL
GASTEIGER

@<TRIPOS>ATOM
      1  C1        11.8370    3.7140    2.1510 C.2   361  R24361      0.1211
      2  C2        11.7470    4.2910    3.4190 C.2   361  R24361      0.0002
      3  C3        11.8230    3.4910    4.5500 C.3   361  R24361      0.0729
      4  C4        12.0450    2.3280    2.0140 C.3   361  R24361      0.0793
      5  C5        12.1270    1.5230    3.1500 C.ar  361  R24361      0.0131
      6  C6        12.0060    2.1140    4.4190 C.ar  361  R24361      0.0611
      7  C8        12.2810    0.1230    3.0480 C.ar  361  R24361      0.0695
      8  C10       12.3850   -0.5940    4.2410 C.ar  361  R24361      0.0368
      9  C11       12.2760    0.0660    5.4690 C.ar  361  R24361      0.0998
     10  C12       12.2260   -1.8000    1.5690 C.ar  361  R24361      0.0718
     11  C13       13.2190   -2.4970    0.8330 C.ar  361  R24361      0.0331
     12  C14       13.0390   -3.8530    0.5450 C.ar  361  R24361      0.0763
     13  C15       11.8880   -4.5210    1.0080 C.ar  361  R24361      0.0167
     14  N38       11.7400    4.5620    1.0920 N.pl3 361  R24361      0.0536
     15  O40       11.5060    5.8800    1.3500 O.2   361  R24361     -0.1264
     16  O39       11.8470    4.1800   -0.2120 O.2   361  R24361     -0.1264
     17  N7        12.0880    1.3800    5.5290 N.ar  361  R24361     -0.2480
     18  N9        12.3830   -0.4740    1.8230 N.pl3 361  R24361     -0.2126
     19  C17       11.0890   -2.4850    2.0200 C.ar  361  R24361      0.0166
     20  C16       10.9260   -3.8480    1.7580 C.ar  361  R24361      0.0027
     21  N18       13.8790   -4.6330   -0.1550 N.am  361  R24361     -0.1606
     22  C19       15.1410   -4.9080    0.0910 C.2   361  R24361      0.3491
     23  O20       15.7510   -4.4190    1.0370 O.2   361  R24361     -0.2484
     24  N21       15.6800   -5.7480   -0.7960 N.am  361  R24361     -0.1418
     25  C22       16.9110   -6.3110   -0.7910 C.ar  361  R24361      0.1587
     26  C26       17.7020   -6.5180    0.2840 C.ar  361  R24361      0.0527
     27  C25       18.7590   -7.2240   -0.1750 C.ar  361  R24361      0.0811
     28  C27       20.0070   -7.6850    0.6290 C.3   361  R24361      0.0372
     29  C29       19.5130   -8.8420    1.4710 C.3   361  R24361      0.0060
     30  C30       20.5810   -6.5510    1.4890 C.3   361  R24361      0.0060
     31  C28       21.1690   -8.2160   -0.2190 C.3   361  R24361      0.0060
     32  N24       18.5780   -7.4530   -1.4640 N.ar  361  R24361     -0.1683
     33  N23       17.4850   -6.9690   -1.8120 N.ar  361  R24361     -0.2145
     34  C31       17.0400   -7.0990   -3.0650 C.ar  361  R24361      0.0842
     35  C32       16.5300   -6.0280   -3.8010 C.ar  361  R24361      0.0189
     36  C33       16.1000   -6.2260   -5.1210 C.ar  361  R24361     -0.0027
     37  C34       16.1760   -7.4790   -5.7040 C.ar  361  R24361     -0.0218
     38  C37       15.7030   -7.6640   -7.1520 C.3   361  R24361      0.0310
     39  C35       16.6930   -8.5590   -4.9900 C.ar  361  R24361     -0.0027
     40  C36       17.1210   -8.3840   -3.6540 C.ar  361  R24361      0.0189
@<TRIPOS>BOND
     1    38    37    1
     2    37    36   ar
     3    37    39   ar
     4    36    35   ar
     5    39    40   ar
     6    35    34   ar
     7    40    34   ar
     8    34    33    1
     9    33    32   ar
    10    33    25   ar
    11    32    27   ar
    12    24    25    1
    13    24    22   am
    14    25    26   ar
    15    31    28    1
    16    16    14    2
    17    27    26   ar
    18    27    28    1
    19    21    22   am
    20    21    12    1
    21    22    23    2
    22    12    11   ar
    23    12    13   ar
    24    28    29    1
    25    28    30    1
    26    11    10   ar
    27    13    20   ar
    28    14    15    2
    29    14     1    1
    30    10    18    1
    31    10    19   ar
    32    20    19   ar
    33    18     7    1
    34     4     1    1
    35     4     5    1
    36     1     2    2
    37     7     5   ar
    38     7     8   ar
    39     5     6   ar
    40     2     3    1
    41     8     9   ar
    42     6     3    1
    43     6    17   ar
    44     9    17   ar
