@<TRIPOS>MOLECULE
3hv6_R39_A_1.pdb
 35 38 0 0 0
SMALL
GASTEIGER

@<TRIPOS>ATOM
      1  CAR       -2.0120    1.4640  -23.8270 C.3   361  R39361      0.1047
      2  CAO       -2.5000    2.9230  -23.8370 C.3   361  R39361      0.1595
      3  OAX       -1.8250    3.6180  -22.7580 O.3   361  R39361     -0.3508
      4  CAP       -1.9950    3.0320  -21.4490 C.3   361  R39361      0.1595
      5  CAS       -2.8370    1.7390  -21.4820 C.3   361  R39361      0.1047
      6  NBG       -2.3710    0.8140  -22.5430 N.3   361  R39361     -0.2653
      7  CAT       -3.3900   -0.1850  -22.8440 C.3   361  R39361      0.1202
      8  CAQ       -3.1890   -1.3750  -21.9200 C.3   361  R39361      0.2226
      9  OAY       -3.8340   -0.9690  -20.6960 O.3   361  R39361     -0.4740
     10  CBC       -3.3700   -1.6020  -19.5830 C.ar  361  R39361      0.1387
     11  CAK       -3.8830   -1.1840  -18.3690 C.ar  361  R39361      0.0382
     12  CAI       -3.4720   -1.7640  -17.1720 C.ar  361  R39361      0.0198
     13  CAJ       -2.4360   -2.6340  -19.6090 C.ar  361  R39361      0.0382
     14  CAH       -2.0430   -3.2130  -18.4010 C.ar  361  R39361      0.0198
     15  CBB       -2.5560   -2.7840  -17.1760 C.ar  361  R39361      0.0752
     16  NAV       -2.1420   -3.3900  -16.0330 N.am  361  R39361     -0.1606
     17  CAZ       -0.9300   -3.2360  -15.5310 C.2   361  R39361      0.3491
     18  OAE       -0.1320   -2.4430  -16.0430 O.2   361  R39361     -0.2484
     19  NAW       -0.6370   -3.9280  -14.4110 N.am  361  R39361     -0.1418
     20  CBE        0.5380   -3.8750  -13.7500 C.ar  361  R39361      0.1587
     21  CAN        1.3860   -2.8170  -13.5950 C.ar  361  R39361      0.0527
     22  CBF        2.3730   -3.2910  -12.8130 C.ar  361  R39361      0.0811
     23  CBI        3.6330   -2.5570  -12.3120 C.3   361  R39361      0.0372
     24  CAC        4.6380   -3.5080  -11.6490 C.3   361  R39361      0.0060
     25  CAD        4.3450   -1.8880  -13.4730 C.3   361  R39361      0.0060
     26  CAB        3.2070   -1.5190  -11.2450 C.3   361  R39361      0.0060
     27  NAU        2.1160   -4.5740  -12.5110 N.ar  361  R39361     -0.1683
     28  NBH        1.0390   -4.9030  -13.0540 N.ar  361  R39361     -0.2145
     29  CBD        0.4970   -6.1460  -12.9340 C.ar  361  R39361      0.0842
     30  CAL        0.0220   -6.8360  -14.0530 C.ar  361  R39361      0.0189
     31  CAF       -0.5060   -8.1380  -13.9150 C.ar  361  R39361     -0.0027
     32  CBA       -0.5560   -8.7220  -12.6410 C.ar  361  R39361     -0.0218
     33  CAA       -1.1240  -10.1370  -12.4780 C.3   361  R39361      0.0310
     34  CAG       -0.0720   -8.0510  -11.5060 C.ar  361  R39361     -0.0027
     35  CAM        0.4600   -6.7570  -11.6530 C.ar  361  R39361      0.0189
@<TRIPOS>BOND
     1     2     1    1
     2     2     3    1
     3     1     6    1
     4     7     6    1
     5     7     8    1
     6     3     4    1
     7     6     5    1
     8     8     9    1
     9     5     4    1
    10     9    10    1
    11    13    10   ar
    12    13    14   ar
    13    10    11   ar
    14    14    15   ar
    15    11    12   ar
    16    15    12   ar
    17    15    16    1
    18    18    17    2
    19    16    17   am
    20    17    19   am
    21    19    20    1
    22    30    31   ar
    23    30    29   ar
    24    31    32   ar
    25    20    21   ar
    26    20    28   ar
    27    21    22   ar
    28    25    23    1
    29    28    29    1
    30    28    27   ar
    31    29    35   ar
    32    22    27   ar
    33    22    23    1
    34    32    33    1
    35    32    34   ar
    36    23    24    1
    37    23    26    1
    38    35    34   ar
