@<TRIPOS>MOLECULE
3hv7_1AU_A_1.pdb
 30 33 0 0 0
SMALL
GASTEIGER

@<TRIPOS>ATOM
      1  CBB       -3.7950   -2.0250  -17.2150 C.ar  361  1AU361      0.0154
      2  CAO       -4.4310   -1.8120  -15.9790 C.ar  361  1AU361      0.0013
      3  CAG       -5.5240   -0.9700  -15.9320 C.ar  361  1AU361      0.0000
      4  CAF       -6.0270   -0.3810  -17.1030 C.ar  361  1AU361      0.0000
      5  CAM       -5.4080   -0.5830  -18.3090 C.ar  361  1AU361      0.0000
      6  CBA       -4.2820   -1.4030  -18.3790 C.ar  361  1AU361      0.0013
      7  CAN       -3.6660   -1.5850  -19.6070 C.ar  361  1AU361      0.0001
      8  CAI       -2.5350   -2.4050  -19.6630 C.ar  361  1AU361      0.0013
      9  CAL       -2.0350   -3.0080  -18.5050 C.ar  361  1AU361      0.0166
     10  CAX       -2.6680   -2.8250  -17.2650 C.ar  361  1AU361      0.0749
     11  NAS       -2.2000   -3.4440  -16.1520 N.am  361  1AU361     -0.1606
     12  CAU       -0.9550   -3.3050  -15.7190 C.2   361  1AU361      0.3491
     13  OAE       -0.1350   -2.5600  -16.2810 O.2   361  1AU361     -0.2484
     14  NAT       -0.6520   -4.0450  -14.6440 N.am  361  1AU361     -0.1418
     15  CAZ        0.5220   -4.0250  -13.9850 C.ar  361  1AU361      0.1587
     16  CAQ        1.3380   -2.9740  -13.7940 C.ar  361  1AU361      0.0527
     17  CAY        2.3360   -3.4650  -12.9980 C.ar  361  1AU361      0.0811
     18  CBD        3.5940   -2.7060  -12.4840 C.3   361  1AU361      0.0372
     19  CAB        3.1400   -1.7040  -11.3760 C.3   361  1AU361      0.0060
     20  CAC        4.7110   -3.6360  -11.9670 C.3   361  1AU361      0.0060
     21  CAA        4.2600   -1.9790  -13.6320 C.3   361  1AU361      0.0060
     22  NAR        2.0940   -4.7520  -12.7310 N.ar  361  1AU361     -0.1683
     23  NBC        1.0090   -5.0680  -13.2880 N.ar  361  1AU361     -0.2145
     24  CAW        0.4680   -6.3200  -13.2110 C.ar  361  1AU361      0.0856
     25  CAP        0.0370   -7.0650  -14.3420 C.ar  361  1AU361      0.0372
     26  CAK        0.4130   -6.9230  -11.9520 C.ar  361  1AU361      0.0193
     27  CAH       -0.1030   -8.2120  -11.7860 C.ar  361  1AU361      0.0029
     28  CAJ       -0.5300   -8.9420  -12.9030 C.ar  361  1AU361      0.0182
     29  CAV       -0.4730   -8.3730  -14.1700 C.ar  361  1AU361      0.0906
     30  NAD       -0.9270   -9.0970  -15.1870 N.pl3 361  1AU361     -0.1280
@<TRIPOS>BOND
     1     8     7   ar
     2     8     9   ar
     3     7     6   ar
     4     9    10   ar
     5     6     5   ar
     6     6     1   ar
     7     5     4   ar
     8    10     1   ar
     9    10    11    1
    10     1     2   ar
    11     4     3   ar
    12    13    12    2
    13    11    12   am
    14     2     3   ar
    15    12    14   am
    16    30    29    1
    17    14    15    1
    18    25    29   ar
    19    25    24   ar
    20    29    28   ar
    21    15    16   ar
    22    15    23   ar
    23    16    17   ar
    24    21    18    1
    25    23    24    1
    26    23    22   ar
    27    24    26   ar
    28    17    22   ar
    29    17    18    1
    30    28    27   ar
    31    18    20    1
    32    18    19    1
    33    26    27   ar
