@<TRIPOS>MOLECULE
3hv8_C2E_A_1.pdb
 46 52 0 0 0
SMALL
GASTEIGER

@<TRIPOS>ATOM
      1  P1       -27.6550   -1.4580  -15.2170 P.3   900  C2E900      0.2141
      2  O2P      -28.5730   -0.3880  -14.4650 O.3   900  C2E900     -0.4373
      3  O1P      -27.9830   -1.3500  -16.6530 O.2   900  C2E900     -0.5172
      4  O5'      -26.0930   -1.1470  -15.1600 O.3   900  C2E900     -0.3114
      5  C5'      -25.5750   -0.1740  -16.0880 C.3   900  C2E900      0.1812
      6  C4'      -24.9600   -0.7960  -17.3600 C.3   900  C2E900      0.1771
      7  O4'      -24.4100    0.2680  -18.1740 O.3   900  C2E900     -0.3327
      8  C3'      -23.7610   -1.6060  -16.8840 C.3   900  C2E900      0.1857
      9  O3'      -23.6360   -2.7860  -17.6920 O.3   900  C2E900     -0.3112
     10  C2'      -22.5620   -0.6400  -17.0340 C.3   900  C2E900      0.2282
     11  O2'      -21.3320   -1.2950  -17.2810 O.3   900  C2E900     -0.2159
     12  C1'      -22.9960    0.1650  -18.2590 C.3   900  C2E900      0.2292
     13  N9       -22.4350    1.5050  -18.3410 N.pl3 900  C2E900     -0.2354
     14  C8       -21.8560    2.2310  -17.3270 C.3   900  C2E900      0.2246
     15  N7       -21.6340    3.4590  -17.7370 N.2   900  C2E900     -0.2322
     16  C5       -22.0410    3.5650  -19.0360 C.2   900  C2E900      0.2182
     17  C6       -22.0380    4.6210  -19.9750 C.1   900  C2E900      0.2372
     18  O6       -21.6550    5.7600  -19.7010 O.2   900  C2E900     -0.2069
     19  N1       -22.5100    4.3400  -21.1980 N.2   900  C2E900     -0.2485
     20  C2       -22.9690    3.1030  -21.5290 C.1   900  C2E900      0.2531
     21  N2       -23.4410    2.8950  -22.7990 N.pl3 900  C2E900     -0.0226
     22  N3       -22.9780    2.1130  -20.6670 N.2   900  C2E900     -0.3074
     23  C4       -22.5320    2.3200  -19.4270 C.2   900  C2E900      0.2300
     24  P11      -23.3530   -4.1700  -16.9210 P.3   900  C2E900      0.2141
     25  O21      -23.1800   -5.2930  -18.0100 O.2   900  C2E900     -0.5172
     26  O11      -22.2310   -4.0300  -15.9710 O.3   900  C2E900     -0.4373
     27  O5A      -24.6600   -4.4130  -16.0560 O.3   900  C2E900     -0.3114
     28  C5A      -25.9140   -4.5930  -16.7280 C.3   900  C2E900      0.1812
     29  C4A      -27.0060   -4.9780  -15.7330 C.3   900  C2E900      0.1771
     30  O4A      -26.6530   -6.2170  -15.1000 O.3   900  C2E900     -0.3327
     31  C3A      -27.1990   -3.9900  -14.5810 C.3   900  C2E900      0.1857
     32  O3A      -28.1030   -2.9400  -14.9020 O.3   900  C2E900     -0.3112
     33  C2A      -27.8830   -4.8890  -13.5490 C.3   900  C2E900      0.2282
     34  O2A      -29.2610   -5.0980  -13.9040 O.3   900  C2E900     -0.2159
     35  C1A      -27.1730   -6.2270  -13.7860 C.3   900  C2E900      0.2292
     36  N91      -26.0670   -6.3450  -12.8440 N.pl3 900  C2E900     -0.2354
     37  C81      -24.7720   -5.9360  -12.9910 C.3   900  C2E900      0.2246
     38  N71      -24.1150   -6.2410  -11.9060 N.2   900  C2E900     -0.2322
     39  C51      -24.9320   -6.9190  -11.0450 C.2   900  C2E900      0.2182
     40  C61      -24.7910   -7.5190   -9.7770 C.1   900  C2E900      0.2372
     41  O61      -23.7610   -7.4320   -9.0970 O.2   900  C2E900     -0.2069
     42  N11      -25.9020   -8.1230   -9.2800 N.2   900  C2E900     -0.2485
     43  C21      -27.0940   -8.1670   -9.9510 C.1   900  C2E900      0.2531
     44  N21      -28.1740   -8.7580   -9.3590 N.pl3 900  C2E900     -0.0226
     45  N31      -27.2490   -7.5930  -11.1150 N.2   900  C2E900     -0.3074
     46  C41      -26.1870   -6.9940  -11.6660 C.2   900  C2E900      0.2300
@<TRIPOS>BOND
     1    21    20    1
     2    20    19    2
     3    20    22    2
     4    19    17    2
     5    22    23    2
     6    17    18    2
     7    17    16    1
     8    23    16    1
     9    23    13    1
    10    16    15    2
    11    13    12    1
    12    13    14    1
    13    12     7    1
    14    12    10    1
    15     7     6    1
    16    25    24    2
    17    15    14    1
    18     9    24    1
    19     9     8    1
    20     6     8    1
    21     6     5    1
    22    11    10    1
    23    10     8    1
    24    24    27    1
    25    24    26    1
    26    28    27    1
    27    28    29    1
    28     3     1    2
    29     5     4    1
    30    29    30    1
    31    29    31    1
    32     1     4    1
    33     1    32    1
    34     1     2    1
    35    30    35    1
    36    32    31    1
    37    31    33    1
    38    34    33    1
    39    35    33    1
    40    35    36    1
    41    37    36    1
    42    37    38    1
    43    36    46    1
    44    38    39    2
    45    46    45    2
    46    46    39    1
    47    45    43    2
    48    39    40    1
    49    43    44    1
    50    43    42    2
    51    40    42    2
    52    40    41    2
