@<TRIPOS>MOLECULE
3hvc_GG5_A_1.pdb
 18 20 0 0 0
SMALL
GASTEIGER

@<TRIPOS>ATOM
      1  C1        -3.3020   40.0520   15.6620 C.ar  361  GG5361      0.0986
      2  N2        -3.1500   41.0850   16.5710 N.ar  361  GG5361     -0.2423
      3  C3        -2.8580   40.7750   17.8920 C.ar  361  GG5361      0.0986
      4  C4        -2.7000   39.3370   18.3600 C.ar  361  GG5361      0.0171
      5  C5        -2.8680   38.2750   17.3730 C.ar  361  GG5361     -0.0081
      6  C6        -3.1750   38.6660   16.0010 C.ar  361  GG5361      0.0171
      7  C7        -2.7270   36.8210   17.7660 C.3   361  GG5361      0.1074
      8  C8        -2.0110   35.8860   17.0070 C.2   361  GG5361      0.1057
      9  N9        -2.1050   34.7180   17.6560 N.2   361  GG5361     -0.1507
     10  N11       -2.8270   34.8180   18.7800 N.2   361  GG5361     -0.1519
     11  C12       -3.2260   36.0750   18.8900 C.2   361  GG5361      0.0899
     12  C13       -4.0780   36.5300   20.0860 C.ar  361  GG5361      0.0161
     13  C14       -3.5970   36.2530   21.4130 C.ar  361  GG5361      0.0036
     14  C15       -4.3370   36.6620   22.5630 C.ar  361  GG5361      0.0297
     15  C16       -5.5830   37.3620   22.3940 C.ar  361  GG5361      0.1401
     16  C17       -6.0850   37.6450   21.0910 C.ar  361  GG5361      0.0297
     17  C18       -5.3420   37.2350   19.9410 C.ar  361  GG5361      0.0036
     18  F19       -6.2570   37.7450   23.4600 F     361  GG5361     -0.2042
@<TRIPOS>BOND
     1     1     6   ar
     2     1     2   ar
     3     6     5   ar
     4     2     3   ar
     5     8     9    2
     6     8     7    1
     7     5     7    1
     8     5     4   ar
     9     9    10    1
    10     7    11    1
    11     3     4   ar
    12    10    11    2
    13    11    12    1
    14    17    12   ar
    15    17    16   ar
    16    12    13   ar
    17    16    15   ar
    18    13    14   ar
    19    15    14   ar
    20    15    18    1
