@<TRIPOS>MOLECULE
3hvf_PNK_A_1.pdb
 24 25 0 0 0
SMALL
GASTEIGER

@<TRIPOS>ATOM
      1  C1        -5.0820  -17.0340   13.6880 C.3   301  PNK301      0.2236
      2  C2        -3.8360  -16.3440   14.2190 C.2   301  PNK301      0.3865
      3  C3        -9.1750  -14.9620    9.8040 C.ar  301  PNK301     -0.0038
      4  C4        -4.7440  -18.2690   12.8330 C.3   301  PNK301      0.1514
      5  C5        -2.9040  -19.3450   11.5700 C.3   301  PNK301      0.1857
      6  C6        -3.4190  -20.5250   12.4370 C.3   301  PNK301      0.0658
      7  C7        -9.3040  -15.2280    8.4440 C.ar  301  PNK301     -0.0003
      8  C8        -8.3620  -16.0260    7.7990 C.ar  301  PNK301     -0.0000
      9  C9        -1.3850  -19.2590   11.4720 C.2   301  PNK301      0.3811
     10  C10       -7.2920  -16.5500    8.5090 C.ar  301  PNK301     -0.0003
     11  C11       -7.1610  -16.2810    9.8680 C.ar  301  PNK301     -0.0038
     12  C12       -4.3860  -21.3980   11.6130 C.3   301  PNK301      0.0129
     13  N1        -3.4840  -18.0820   12.1110 N.3   301  PNK301     -0.1956
     14  O1        -0.8620  -19.8790   10.5250 O.co2 301  PNK301     -0.2441
     15  O2        -0.8010  -18.5380   12.3090 O.co2 301  PNK301     -0.2441
     16  O3        -3.4570  -15.3130   13.6530 O.co2 301  PNK301     -0.2437
     17  O4        -3.3010  -16.8540   15.2210 O.co2 301  PNK301     -0.2437
     18  O5        -7.8310  -17.1700   13.3500 O.2   301  PNK301     -0.2730
     19  C16       -8.1160  -15.5100   10.5160 C.ar  301  PNK301     -0.0130
     20  C15       -7.9790  -15.1730   11.9980 C.3   301  PNK301      0.1131
     21  C14       -7.2260  -16.2540   12.7980 C.2   301  PNK301      0.2463
     22  N2        -5.9090  -16.0870   12.9140 N.am  301  PNK301     -0.1929
     23  S1        -4.4000  -19.7720   13.7880 S.3   301  PNK301     -0.1211
     24  C13       -2.2910  -21.3570   13.0340 C.3   301  PNK301      0.0129
@<TRIPOS>BOND
     1     8     7   ar
     2     8    10   ar
     3     7     3   ar
     4    10    11   ar
     5     3    19   ar
     6    11    19   ar
     7    19    20    1
     8    14     9   ar
     9     9     5    1
    10     9    15   ar
    11     5    13    1
    12     5     6    1
    13    12     6    1
    14    20    21    1
    15    13     4    1
    16     6    24    1
    17     6    23    1
    18    21    22   am
    19    21    18    2
    20     4     1    1
    21     4    23    1
    22    22     1    1
    23    16     2   ar
    24     1     2    1
    25     2    17   ar
