@<TRIPOS>MOLECULE
3hvg_EV0_A_1.pdb
 11 11 0 0 0
SMALL
GASTEIGER

@<TRIPOS>ATOM
      1  O11      -59.0730  -40.8190   39.7120 O.2   441  EV0441     -0.2130
      2  C3       -59.9320  -40.1200   39.2270 C.1   441  EV0441      0.1988
      3  C1       -61.3210  -40.5920   39.1410 C.3   441  EV0441      0.1905
      4  N5       -59.6120  -38.8610   38.7460 N.2   441  EV0441     -0.2540
      5  C6       -60.5830  -38.0420   38.1870 C.1   441  EV0441      0.2509
      6  N7       -60.2320  -36.7970   37.7220 N.pl3 441  EV0441     -0.0226
      7  N4       -61.8220  -38.4400   38.0980 N.2   441  EV0441     -0.3330
      8  C2       -62.2310  -39.7750   38.5890 C.2   441  EV0441      0.1181
      9  C8       -63.6800  -40.1870   38.4620 C.3   441  EV0441      0.0566
     10  C9       -64.3250  -40.3480   39.8400 C.3   441  EV0441      0.0071
     11  C10      -65.7920  -40.7540   39.6750 C.3   441  EV0441      0.0004
@<TRIPOS>BOND
     1     6     5    1
     2     7     5    2
     3     7     8    2
     4     5     4    2
     5     9     8    1
     6     9    10    1
     7     8     3    1
     8     4     2    2
     9     3     2    1
    10     2     1    2
    11    11    10    1
