@<TRIPOS>MOLECULE
3hvh_542_A_1.pdb
 39 43 0 0 0
SMALL
GASTEIGER

@<TRIPOS>ATOM
      1  F30        0.4200    7.1920   17.8970 F       1  5421       -0.2042
      2  C29        0.4370    8.3950   17.2250 C.ar    1  5421        0.1401
      3  C26       -0.4320    9.3530   17.6260 C.ar    1  5421        0.0296
      4  C25       -0.4210   10.5620   16.9540 C.ar    1  5421        0.0023
      5  C28        1.3680    8.5560   16.2460 C.ar    1  5421        0.0296
      6  C27        1.3730    9.8150   15.5940 C.ar    1  5421        0.0023
      7  C24        0.5040   10.8360   15.9690 C.ar    1  5421        0.0002
      8  C22        0.5080   12.1470   15.3060 C.ar    1  5421        0.0035
      9  C21       -0.7000   12.8170   15.0070 C.ar    1  5421        0.0080
     10  C23        1.7410   12.6700   14.8020 C.ar    1  5421        0.0454
     11  C33        1.7470   13.9030   14.1440 C.ar    1  5421        0.2344
     12  O34        2.9330   14.4370   13.6730 O.3     1  5421       -0.2831
     13  C31        0.5420   14.5840   13.8960 C.ar    1  5421        0.2386
     14  O32        0.6520   15.7280   13.1470 O.3     1  5421       -0.2830
     15  C20       -0.7000   14.0760   14.3560 C.ar    1  5421        0.0971
     16  C18       -1.9750   14.7040   14.1600 C.2     1  5421        0.2683
     17  O19       -3.0450   14.1430   14.3680 O.2     1  5421       -0.2682
     18  N17       -1.9440   16.0300   13.8330 N.am    1  5421       -0.1967
     19  C16       -3.1650   16.7910   13.7320 C.3     1  5421        0.1413
     20  C15       -2.8120   18.2320   13.8430 C.2     1  5421       -0.0049
     21  C14       -3.6030   19.1310   14.3940 C.2     1  5421        0.0028
     22  C6        -3.2560   20.5670   14.5080 C.3     1  5421        0.1740
     23  C4        -3.8830   21.1510   15.7700 C.3     1  5421        0.2201
     24  O5        -3.1280   22.2950   16.2230 O.3     1  5421       -0.2172
     25  C2        -5.2430   21.5670   15.2120 C.3     1  5421        0.2572
     26  O3        -5.9560   22.5370   15.9990 O.3     1  5421       -0.2130
     27  O13       -3.7730   21.3600   13.4000 O.3     1  5421       -0.3116
     28  C1        -4.9240   22.1330   13.8660 C.3     1  5421        0.3188
     29  N10       -5.9530   21.9470   12.8430 N.pl3   1  5421       -0.1438
     30  C9        -6.5730   20.7570   12.4980 C.3     1  5421        0.3377
     31  C11       -6.3580   22.8760   11.9140 C.2     1  5421        0.3517
     32  N40       -6.0040   24.1750   11.8440 N.2     1  5421       -0.0055
     33  C39       -6.5530   24.8070   10.8150 C.3     1  5421        0.5253
     34  N38       -7.4130   24.2760    9.9260 N.2     1  5421       -0.0020
     35  C35       -7.7600   23.0150   10.0500 C.2     1  5421        0.3856
     36  C12       -7.2250   22.2190   11.0710 C.2     1  5421        0.2478
     37  N8        -7.3260   20.8860   11.4400 N.2     1  5421       -0.2097
     38  N7        -8.6530   22.5580    9.0920 N.pl3   1  5421       -0.0252
     39  C36       -9.1370   21.1810    9.0910 C.3     1  5421        0.3062
@<TRIPOS>BOND
     1    39    38    1
     2    38    35    1
     3    34    35    2
     4    34    33    1
     5    35    36    1
     6    33    32    1
     7    36    37    2
     8    36    31    1
     9    37    30    1
    10    32    31    2
    11    31    29    1
    12    30    29    1
    13    29    28    1
    14    14    13    1
    15    27    28    1
    16    27    22    1
    17    12    11    1
    18    19    18    1
    19    19    20    1
    20    18    16   am
    21    20    21    2
    22    28    25    1
    23    13    11   ar
    24    13    15   ar
    25    11    10   ar
    26    16    15    1
    27    16    17    2
    28    15     9   ar
    29    21    22    1
    30    22    23    1
    31    10     8   ar
    32     9     8   ar
    33    25    23    1
    34    25    26    1
    35     8     7    1
    36     6     7   ar
    37     6     5   ar
    38    23    24    1
    39     7     4   ar
    40     5     2   ar
    41     4     3   ar
    42     2     3   ar
    43     2     1    1
