@<TRIPOS>MOLECULE
3hvi_619_A_1.pdb
 40 44 0 0 0
SMALL
GASTEIGER

@<TRIPOS>ATOM
      1  F30        0.6320    7.2750   18.2980 F     267  619267     -0.2042
      2  C29        0.6360    8.4420   17.6000 C.ar  267  619267      0.1401
      3  C26       -0.2340    9.4700   17.9320 C.ar  267  619267      0.0296
      4  C25       -0.2110   10.6250   17.2020 C.ar  267  619267      0.0023
      5  C28        1.5660    8.5670   16.5680 C.ar  267  619267      0.0296
      6  C27        1.5730    9.7580   15.8500 C.ar  267  619267      0.0023
      7  C24        0.7120   10.8130   16.1750 C.ar  267  619267      0.0002
      8  C22        0.7400   12.0880   15.4140 C.ar  267  619267      0.0035
      9  C21       -0.4330   12.7650   15.1370 C.ar  267  619267      0.0080
     10  C23        1.9610   12.6280   14.9490 C.ar  267  619267      0.0454
     11  C33        1.9890   13.8430   14.2630 C.ar  267  619267      0.2344
     12  O34        3.1590   14.3600   13.8010 O.3   267  619267     -0.2831
     13  C31        0.7850   14.5210   13.9540 C.ar  267  619267      0.2386
     14  O32        0.9130   15.6510   13.2420 O.3   267  619267     -0.2830
     15  C20       -0.4020   13.9780   14.4210 C.ar  267  619267      0.0971
     16  C18       -1.7250   14.6530   14.2200 C.2   267  619267      0.2683
     17  O19       -2.7880   14.0340   14.3890 O.2   267  619267     -0.2682
     18  N17       -1.7100   15.9160   13.8290 N.am  267  619267     -0.1967
     19  C16       -2.9620   16.6640   13.7430 C.3   267  619267      0.1413
     20  C15       -2.6470   18.1270   13.9340 C.2   267  619267     -0.0049
     21  C14       -3.4550   18.9640   14.5330 C.2   267  619267      0.0028
     22  C6        -3.1100   20.4340   14.7060 C.3   267  619267      0.1740
     23  C4        -3.7450   21.0160   15.9800 C.3   267  619267      0.2201
     24  O5        -3.0570   22.1290   16.4710 O.3   267  619267     -0.2172
     25  C2        -5.1280   21.3780   15.4300 C.3   267  619267      0.2572
     26  O3        -5.8910   22.2750   16.2120 O.3   267  619267     -0.2130
     27  O13       -3.6320   21.2100   13.6160 O.3   267  619267     -0.3116
     28  C1        -4.7910   21.9050   14.0440 C.3   267  619267      0.3188
     29  N10       -5.8360   21.7220   13.0610 N.pl3 267  619267     -0.1438
     30  C9        -6.3500   20.4760   12.6410 C.3   267  619267      0.3377
     31  C11       -6.2130   22.6340   12.0970 C.2   267  619267      0.3517
     32  N40       -5.9180   23.9440   12.0380 N.2   267  619267     -0.0055
     33  C39       -6.3960   24.5940   10.9800 C.3   267  619267      0.5253
     34  N38       -7.1620   24.0100   10.0300 N.2   267  619267     -0.0020
     35  C35       -7.5000   22.7030   10.1200 C.2   267  619267      0.3855
     36  C12       -7.0010   21.9220   11.1610 C.2   267  619267      0.2478
     37  N8        -7.0970   20.6010   11.5510 N.2   267  619267     -0.2097
     38  N7        -8.2840   22.2470    9.1090 N.pl3 267  619267     -0.0300
     39  C36       -8.9600   20.9470    9.0880 C.3   267  619267      0.2514
     40  C37      -10.1910   20.9520    9.9410 C.3   267  619267      0.0598
@<TRIPOS>BOND
     1    39    38    1
     2    39    40    1
     3    38    35    1
     4    34    35    2
     5    34    33    1
     6    35    36    1
     7    33    32    1
     8    36    37    2
     9    36    31    1
    10    37    30    1
    11    32    31    2
    12    31    29    1
    13    30    29    1
    14    29    28    1
    15    14    13    1
    16    27    28    1
    17    27    22    1
    18    19    18    1
    19    19    20    1
    20    12    11    1
    21    18    16   am
    22    20    21    2
    23    13    11   ar
    24    13    15   ar
    25    28    25    1
    26    16    17    2
    27    16    15    1
    28    11    10   ar
    29    15     9   ar
    30    21    22    1
    31    22    23    1
    32    10     8   ar
    33     9     8   ar
    34     8     7    1
    35    25    23    1
    36    25    26    1
    37     6     7   ar
    38     6     5   ar
    39    23    24    1
    40     7     4   ar
    41     5     2   ar
    42     4     3   ar
    43     2     3   ar
    44     2     1    1
