@<TRIPOS>MOLECULE
3hvj_705_A_1.pdb
 41 45 0 0 0
SMALL
GASTEIGER

@<TRIPOS>ATOM
      1  F30       -3.1930   12.2160  -37.1560 F       1  7051       -0.2042
      2  C29       -4.2890   11.9670  -36.4110 C.ar    1  7051        0.1401
      3  C26       -5.5420   12.2800  -36.9540 C.ar    1  7051        0.0296
      4  C25       -6.7220   12.0200  -36.2060 C.ar    1  7051        0.0023
      5  C28       -4.1200   11.4120  -35.1380 C.ar    1  7051        0.0296
      6  C27       -5.2800   11.1820  -34.4010 C.ar    1  7051        0.0023
      7  C24       -6.5850   11.4800  -34.9120 C.ar    1  7051        0.0002
      8  C22       -7.7440   11.1680  -34.0810 C.ar    1  7051        0.0035
      9  C21       -8.8520   12.0190  -34.0520 C.ar    1  7051        0.0080
     10  C23       -7.7340    9.9820  -33.2790 C.ar    1  7051        0.0454
     11  C33       -8.8440    9.7040  -32.4760 C.ar    1  7051        0.2344
     12  O34       -8.8940    8.5470  -31.7090 O.3     1  7051       -0.2831
     13  C31       -9.9390   10.5770  -32.4620 C.ar    1  7051        0.2386
     14  O32      -10.9680   10.2610  -31.6370 O.3     1  7051       -0.2830
     15  C20       -9.9360   11.7510  -33.2260 C.ar    1  7051        0.0971
     16  C18      -11.0430   12.7150  -33.2990 C.2     1  7051        0.2683
     17  O19      -10.9420   13.8490  -33.7980 O.2     1  7051       -0.2682
     18  N17      -12.2630   12.3460  -32.8470 N.am    1  7051       -0.1967
     19  C16      -13.4190   13.2690  -32.8910 C.3     1  7051        0.1413
     20  C15      -14.6310   12.3950  -32.7800 C.2     1  7051       -0.0049
     21  C14      -15.8180   12.7370  -33.3040 C.2     1  7051        0.0028
     22  C6       -17.0090   11.8370  -33.2080 C.3     1  7051        0.1740
     23  C4       -17.7770   11.9090  -34.5350 C.3     1  7051        0.2201
     24  O5       -18.6050   10.7430  -34.6530 O.3     1  7051       -0.2172
     25  C2       -18.5530   13.2320  -34.3330 C.3     1  7051        0.2572
     26  O3       -19.7300   13.2620  -35.0950 O.3     1  7051       -0.2130
     27  O13      -17.8930   12.3770  -32.2250 O.3     1  7051       -0.3116
     28  C1       -18.9550   13.1150  -32.8890 C.3     1  7051        0.3188
     29  N10      -19.0650   14.3670  -32.1380 N.pl3   1  7051       -0.1438
     30  C9       -18.1100   15.3980  -32.0640 C.3     1  7051        0.3377
     31  C11      -20.0580   14.7340  -31.2310 C.2     1  7051        0.3517
     32  N40      -21.1920   14.0570  -30.9220 N.2     1  7051       -0.0055
     33  C39      -21.9820   14.6420  -30.0200 C.3     1  7051        0.5253
     34  N38      -21.7040   15.8230  -29.4320 N.2     1  7051       -0.0020
     35  C35      -20.5760   16.4760  -29.7420 C.2     1  7051        0.3855
     36  C12      -19.6870   15.9360  -30.7070 C.2     1  7051        0.2478
     37  N8       -18.4960   16.3330  -31.2320 N.2     1  7051       -0.2097
     38  N7       -20.4080   17.6870  -29.1050 N.pl3   1  7051       -0.0300
     39  C36      -19.3090   18.5880  -29.4830 C.3     1  7051        0.2512
     40  C37      -19.9650   19.4490  -30.5890 C.3     1  7051        0.0554
     41  C41      -19.2310   20.8090  -30.6630 C.3     1  7051        0.0045
@<TRIPOS>BOND
     1     1     2    1
     2     3     2   ar
     3     3     4   ar
     4     2     5   ar
     5     4     7   ar
     6     5     6   ar
     7    26    25    1
     8     7     6   ar
     9     7     8    1
    10    24    23    1
    11    23    25    1
    12    23    22    1
    13    25    28    1
    14     8     9   ar
    15     8    10   ar
    16     9    15   ar
    17    17    16    2
    18    21    22    1
    19    21    20    2
    20    16    15    1
    21    16    18   am
    22    10    11   ar
    23    15    13   ar
    24    22    27    1
    25    19    18    1
    26    19    20    1
    27    28    27    1
    28    28    29    1
    29    11    13   ar
    30    11    12    1
    31    13    14    1
    32    29    30    1
    33    29    31    1
    34    30    37    1
    35    37    36    2
    36    31    32    2
    37    31    36    1
    38    32    33    1
    39    36    35    1
    40    41    40    1
    41    40    39    1
    42    33    34    1
    43    35    34    2
    44    35    38    1
    45    39    38    1
