@<TRIPOS>MOLECULE
3hvk_719_A_1.pdb
 41 45 0 0 0
SMALL
GASTEIGER

@<TRIPOS>ATOM
      1  N1        -5.7990   21.6500   12.8170 N.pl3 267  719267     -0.1438
      2  C2        -4.7620   21.8080   13.8170 C.3   267  719267      0.3188
      3  C3        -6.1870   22.5890   11.8910 C.2   267  719267      0.3517
      4  C4        -7.0560   21.9490   11.0440 C.2   267  719267      0.2478
      5  N5        -7.2440   20.6490   11.4360 N.2   267  719267     -0.2097
      6  C6        -5.1190   21.2230   15.1750 C.3   267  719267      0.2572
      7  C7        -0.4730   13.9040   14.3510 C.ar  267  719267      0.0971
      8  C8        -6.4750   20.4790   12.4790 C.3   267  719267      0.3377
      9  O9        -3.6530   21.0220   13.3530 O.3   267  719267     -0.3116
     10  C10       -3.7400   20.8630   15.7380 C.3   267  719267      0.2201
     11  C11        0.7520   14.4490   13.8250 C.ar  267  719267      0.2386
     12  C12       -0.4610   12.7300   15.0470 C.ar  267  719267      0.0080
     13  C13       -3.1320   20.2690   14.4850 C.3   267  719267      0.1740
     14  C14       -1.7510   14.5650   14.1870 C.2   267  719267      0.2683
     15  N15       -5.7790   23.8410   11.7910 N.2   267  719267     -0.0055
     16  C16        0.7400   12.0060   15.3010 C.ar  267  719267      0.0035
     17  C17        1.9770   13.7300   14.0990 C.ar  267  719267      0.2344
     18  C18        1.9380   12.5040   14.8410 C.ar  267  719267      0.0454
     19  C19       -7.5590   22.7350   10.0010 C.2   267  719267      0.3856
     20  N20       -7.1620   23.9880    9.8710 N.2   267  719267     -0.0020
     21  C21       -6.2880   24.5100   10.7730 C.3   267  719267      0.5253
     22  C22        0.6970   10.7710   16.0690 C.ar  267  719267      0.0002
     23  C23       -3.5080   18.8290   14.3730 C.2   267  719267      0.0028
     24  O24       -2.8190   13.9860   14.4690 O.2   267  719267     -0.2682
     25  O25       -5.8510   22.1920   15.9300 O.3   267  719267     -0.2130
     26  N26       -1.8060   15.8040   13.6620 N.am  267  719267     -0.1967
     27  C27       -2.7610   17.9590   13.7490 C.2   267  719267     -0.0049
     28  C28        1.5330    9.6890   15.7390 C.ar  267  719267      0.0023
     29  C29       -0.2330   10.6430   17.1200 C.ar  267  719267      0.0023
     30  O30       -2.9660   21.9620   16.1770 O.3   267  719267     -0.2172
     31  O31        0.8430   15.4950   13.0890 O.3   267  719267     -0.2830
     32  O32        3.0620   14.2400   13.6320 O.3   267  719267     -0.2831
     33  C33        0.5820    8.4480   17.4990 C.ar  267  719267      0.1401
     34  C34        1.5060    8.5270   16.4960 C.ar  267  719267      0.0296
     35  C35       -0.2680    9.4690   17.8630 C.ar  267  719267      0.0296
     36  F36        0.6080    7.2940   18.2360 F     267  719267     -0.2042
     37  C37       -3.0820   16.5250   13.6010 C.3   267  719267      0.1413
     38  N38       -8.4850   22.3070    9.0560 N.pl3 267  719267     -0.0271
     39  C39       -9.1510   21.0030    9.0860 C.3   267  719267      0.2866
     40  CA       -10.1970   20.9310   10.1770 C.3   267  719267      0.2372
     41  OB       -11.3510   21.6530    9.8050 O.3   267  719267     -0.2156
@<TRIPOS>BOND
     1    38    39    1
     2    38    19    1
     3    39    40    1
     4    41    40    1
     5    20    19    2
     6    20    21    1
     7    19     4    1
     8    21    15    1
     9     4     5    2
    10     4     3    1
    11     5     8    1
    12    15     3    2
    13     3     1    1
    14     8     1    1
    15     1     2    1
    16    31    11    1
    17     9     2    1
    18     9    13    1
    19    37    26    1
    20    37    27    1
    21    32    17    1
    22    26    14   am
    23    27    23    2
    24     2     6    1
    25    11    17   ar
    26    11     7   ar
    27    17    18   ar
    28    14     7    1
    29    14    24    2
    30     7    12   ar
    31    23    13    1
    32    13    10    1
    33    18    16   ar
    34    12    16   ar
    35     6    10    1
    36     6    25    1
    37    16    22    1
    38    10    30    1
    39    28    22   ar
    40    28    34   ar
    41    22    29   ar
    42    34    33   ar
    43    29    35   ar
    44    33    35   ar
    45    33    36    1
