@<TRIPOS>MOLECULE
3hvl_SRL_A_1.pdb
 33 33 0 0 0
SMALL
GASTEIGER

@<TRIPOS>ATOM
      1  C1        12.8240   33.8760   26.1670 C.ar    1  SRL1        0.0158
      2  C2        14.1550   33.3700   26.4170 C.ar    1  SRL1        0.1876
      3  C3        14.7440   32.1560   25.9230 C.ar    1  SRL1        0.0158
      4  C4        13.8360   31.3770   25.0860 C.ar    1  SRL1       -0.0011
      5  C5        12.5160   31.7950   24.7910 C.ar    1  SRL1        0.0001
      6  C6        12.0370   33.0160   25.3400 C.ar    1  SRL1       -0.0011
      7  C7        11.6450   30.9570   23.9850 C.2     1  SRL1        0.0149
      8  C8        10.7320   31.3880   23.1340 C.2     1  SRL1        0.1602
      9  P9         9.7120   30.0860   22.2700 P.3     1  SRL1        0.3731
     10  P10       10.2380   33.0850   22.6510 P.3     1  SRL1        0.3731
     11  O11       14.9460   34.0980   27.1680 O.3     1  SRL1       -0.2872
     12  C12       12.3020   35.2340   26.7360 C.3     1  SRL1        0.0220
     13  C13       16.2020   31.6350   26.1890 C.3     1  SRL1        0.0220
     14  C14       12.3670   35.1850   28.2910 C.3     1  SRL1        0.0045
     15  C15       10.8470   35.5740   26.2710 C.3     1  SRL1        0.0045
     16  C16       13.2710   36.4410   26.3480 C.3     1  SRL1        0.0045
     17  C17       16.4930   30.2630   25.4370 C.3     1  SRL1        0.0045
     18  C18       17.3060   32.6670   25.7300 C.3     1  SRL1        0.0045
     19  C19       16.3820   31.4040   27.7510 C.3     1  SRL1        0.0045
     20  O20       10.0750   28.7690   22.8760 O.2     1  SRL1       -0.2527
     21  O21       10.2510   30.0690   20.7520 O.3     1  SRL1       -0.2910
     22  C22       11.6600   29.8980   20.5940 C.3     1  SRL1        0.1517
     23  C23       12.0650   30.0170   19.1120 C.3     1  SRL1        0.0352
     24  O24        8.1440   30.3070   22.3730 O.3     1  SRL1       -0.2910
     25  C25        7.2410   29.4390   21.7420 C.3     1  SRL1        0.1517
     26  C26        5.8360   29.9850   22.0160 C.3     1  SRL1        0.0352
     27  O27        9.2190   33.6790   23.4960 O.2     1  SRL1       -0.2527
     28  O28       11.5220   34.1030   22.6230 O.3     1  SRL1       -0.2910
     29  C29       12.2660   34.0550   21.3890 C.3     1  SRL1        0.1517
     30  C30       13.3990   35.0490   21.4030 C.3     1  SRL1        0.0352
     31  O31        9.7530   33.0400   21.0990 O.3     1  SRL1       -0.2910
     32  C32        8.6170   33.8170   20.8590 C.3     1  SRL1        0.1517
     33  C33        8.2560   33.7180   19.4270 C.3     1  SRL1        0.0352
@<TRIPOS>BOND
     1    23    22    1
     2    33    32    1
     3    22    21    1
     4    21     9    1
     5    32    31    1
     6    31    10    1
     7    29    30    1
     8    29    28    1
     9    25    26    1
    10    25    24    1
    11     9    24    1
    12     9    20    2
    13     9     8    1
    14    28    10    1
    15    10     8    1
    16    10    27    2
    17     8     7    2
    18     7     5    1
    19     5     4   ar
    20     5     6   ar
    21     4     3   ar
    22     6     1   ar
    23    17    13    1
    24    18    13    1
    25     3    13    1
    26     3     2   ar
    27     1     2   ar
    28     1    12    1
    29    13    19    1
    30    15    12    1
    31    16    12    1
    32     2    11    1
    33    12    14    1
