@<TRIPOS>MOLECULE
3hvn_CFH_A_1.pdb
 10 9 0 0 0
SMALL
GASTEIGER

@<TRIPOS>ATOM
      1  F7         9.3990   18.8780   57.9530 F     505  CFH505     -0.1670
      2  C1         8.7140   18.1450   57.0960 C.3   505  CFH505      0.4337
      3  F5         9.5470   17.4180   56.3740 F     505  CFH505     -0.1670
      4  F6         7.8980   17.3480   57.7600 F     505  CFH505     -0.1670
      5  C2         7.9040   19.0600   56.1840 C.3   505  CFH505      0.3394
      6  O4         8.7260   20.1520   55.7540 O.3   505  CFH505     -0.2046
      7  C3         7.4100   18.2870   54.9650 C.3   505  CFH505      0.4337
      8  F10        6.8650   17.1480   55.3500 F     505  CFH505     -0.1670
      9  F8         8.4240   18.0390   54.1570 F     505  CFH505     -0.1670
     10  F9         6.5110   19.0100   54.3250 F     505  CFH505     -0.1670
@<TRIPOS>BOND
     1     9     7    1
     2    10     7    1
     3     7     8    1
     4     7     5    1
     5     6     5    1
     6     5     2    1
     7     3     2    1
     8     2     4    1
     9     2     1    1
