@<TRIPOS>MOLECULE
3hvo_VGI_A_1.pdb
 26 29 0 0 0
SMALL
GASTEIGER

@<TRIPOS>ATOM
      1  C14       39.9400   -0.9460   75.2790 C.ar  564  VGI564      0.0220
      2  C15       41.2050   -1.2290   75.7550 C.ar  564  VGI564      0.0358
      3 BR1        42.4670   -2.1280   74.6380 Br    564  VGI564     -0.0490
      4  C16       41.5480   -0.8910   77.0610 C.ar  564  VGI564      0.0068
      5  C17       40.6180   -0.2720   77.8850 C.ar  564  VGI564      0.0018
      6  C18       39.3560    0.0230   77.4040 C.ar  564  VGI564      0.0154
      7  C13       39.0170   -0.3050   76.0960 C.ar  564  VGI564      0.0617
      8  N2        37.7190   -0.0250   75.6120 N.am  564  VGI564     -0.2011
      9  C9        37.6170    1.1740   74.8250 C.2   564  VGI564      0.2587
     10  O1        38.5200    2.0480   74.9200 O.2   564  VGI564     -0.2692
     11  C12       36.8170   -1.0510   75.4240 C.2   564  VGI564      0.2587
     12  O2        37.1040   -2.0920   76.0540 O.2   564  VGI564     -0.2692
     13  C8        35.5910   -0.8640   74.6210 C.ar  564  VGI564      0.0545
     14  C10       34.6350   -1.9080   74.5940 C.ar  564  VGI564      0.0045
     15  C11       33.4870   -1.6760   73.8310 C.ar  564  VGI564      0.0002
     16  C7        33.2740   -0.4880   73.1170 C.ar  564  VGI564      0.0013
     17  C1        34.2340    0.5710   73.1780 C.ar  564  VGI564      0.0151
     18  C2        35.4160    0.3700   73.9400 C.ar  564  VGI564      0.0100
     19  C3        36.4030    1.4070   74.0120 C.ar  564  VGI564      0.0545
     20  C4        36.2320    2.6270   73.3140 C.ar  564  VGI564      0.0059
     21  C5        35.0550    2.8170   72.5330 C.ar  564  VGI564      0.0162
     22  C6        34.0520    1.8000   72.4880 C.ar  564  VGI564      0.0654
     23  N1        32.9450    1.9130   71.7350 N.pl3 564  VGI564     -0.2348
     24  C19       32.1680    3.1580   71.4280 C.3   564  VGI564      0.1476
     25  C20       32.2240    3.4650   69.8790 C.3   564  VGI564      0.2053
     26  O3        32.8380    2.4870   68.9930 O.3   564  VGI564     -0.2184
@<TRIPOS>BOND
     1    26    25    1
     2    25    24    1
     3    24    23    1
     4    23    22    1
     5    22    21   ar
     6    22    17   ar
     7    21    20   ar
     8    16    17   ar
     9    16    15   ar
    10    17    18   ar
    11    20    19   ar
    12    15    14   ar
    13    18    19   ar
    14    18    13   ar
    15    19     9    1
    16    14    13   ar
    17    13    11    1
    18     3     2    1
    19     9    10    2
    20     9     8   am
    21     1     2   ar
    22     1     7   ar
    23    11     8   am
    24    11    12    2
    25     8     7    1
    26     2     4   ar
    27     7     6   ar
    28     4     5   ar
    29     6     5   ar
