@<TRIPOS>MOLECULE
3hvt_NVP_A_1.pdb
 20 23 0 0 0
SMALL
GASTEIGER

@<TRIPOS>ATOM
      1  N1       143.3350  -25.0040   72.5140 N.pl3 557  NVP557     -0.1562
      2  CA       143.6010  -24.6810   71.1370 C.3   557  NVP557      0.1667
      3  CB       145.0040  -24.3370   70.8120 C.3   557  NVP557      0.0512
      4  CC       144.4170  -25.6460   70.3980 C.3   557  NVP557      0.0512
      5  N3       143.0160  -22.7150   72.8630 N.2   557  NVP557     -0.0337
      6  C4       142.8580  -21.6710   73.6980 C.2   557  NVP557      0.2316
      7  C5       142.8470  -21.7930   75.0650 C.2   557  NVP557      0.0313
      8  C6       143.0830  -23.0200   75.6540 C.3   557  NVP557      0.0868
      9  CD       143.0600  -23.1750   77.1590 C.3   557  NVP557      0.0126
     10  C2       143.2350  -23.9060   73.4150 C.2   557  NVP557      0.3559
     11  C7       143.3340  -24.1020   74.7800 C.2   557  NVP557      0.2076
     12  N8       143.7610  -25.3730   75.3120 N.2   557  NVP557     -0.3293
     13  C9       143.3270  -26.6870   75.0180 C.1   557  NVP557      0.2096
     14  OE       143.7250  -27.6030   75.5880 O.2   557  NVP557     -0.2091
     15  C10      142.3230  -26.7570   73.9070 C.ar  557  NVP557      0.1506
     16  C15      142.3740  -26.0430   72.7040 C.ar  557  NVP557      0.2365
     17  C11      141.3540  -27.7340   74.0530 C.ar  557  NVP557      0.0194
     18  C12      140.4690  -27.9900   73.0120 C.ar  557  NVP557      0.0217
     19  C13      140.6260  -27.2810   71.8500 C.ar  557  NVP557      0.1025
     20  N14      141.5490  -26.3160   71.6690 N.ar  557  NVP557     -0.2068
@<TRIPOS>BOND
     1     4     3    1
     2     4     2    1
     3     3     2    1
     4     2     1    1
     5    20    19   ar
     6    20    16   ar
     7    19    18   ar
     8     1    16    1
     9     1    10    1
    10    16    15   ar
    11     5    10    2
    12     5     6    1
    13    18    17   ar
    14    10    11    1
    15     6     7    2
    16    15    17   ar
    17    15    13    1
    18    11    12    2
    19    11     8    1
    20    13    12    2
    21    13    14    2
    22     7     8    1
    23     8     9    1
