@<TRIPOS>MOLECULE
3hvu_MES_B_1.pdb
 12 12 0 0 0
SMALL
GASTEIGER

@<TRIPOS>ATOM
      1  O1         5.6220   13.9000   12.2420 O.3   181  MES181     -0.3508
      2  C2         5.2570   12.6430   12.8150 C.3   181  MES181      0.1595
      3  C3         3.7730   12.3700   12.5900 C.3   181  MES181      0.1047
      4  N4         2.9050   13.5170   12.9600 N.3   181  MES181     -0.2670
      5  C5         3.4780   14.8410   12.6360 C.3   181  MES181      0.1047
      6  C6         4.9640   14.9470   12.9260 C.3   181  MES181      0.1595
      7  C7         1.6140   13.3820   12.2460 C.3   181  MES181      0.0940
      8  C8         0.5980   12.7530   13.1860 C.3   181  MES181      0.1225
      9  S         -0.6490   12.0290   12.3440 S.3   181  MES181     -0.1946
     10  O1S       -1.2210   13.0710   11.4440 O.3   181  MES181     -0.3074
     11  O2S       -1.6040   11.5750   13.3630 O.3   181  MES181     -0.3074
     12  O3S       -0.1530   10.8970   11.5590 O.3   181  MES181     -0.3074
@<TRIPOS>BOND
     1    10     9    1
     2    12     9    1
     3     1     2    1
     4     1     6    1
     5     7     4    1
     6     7     8    1
     7     9     8    1
     8     9    11    1
     9     3     2    1
    10     3     4    1
    11     5     6    1
    12     5     4    1
