@<TRIPOS>MOLECULE
3hw1_EV2_A_1.pdb
 16 18 0 0 0
SMALL
GASTEIGER

@<TRIPOS>ATOM
      1  N12      -19.6390  -92.7290   10.6900 N.pl3 393  EV2393     -0.0891
      2  C10      -18.5200  -92.6780   11.5250 C.2   393  EV2393      0.2629
      3  N8       -17.8170  -91.4930   11.4830 N.2   393  EV2393     -0.3774
      4  C6       -16.7000  -91.3200   12.2620 C.ar  393  EV2393      0.1627
      5  C4       -16.0200  -90.1190   12.1940 C.ar  393  EV2393      0.0348
      6  C2       -14.8900  -89.9270   12.9690 C.ar  393  EV2393      0.0028
      7  C9       -18.1230  -93.7270   12.3570 C.2   393  EV2393      0.2307
      8  N7       -16.9860  -93.5480   13.1450 N.2   393  EV2393     -0.3802
      9  C5       -16.2740  -92.3510   13.0960 C.ar  393  EV2393      0.1626
     10  C3       -15.1400  -92.1540   13.8760 C.ar  393  EV2393      0.0348
     11  C1       -14.4530  -90.9420   13.8070 C.ar  393  EV2393      0.0028
     12  N11      -18.8410  -94.9560   12.4300 N.pl3 393  EV2393     -0.2804
     13  C16      -20.3000  -95.0270   12.6800 C.3   393  EV2393      0.0933
     14  C14      -20.5420  -96.0200   13.8000 C.3   393  EV2393      0.0233
     15  C13      -19.1930  -96.5850   14.1440 C.3   393  EV2393      0.0233
     16  C15      -18.3000  -96.2260   12.9630 C.3   393  EV2393      0.0933
@<TRIPOS>BOND
     1     1     2    1
     2     3     2    2
     3     3     4    2
     4     2     7    1
     5     5     4   ar
     6     5     6   ar
     7     4     9   ar
     8     7    12    1
     9     7     8    2
    10    12    13    1
    11    12    16    1
    12    13    14    1
    13    16    15    1
    14     6    11   ar
    15     9     8    2
    16     9    10   ar
    17    14    15    1
    18    11    10   ar
