@<TRIPOS>MOLECULE
3hw3_U5P_A_1.pdb
 21 22 0 0 0
SMALL
GASTEIGER

@<TRIPOS>ATOM
      1  N1        22.9960   -9.1390   -8.1350 N.am  257  U5P257     -0.1766
      2  C2        23.7110   -8.1680   -7.4740 C.1   257  U5P257      0.2845
      3  N3        24.9840   -7.9240   -7.7100 N.2   257  U5P257     -0.2452
      4  C4        25.6470   -8.5860   -8.6130 C.1   257  U5P257      0.2182
      5  C5        25.0130   -9.5820   -9.3650 C.2   257  U5P257      0.1242
      6  C6        23.6680   -9.8620   -9.0820 C.2   257  U5P257      0.0929
      7  O2        23.1690   -7.5420   -6.6700 O.2   257  U5P257     -0.1918
      8  O4        26.8080   -8.2760   -8.7420 O.2   257  U5P257     -0.2085
      9  C1'       21.5800   -9.3590   -7.8230 C.3   257  U5P257      0.2401
     10  C2'       20.8560   -9.5070   -9.1390 C.3   257  U5P257      0.2319
     11  O2'       19.4280   -9.7000   -9.0260 O.3   257  U5P257     -0.2157
     12  C3'       21.5000  -10.8050   -9.4490 C.3   257  U5P257      0.2158
     13  C4'       20.8300  -11.3560   -8.2650 C.3   257  U5P257      0.1801
     14  O3'       20.9850  -11.3210  -10.6300 O.3   257  U5P257     -0.2175
     15  O4'       21.5120  -10.6450   -7.2880 O.3   257  U5P257     -0.3320
     16  C5'       21.0990  -12.7900   -8.0760 C.3   257  U5P257      0.1859
     17  O5'       22.2690  -12.8090   -7.3860 O.3   257  U5P257     -0.2675
     18  P         22.2770  -13.9700   -6.3530 P.3   257  U5P257      0.5327
     19  O1P       22.2310  -15.2210   -7.1280 O.2   257  U5P257     -0.2224
     20  O2P       21.0010  -13.6330   -5.6400 O.3   257  U5P257     -0.1145
     21  O3P       23.5190  -13.5690   -5.6920 O.3   257  U5P257     -0.1145
@<TRIPOS>BOND
     1    14    12    1
     2    12    10    1
     3    12    13    1
     4     5     6    2
     5     5     4    1
     6    10    11    1
     7    10     9    1
     8     6     1    1
     9     8     4    2
    10     4     3    2
    11    13    16    1
    12    13    15    1
    13     1     9    1
    14     1     2   am
    15    16    17    1
    16     9    15    1
    17     3     2    2
    18     2     7    2
    19    17    18    1
    20    19    18    2
    21    18    21    1
    22    18    20    1
