@<TRIPOS>MOLECULE
3hw4_TMP_A_1.pdb
 21 22 0 0 0
SMALL
GASTEIGER

@<TRIPOS>ATOM
      1  P         22.3180  -13.7760   -6.5380 P.3   257  TMP257      0.5327
      2  O1P       22.2500  -15.0830   -7.2430 O.2   257  TMP257     -0.2224
      3  O2P       21.0760  -13.4050   -5.7690 O.3   257  TMP257     -0.1145
      4  O3P       23.5740  -13.6390   -5.7980 O.3   257  TMP257     -0.1145
      5  O5'       22.4450  -12.6720   -7.6760 O.3   257  TMP257     -0.2675
      6  C5'       21.8150  -11.4440   -7.4770 C.3   257  TMP257      0.1858
      7  C4'       20.6830  -11.4040   -8.4890 C.3   257  TMP257      0.1774
      8  O4'       20.8900  -10.2330   -9.2000 O.3   257  TMP257     -0.3339
      9  C3'       20.8120  -12.5000   -9.5460 C.3   257  TMP257      0.1857
     10  O3'       19.6540  -12.5450  -10.3810 O.3   257  TMP257     -0.2203
     11  C2'       21.9490  -11.9830  -10.3920 C.3   257  TMP257      0.0874
     12  C1'       21.7920  -10.4990  -10.2450 C.3   257  TMP257      0.2090
     13  N1        22.9790   -9.8800   -9.7300 N.am  257  TMP257     -0.1794
     14  C2        24.1850   -9.9470  -10.4170 C.1   257  TMP257      0.2844
     15  O2        24.1950  -10.5880  -11.4680 O.2   257  TMP257     -0.1918
     16  N3        25.2640   -9.3400   -9.9330 N.2   257  TMP257     -0.2455
     17  C4        25.2510   -8.6480   -8.7940 C.1   257  TMP257      0.2134
     18  O4        26.2860   -8.1200   -8.4100 O.2   257  TMP257     -0.2088
     19  C5        23.9450   -8.5520   -8.0520 C.2   257  TMP257      0.0891
     20  C5M       23.7110   -7.8210   -6.7850 C.3   257  TMP257      0.0462
     21  C6        22.8510   -9.2040   -8.5830 C.2   257  TMP257      0.0877
@<TRIPOS>BOND
     1    15    14    2
     2    14    16    2
     3    14    13   am
     4    11    12    1
     5    11     9    1
     6    10     9    1
     7    12    13    1
     8    12     8    1
     9    16    17    2
    10    13    21    1
    11     9     7    1
    12     8     7    1
    13    17    18    2
    14    17    19    1
    15    21    19    2
    16     7     6    1
    17    19    20    1
    18     5     6    1
    19     5     1    1
    20     2     1    2
    21     1     4    1
    22     1     3    1
