@<TRIPOS>MOLECULE
3hw5_AMP_A_1.pdb
 23 25 0 0 0
SMALL
GASTEIGER

@<TRIPOS>ATOM
      1  P         22.2150  -13.9780   -6.4600 P.3   257  AMP257      0.5327
      2  O1P       23.4960  -13.5060   -5.8530 O.3   257  AMP257     -0.1145
      3  O2P       22.1980  -15.3140   -7.1930 O.2   257  AMP257     -0.2224
      4  O3P       20.9360  -13.6330   -5.6240 O.3   257  AMP257     -0.1145
      5  O5'       22.1390  -12.9490   -7.7000 O.3   257  AMP257     -0.2675
      6  C5'       22.0890  -11.6070   -7.3180 C.3   257  AMP257      0.1860
      7  C4'       20.6960  -11.1360   -7.6680 C.3   257  AMP257      0.1823
      8  O4'       20.8740   -9.7410   -7.8050 O.3   257  AMP257     -0.3135
      9  C3'       20.3650  -11.5650   -9.0740 C.3   257  AMP257      0.2184
     10  O3'       19.1310  -10.8960   -9.3770 O.3   257  AMP257     -0.2174
     11  C2'       21.5690  -10.9150   -9.7500 C.3   257  AMP257      0.2570
     12  O2'       21.4590  -10.9330  -11.1820 O.3   257  AMP257     -0.2130
     13  C1'       21.5710   -9.5540   -9.0270 C.3   257  AMP257      0.3186
     14  N9        22.8490   -8.9720   -8.5410 N.pl3 257  AMP257     -0.1439
     15  C8        22.9370   -8.1920   -7.4370 C.3   257  AMP257      0.3377
     16  N7        24.1750   -7.7690   -7.2020 N.2   257  AMP257     -0.2095
     17  C5        24.9260   -8.2870   -8.2010 C.2   257  AMP257      0.2526
     18  C6        26.3260   -8.2230   -8.5740 C.2   257  AMP257      0.4393
     19  N6        27.1870   -7.5370   -7.8260 N.pl3 257  AMP257      0.2180
     20  N1        26.7330   -8.8990   -9.6560 N.2   257  AMP257      0.0021
     21  C2        25.8690   -9.6090  -10.4270 C.3   257  AMP257      0.5254
     22  N3        24.5540   -9.7260  -10.1910 N.2   257  AMP257     -0.0055
     23  C4        24.0540   -9.0920   -9.0940 C.2   257  AMP257      0.3518
@<TRIPOS>BOND
     1    12    11    1
     2    21    22    1
     3    21    20    1
     4    22    23    2
     5    11     9    1
     6    11    13    1
     7    20    18    2
     8    10     9    1
     9    23    14    1
    10    23    17    1
    11     9     7    1
    12    13    14    1
    13    13     8    1
    14    18    17    1
    15    18    19    1
    16    14    15    1
    17    17    16    2
    18     8     7    1
    19     5     6    1
    20     5     1    1
    21     7     6    1
    22    15    16    1
    23     3     1    2
    24     1     2    1
    25     1     4    1
