@<TRIPOS>MOLECULE
3hw8_D3T_A_1.pdb
 28 29 0 0 0
SMALL
GASTEIGER

@<TRIPOS>ATOM
      1  PA       -12.1670    6.7410  -12.9560 P.3   581  D3T581      0.2189
      2  O1A      -11.5570    5.9620  -11.8780 O.3   581  D3T581     -0.4371
      3  O2A      -12.5860    8.1500  -12.6590 O.2   581  D3T581     -0.5170
      4  O5'      -13.4760    5.9920  -13.4930 O.3   581  D3T581     -0.3113
      5  C5'      -13.4640    4.5880  -13.8240 C.3   581  D3T581      0.1785
      6  C4'      -14.1530    4.3480  -15.1540 C.3   581  D3T581      0.1472
      7  O4'      -15.5080    4.8700  -15.0820 O.3   581  D3T581     -0.3366
      8  C1'      -15.8790    5.4510  -16.3250 C.3   581  D3T581      0.2063
      9  N1       -16.3070    6.8720  -16.1450 N.am  581  D3T581     -0.1795
     10  C6       -15.6740    7.7280  -15.2160 C.2   581  D3T581      0.0877
     11  C2       -17.3680    7.3300  -16.9380 C.1   581  D3T581      0.2844
     12  O2       -17.9480    6.6260  -17.7600 O.2   581  D3T581     -0.1918
     13  N3       -17.7230    8.6660  -16.7240 N.2   581  D3T581     -0.2455
     14  C4       -17.1350    9.5650  -15.8190 C.1   581  D3T581      0.2134
     15  O4       -17.5670   10.7230  -15.7510 O.2   581  D3T581     -0.2088
     16  C5       -16.0240    9.0240  -15.0160 C.2   581  D3T581      0.0891
     17  C5M      -15.3270    9.9090  -14.0190 C.3   581  D3T581      0.0462
     18  C2'      -14.6910    5.3060  -17.2850 C.3   581  D3T581      0.0545
     19  C3'      -13.5160    5.0560  -16.3420 C.3   581  D3T581      0.0366
     20  O3A      -11.2110    6.8290  -14.1620 O.3   581  D3T581     -0.2700
     21  PB        -9.8080    6.2960  -14.4810 P.3   581  D3T581      0.2277
     22  O1B       -9.5820    4.9840  -13.8260 O.3   581  D3T581     -0.4368
     23  O2B       -9.7760    6.3550  -15.9640 O.2   581  D3T581     -0.5168
     24  O3B       -8.7810    7.3190  -13.9600 O.3   581  D3T581     -0.2258
     25  PG        -7.9870    7.4080  -12.6370 P.3   581  D3T581      0.5373
     26  O1G       -6.7060    6.7150  -12.7790 O.2   581  D3T581     -0.2221
     27  O2G       -7.9160    8.8720  -12.3120 O.3   581  D3T581     -0.1143
     28  O3G       -8.7370    6.7150  -11.5620 O.3   581  D3T581     -0.1143
@<TRIPOS>BOND
     1    12    11    2
     2    18    19    1
     3    18     8    1
     4    11    13    2
     5    11     9   am
     6    13    14    2
     7    19     6    1
     8     8     9    1
     9     8     7    1
    10     9    10    1
    11    23    21    2
    12    14    15    2
    13    14    16    1
    14    10    16    2
    15     6     7    1
    16     6     5    1
    17    16    17    1
    18    21    20    1
    19    21    24    1
    20    21    22    1
    21    20     1    1
    22    24    25    1
    23     5     4    1
    24     4     1    1
    25     1     3    2
    26     1     2    1
    27    26    25    2
    28    25    27    1
    29    25    28    1
