@<TRIPOS>MOLECULE
3hwe_RKS_A_1.pdb
 38 38 0 0 0
SMALL
GASTEIGER

@<TRIPOS>ATOM
      1  C1        28.1300   81.1600   63.0570 C.ar  180  RKS180      0.0971
      2  N1        29.7670   81.5190   64.8170 N.am  180  RKS180     -0.1939
      3  O1        28.5570   79.2860   64.5010 O.3   180  RKS180     -0.2830
      4  C2        27.8420   79.8740   63.5050 C.ar  180  RKS180      0.2386
      5  N4        32.6620   80.4570   65.8210 N.am  180  RKS180     -0.1943
      6  O2        26.5500   77.8940   63.3950 O.3   180  RKS180     -0.2831
      7  C4        26.8100   79.1490   62.9420 C.ar  180  RKS180      0.2344
      8  O3        29.6440   82.9560   63.0690 O.2   180  RKS180     -0.2682
      9  C5        26.0440   79.6990   61.9230 C.ar  180  RKS180      0.0454
     10  N2        36.5770   76.9660   70.1760 N.am  180  RKS180     -0.2845
     11  C6        26.3230   80.9820   61.4700 C.ar  180  RKS180      0.0036
     12  C7        27.3650   81.7120   62.0330 C.ar  180  RKS180      0.0080
     13  O4        32.8820   82.2120   64.4390 O.2   180  RKS180     -0.2715
     14  C8        29.2550   81.9590   63.6600 C.2   180  RKS180      0.2684
     15  O5        33.4910   78.8530   63.2690 O.3   180  RKS180     -0.4432
     16  O6        35.5380   76.3990   70.9140 O.3   180  RKS180     -0.4197
     17  O7        37.9450   75.3880   70.9710 O.2   180  RKS180     -0.5413
     18  O8        35.4420   80.0140   63.7620 O.2   180  RKS180     -0.2482
     19  C9        30.8480   82.0500   65.6560 C.3   180  RKS180      0.1730
     20  C10       30.8070   83.5810   65.6870 C.3   180  RKS180      0.0312
     21  C11       32.2230   81.5790   65.2440 C.2   180  RKS180      0.2617
     22  C12       33.9770   79.8460   65.5910 C.3   180  RKS180      0.1935
     23  C13       29.5040   84.1270   66.2630 C.3   180  RKS180      0.0041
     24  C14       29.5390   84.1460   67.7850 C.3   180  RKS180      0.0221
     25  C15       34.3650   79.5980   64.1640 C.2   180  RKS180      0.3371
     26  C16       33.9380   78.5000   66.3160 C.3   180  RKS180      0.0332
     27  C17       34.3630   78.6350   67.7790 C.3   180  RKS180      0.0041
     28  C18       35.4770   77.6600   68.1530 C.3   180  RKS180      0.0221
     29  C19       36.2410   78.1470   69.3830 C.3   180  RKS180      0.0977
     30  C20       37.7760   76.3750   70.2720 C.2   180  RKS180      0.0679
     31  C21       38.9150   76.9670   69.4890 C.3   180  RKS180      0.0561
     32  C22       32.1290   79.2670   63.0880 C.3   180  RKS180      0.2557
     33  C23       28.2270   84.7040   68.3210 C.3   180  RKS180      0.0977
     34  N3        28.4810   85.2960   69.6240 N.am  180  RKS180     -0.2845
     35  C24       29.1270   86.4580   69.7990 C.2   180  RKS180      0.0679
     36  O9        27.9910   84.6020   70.7370 O.3   180  RKS180     -0.4197
     37  O10       29.5710   87.1190   68.8750 O.2   180  RKS180     -0.5413
     38  C25       29.2630   86.9170   71.2380 C.3   180  RKS180      0.0561
@<TRIPOS>BOND
     1    11     9   ar
     2    11    12   ar
     3     9     7   ar
     4    12     1   ar
     5     7     6    1
     6     7     4   ar
     7     1     4   ar
     8     1    14    1
     9     8    14    2
    10    32    15    1
    11    15    25    1
    12     4     3    1
    13    14     2   am
    14    18    25    2
    15    25    22    1
    16    13    21    2
    17     2    19    1
    18    21    19    1
    19    21     5   am
    20    22     5    1
    21    22    26    1
    22    19    20    1
    23    20    23    1
    24    23    24    1
    25    26    27    1
    26    27    28    1
    27    24    33    1
    28    28    29    1
    29    33    34    1
    30    37    35    2
    31    29    10    1
    32    31    30    1
    33    34    35   am
    34    34    36    1
    35    35    38    1
    36    10    30   am
    37    10    16    1
    38    30    17    2
