@<TRIPOS>MOLECULE
3hwf_TC2_A_1.pdb
 40 42 0 0 0
SMALL
GASTEIGER

@<TRIPOS>ATOM
      1  C1        31.6240   75.7350   66.8830 C.ar  183  TC2183      0.0971
      2  C2        30.6370   75.9540   65.9380 C.ar  183  TC2183      0.2386
      3  C3        30.7430   75.3890   64.6790 C.ar  183  TC2183      0.2344
      4  C4        31.8430   74.5990   64.3600 C.ar  183  TC2183      0.0454
      5  C5        32.8350   74.3780   65.3070 C.ar  183  TC2183      0.0036
      6  C6        32.7250   74.9460   66.5710 C.ar  183  TC2183      0.0080
      7  C7        31.5040   76.3490   68.2470 C.2   183  TC2183      0.2680
      8  O8        31.0830   75.6730   69.1720 O.2   183  TC2183     -0.2683
      9  N9        31.8630   77.6190   68.4120 N.am  183  TC2183     -0.2001
     10  C10       31.0210   78.7090   67.9570 C.3   183  TC2183      0.1327
     11  C11       31.6090   80.0700   68.3100 C.3   183  TC2183      0.0959
     12  N12       30.9250   81.0130   67.4390 N.3   183  TC2183     -0.2682
     13  C13       31.6190   81.5790   66.2920 C.3   183  TC2183      0.0959
     14  O14       29.5590   76.7260   66.2470 O.3   183  TC2183     -0.2830
     15  O15       29.7700   75.6060   63.7510 O.3   183  TC2183     -0.2831
     16  C16       30.5540   82.3620   65.5330 C.3   183  TC2183      0.1327
     17  N17       29.6370   81.4880   64.8280 N.am  183  TC2183     -0.2001
     18  C18       29.5470   81.3900   67.7140 C.3   183  TC2183      0.0959
     19  C19       29.0130   80.2950   68.6290 C.3   183  TC2183      0.1328
     20  N20       27.8590   79.6270   68.0620 N.am  183  TC2183     -0.1989
     21  C21       26.9300   79.0680   68.8330 C.2   183  TC2183      0.2842
     22  O22       26.6760   79.4970   69.9460 O.2   183  TC2183     -0.2667
     23  C23       26.1770   77.8790   68.3130 C.ar  183  TC2183      0.1604
     24  N24       26.4710   77.3840   67.1040 N.ar  183  TC2183     -0.0872
     25  C25       25.8160   76.3240   66.6130 C.ar  183  TC2183      0.2964
     26  C26       24.8110   75.7090   67.3510 C.ar  183  TC2183      0.0639
     27  C27       24.4870   76.2020   68.6070 C.ar  183  TC2183      0.0067
     28  C28       25.1800   77.3020   69.0910 C.ar  183  TC2183      0.0257
     29  O29       27.5040   77.9990   66.3220 O.3   183  TC2183     -0.1601
     30  O30       26.1120   75.8830   65.4820 O.2   183  TC2183     -0.2638
     31  C31       29.3580   81.6670   63.5400 C.2   183  TC2183      0.2680
     32  O32       29.8870   82.5490   62.8840 O.2   183  TC2183     -0.2683
     33  C33       28.3630   80.7570   62.8820 C.ar  183  TC2183      0.0971
     34  C34       28.2130   79.4570   63.3310 C.ar  183  TC2183      0.2386
     35  C35       27.2970   78.6140   62.7260 C.ar  183  TC2183      0.2344
     36  C36       26.5240   79.0720   61.6650 C.ar  183  TC2183      0.0454
     37  C37       26.6730   80.3770   61.2120 C.ar  183  TC2183      0.0036
     38  C38       27.5940   81.2210   61.8220 C.ar  183  TC2183      0.0080
     39  O39       28.9690   79.0050   64.3710 O.3   183  TC2183     -0.2830
     40  O40       27.1520   77.3350   63.1710 O.3   183  TC2183     -0.2831
@<TRIPOS>BOND
     1    37    36   ar
     2    37    38   ar
     3    36    35   ar
     4    38    33   ar
     5    35    40    1
     6    35    34   ar
     7    33    34   ar
     8    33    31    1
     9    32    31    2
    10    34    39    1
    11    31    17   am
    12    15     3    1
    13     4     3   ar
    14     4     5   ar
    15     3     2   ar
    16    17    16    1
    17     5     6   ar
    18    30    25    2
    19    16    13    1
    20     2    14    1
    21     2     1   ar
    22    13    12    1
    23    29    24    1
    24     6     1   ar
    25    25    24   ar
    26    25    26   ar
    27     1     7    1
    28    24    23   ar
    29    26    27   ar
    30    12    18    1
    31    12    11    1
    32    18    19    1
    33    10    11    1
    34    10     9    1
    35    20    19    1
    36    20    21   am
    37     7     9   am
    38     7     8    2
    39    23    21    1
    40    23    28   ar
    41    27    28   ar
    42    21    22    2
