@<TRIPOS>MOLECULE
3hwg_QED_A_1.pdb
 40 42 0 0 0
SMALL
GASTEIGER

@<TRIPOS>ATOM
      1  C1        25.6510   77.3660   67.7020 C.ar  180  QED180      0.0971
      2  C2        26.3430   76.6330   66.6190 C.ar  180  QED180      0.2386
      3  C3        25.7460   75.3790   66.1150 C.ar  180  QED180      0.2344
      4  C4        24.5530   74.9350   66.6810 C.ar  180  QED180      0.0454
      5  C5        23.9280   75.6610   67.7020 C.ar  180  QED180      0.0036
      6  C6        24.4600   76.8540   68.2080 C.ar  180  QED180      0.0080
      7  O7        27.5070   77.1020   66.0970 O.3   180  QED180     -0.2830
      8  O8        26.3760   74.6920   65.1210 O.3   180  QED180     -0.2831
      9  C9        26.2640   78.6390   68.2040 C.2   180  QED180      0.2680
     10  O10       25.5620   79.6300   68.3530 O.2   180  QED180     -0.2683
     11  N11       27.5810   78.6490   68.4130 N.am  180  QED180     -0.2001
     12  C12       28.2910   79.8740   68.7310 C.3   180  QED180      0.1327
     13  C13       29.7740   79.6260   69.0380 C.3   180  QED180      0.0959
     14  N14       30.6880   80.0530   67.9640 N.3   180  QED180     -0.2682
     15  C15       30.2800   80.9440   66.8780 C.3   180  QED180      0.0959
     16  C16       29.8740   80.1110   65.6600 C.3   180  QED180      0.1328
     17  N17       30.2450   80.8490   64.4660 N.am  180  QED180     -0.1989
     18  C18       29.5900   80.9200   63.3000 C.2   180  QED180      0.2842
     19  O19       29.9770   81.7690   62.5060 O.2   180  QED180     -0.2667
     20  C21       32.1090   79.6790   67.9810 C.3   180  QED180      0.0959
     21  C22       32.3520   78.2180   68.3750 C.3   180  QED180      0.1328
     22  N23       32.1640   77.2930   67.2720 N.am  180  QED180     -0.1989
     23  C24       32.1360   75.9670   67.4390 C.2   180  QED180      0.2842
     24  N25       28.2380   78.7830   63.1170 N.ar  180  QED180     -0.0872
     25  C26       27.1720   78.1060   62.6450 C.ar  180  QED180      0.2964
     26  C27       26.2190   78.7280   61.8450 C.ar  180  QED180      0.0639
     27  C28       26.3770   80.0690   61.5290 C.ar  180  QED180      0.0067
     28  C29       27.4810   80.7480   62.0230 C.ar  180  QED180      0.0257
     29  O30       29.1720   78.0610   63.9310 O.3   180  QED180     -0.1601
     30  O31       27.0260   76.8960   62.9280 O.2   180  QED180     -0.2638
     31  O32       32.2530   75.4240   68.5290 O.2   180  QED180     -0.2667
     32  C33       31.9510   75.1250   66.2120 C.ar  180  QED180      0.1604
     33  N34       30.8460   75.2800   65.4630 N.ar  180  QED180     -0.0872
     34  C35       30.6480   74.5540   64.3550 C.ar  180  QED180      0.2964
     35  C36       31.5940   73.6140   63.9470 C.ar  180  QED180      0.0639
     36  C37       32.7470   73.4370   64.7030 C.ar  180  QED180      0.0067
     37  C38       32.9280   74.2030   65.8490 C.ar  180  QED180      0.0257
     38  O39       29.8560   76.2370   65.8530 O.3   180  QED180     -0.1601
     39  O40       29.6070   74.7280   63.6860 O.2   180  QED180     -0.2638
     40  C41       28.4090   80.0960   62.8400 C.ar  180  QED180      0.1604
@<TRIPOS>BOND
     1    27    26   ar
     2    27    28   ar
     3    26    25   ar
     4    28    40   ar
     5    19    18    2
     6    25    30    2
     7    25    24   ar
     8    40    24   ar
     9    40    18    1
    10    24    29    1
    11    18    17   am
    12    39    34    2
    13    35    34   ar
    14    35    36   ar
    15    34    33   ar
    16    17    16    1
    17    36    37   ar
    18     8     3    1
    19    33    38    1
    20    33    32   ar
    21    16    15    1
    22    37    32   ar
    23     7     2    1
    24     3     2   ar
    25     3     4   ar
    26    32    23    1
    27     2     1   ar
    28     4     5   ar
    29    15    14    1
    30    22    23   am
    31    22    21    1
    32    23    31    2
    33     5     6   ar
    34     1     9    1
    35     1     6   ar
    36    14    20    1
    37    14    13    1
    38    20    21    1
    39     9    10    2
    40     9    11   am
    41    11    12    1
    42    12    13    1
