@<TRIPOS>MOLECULE
3hwn_BD3_A_1.pdb
 34 36 0 0 0
SMALL
GASTEIGER

@<TRIPOS>ATOM
      1  C1        31.3450  -25.7520  -13.7640 C.ar  221  BD3221     -0.0198
      2  C2        31.1810  -25.8080  -15.1490 C.ar  221  BD3221     -0.0042
      3  C3        30.3370  -25.2050  -12.9660 C.ar  221  BD3221      0.0005
      4  C4        30.0290  -25.3140  -15.7470 C.ar  221  BD3221     -0.0002
      5  C5        29.1810  -24.7060  -13.5680 C.ar  221  BD3221      0.0548
      6  C6        29.0300  -24.7610  -14.9630 C.ar  221  BD3221      0.0047
      7  C7        28.0680  -24.1430  -12.7970 C.ar  221  BD3221      0.2496
      8  C12       24.8050  -23.2110  -13.0440 C.3   221  BD3221      0.1957
      9  N13       24.2370  -21.9040  -12.6790 N.3   221  BD3221     -0.1208
     10  C15       32.8530  -27.7910  -13.4980 C.3   221  BD3221      0.1774
     11  C17       31.0350  -29.3410  -14.1770 C.2   221  BD3221      0.2826
     12  C18       29.9000  -30.2100  -13.7660 C.ar  221  BD3221      0.1340
     13  N22       35.2790  -28.0690  -13.0850 N.am  221  BD3221     -0.1973
     14  C23       36.5090  -28.5360  -12.4410 C.3   221  BD3221      0.1637
     15  C24       37.3020  -27.3270  -11.9130 C.2   221  BD3221      0.1193
     16  C30       28.6370  -30.2850  -15.9370 C.3   221  BD3221      0.1539
     17  C31       27.8580  -32.2760  -11.4760 C.3   221  BD3221      0.0372
     18  C32       28.4750  -32.1100  -10.0770 C.3   221  BD3221      0.0060
     19  C33       27.9060  -33.7500  -11.8760 C.3   221  BD3221      0.0060
     20  C34       26.3810  -31.8790  -11.4050 C.3   221  BD3221      0.0060
     21  N25       38.5990  -27.4860  -11.7650 N.2   221  BD3221     -0.1495
     22  C20       33.9920  -28.3770  -12.7000 C.2   221  BD3221      0.2619
     23  O21       33.7640  -29.1090  -11.7570 O.2   221  BD3221     -0.2715
     24  N16       31.7140  -28.6630  -13.2110 N.am  221  BD3221     -0.1924
     25  O19       31.3790  -29.2020  -15.3320 O.2   221  BD3221     -0.2667
     26  C29       29.7080  -30.7400  -12.5100 C.ar  221  BD3221      0.0398
     27  C28       28.5350  -31.4520  -12.5720 C.ar  221  BD3221      0.0795
     28  N27       28.0650  -31.3440  -13.8410 N.ar  221  BD3221     -0.1735
     29  N26       28.8490  -30.6180  -14.5190 N.ar  221  BD3221     -0.2447
     30  C14       32.6070  -26.3130  -13.1180 C.3   221  BD3221      0.0574
     31  O11       27.0240  -23.9530  -13.3570 O.2   221  BD3221     -0.4180
     32  C10       26.2240  -23.5140  -12.5680 C.ar  221  BD3221      0.2456
     33  N9        26.7950  -23.3890  -11.3450 N.ar  221  BD3221     -0.1098
     34  N8        27.9840  -23.8110  -11.4920 N.ar  221  BD3221     -0.1072
@<TRIPOS>BOND
     1    16    29    1
     2     4     2   ar
     3     4     6   ar
     4    25    11    2
     5     2     1   ar
     6     6     5   ar
     7    29    28   ar
     8    29    12   ar
     9    11    12    1
    10    11    24   am
    11    28    27   ar
    12    12    26   ar
    13     1    30    1
    14     1     3   ar
    15     5     3   ar
    16     5     7    1
    17    10    24    1
    18    10    30    1
    19    10    22    1
    20    31     7   ar
    21    31    32   ar
    22    13    22   am
    23    13    14    1
    24     8     9    1
    25     8    32    1
    26     7    34   ar
    27    22    23    2
    28    27    26   ar
    29    27    17    1
    30    32    33   ar
    31    14    15    1
    32    15    21    2
    33    19    17    1
    34    34    33   ar
    35    17    20    1
    36    17    18    1
