@<TRIPOS>MOLECULE
3hwo_ISC_A_1.pdb
 16 16 0 0 0
SMALL
GASTEIGER

@<TRIPOS>ATOM
      1  C         37.3810   -1.8740   37.7000 C.2   1900  ISC1900     0.3910
      2  C1        36.0190   -1.5470   37.6750 C.ar  1900  ISC1900     0.1216
      3  O1        38.0910   -1.8490   36.6610 O.co2 1900  ISC1900    -0.2404
      4  C2        35.4230   -1.1410   36.4670 C.ar  1900  ISC1900     0.2356
      5  O2        37.9000   -2.2050   38.7850 O.co2 1900  ISC1900    -0.2404
      6  C3        33.9160   -0.8600   36.5310 C.ar  1900  ISC1900     0.1780
      7  O3        36.0650    0.0780   36.0120 O.3   1900  ISC1900    -0.2831
      8  C4        33.3260   -0.8850   37.7930 C.ar  1900  ISC1900     0.0402
      9  C5        33.9770   -1.3000   38.9420 C.ar  1900  ISC1900     0.0035
     10  C6        35.3180   -1.6090   38.8760 C.ar  1900  ISC1900     0.0100
     11  C1'       32.5320   -3.8970   34.5260 C.2   1900  ISC1900     0.4040
     12  O1'       32.0760   -4.4960   35.5250 O.co2 1900  ISC1900    -0.2416
     13  C2'       33.2270   -2.5500   34.7130 C.3   1900  ISC1900     0.2679
     14  O2'       32.4180   -4.4070   33.3910 O.co2 1900  ISC1900    -0.2416
     15  C3'       33.7840   -1.7920   33.5030 C.3   1900  ISC1900     0.0598
     16  O3'       33.2820   -2.0710   35.9920 O.3   1900  ISC1900    -0.4645
@<TRIPOS>BOND
     1    14    11   ar
     2    15    13    1
     3    11    13    1
     4    11    12   ar
     5    13    16    1
     6    16     6    1
     7     7     4    1
     8     4     6   ar
     9     4     2   ar
    10     6     8   ar
    11     3     1   ar
    12     2     1    1
    13     2    10   ar
    14     1     5   ar
    15     8     9   ar
    16    10     9   ar
