@<TRIPOS>MOLECULE
3hwr_NDP_A_1.pdb
 48 52 0 0 0
SMALL
GASTEIGER

@<TRIPOS>ATOM
      1  PA        71.1470   55.8420  -16.6940 P.3   300  NDP300      0.2189
      2  O1A       71.6310   55.8680  -18.1080 O.2   300  NDP300     -0.5170
      3  O2A       72.2220   55.4010  -15.7600 O.3   300  NDP300     -0.4371
      4  O5B       69.8880   54.8400  -16.4760 O.3   300  NDP300     -0.3112
      5  C5B       68.9860   54.4560  -17.4790 C.3   300  NDP300      0.1813
      6  C4B       69.1490   52.9740  -17.7810 C.3   300  NDP300      0.1820
      7  O4B       67.9800   52.5310  -18.4460 O.3   300  NDP300     -0.3136
      8  C3B       70.3260   52.7050  -18.7190 C.3   300  NDP300      0.2157
      9  O3B       71.0250   51.5430  -18.3450 O.3   300  NDP300     -0.2175
     10  C2B       69.6270   52.5240  -20.0430 C.3   300  NDP300      0.2314
     11  O2B       70.3710   51.7930  -20.9710 O.3   300  NDP300     -0.2630
     12  C1B       68.3650   51.8140  -19.6010 C.3   300  NDP300      0.3158
     13  N9A       67.3470   51.7160  -20.6730 N.pl3 300  NDP300     -0.1439
     14  C8A       67.0100   52.6330  -21.6490 C.3   300  NDP300      0.3377
     15  N7A       66.0370   52.0890  -22.4200 N.2   300  NDP300     -0.2095
     16  C5A       65.7650   50.8430  -21.9630 C.2   300  NDP300      0.2526
     17  C6A       64.8770   49.8510  -22.3870 C.2   300  NDP300      0.4393
     18  N6A       64.1660   50.0030  -23.5090 N.pl3 300  NDP300      0.2180
     19  N1A       64.8410   48.6470  -21.6980 N.2   300  NDP300      0.0021
     20  C2A       65.6750   48.4330  -20.6080 C.3   300  NDP300      0.5254
     21  N3A       66.5530   49.4160  -20.1970 N.2   300  NDP300     -0.0055
     22  C4A       66.5890   50.5970  -20.8670 C.2   300  NDP300      0.3518
     23  O3        70.5910   57.3220  -16.2590 O.3   300  NDP300     -0.2703
     24  PN        70.3640   57.8030  -14.7170 P.3   300  NDP300      0.2189
     25  O1N       69.7920   56.7070  -13.8820 O.3   300  NDP300     -0.4371
     26  O2N       71.5590   58.5170  -14.1850 O.2   300  NDP300     -0.5170
     27  O5D       69.2340   58.9340  -14.9970 O.3   300  NDP300     -0.3112
     28  C5D       67.8310   58.7200  -14.9950 C.3   300  NDP300      0.1813
     29  C4D       67.0540   60.0370  -14.9660 C.3   300  NDP300      0.1799
     30  O4D       67.1890   60.6570  -13.6850 O.3   300  NDP300     -0.3327
     31  C3D       67.5650   61.0090  -16.0430 C.3   300  NDP300      0.2158
     32  O3D       66.4970   61.6650  -16.7480 O.3   300  NDP300     -0.2175
     33  C2D       68.4950   61.9230  -15.2150 C.3   300  NDP300      0.2309
     34  O2D       68.7330   63.2070  -15.7670 O.3   300  NDP300     -0.2158
     35  C1D       67.8240   61.9260  -13.8230 C.3   300  NDP300      0.2263
     36  N1N       68.7340   62.2060  -12.6740 N.pl3 300  NDP300     -0.2787
     37  C2N       69.8920   61.4820  -12.4520 C.3   300  NDP300      0.1244
     38  C3N       70.6070   61.5690  -11.2480 C.2   300  NDP300      0.0544
     39  C7N       71.9290   60.8200  -11.0590 C.2   300  NDP300      0.2818
     40  O7N       72.7460   61.1070   -9.9510 O.2   300  NDP300     -0.2670
     41  N7N       72.3190   59.8560  -11.8920 N.am  300  NDP300     -0.0839
     42  C4N       70.3340   62.7410  -10.3260 C.2   300  NDP300      0.0033
     43  C5N       69.0700   63.4730  -10.6540 C.2   300  NDP300      0.0157
     44  C6N       68.3380   63.1820  -11.7980 C.2   300  NDP300      0.0633
     45  P2B       71.5760   52.5180  -21.7320 P.3   300  NDP300      0.5328
     46  O1X       71.8630   51.7740  -23.0220 O.2   300  NDP300     -0.2224
     47  O2X       71.2440   53.9520  -22.1130 O.3   300  NDP300     -0.1145
     48  O3X       72.7500   52.5310  -20.7760 O.3   300  NDP300     -0.1145
@<TRIPOS>BOND
     1    18    17    1
     2    46    45    2
     3    15    16    2
     4    15    14    1
     5    17    16    1
     6    17    19    2
     7    47    45    1
     8    16    22    1
     9    45    11    1
    10    45    48    1
    11    19    20    1
    12    14    13    1
    13    11    10    1
    14    22    13    1
    15    22    21    2
    16    13    12    1
    17    20    21    1
    18    10    12    1
    19    10     8    1
    20    12     7    1
    21     8     9    1
    22     8     6    1
    23     7     6    1
    24     2     1    2
    25     6     5    1
    26     5     4    1
    27    32    31    1
    28     1     4    1
    29     1    23    1
    30     1     3    1
    31    23    24    1
    32    31    33    1
    33    31    29    1
    34    34    33    1
    35    33    35    1
    36    27    28    1
    37    27    24    1
    38    28    29    1
    39    29    30    1
    40    24    26    2
    41    24    25    1
    42    35    30    1
    43    35    36    1
    44    36    37    1
    45    36    44    1
    46    37    38    1
    47    41    39   am
    48    44    43    2
    49    38    39    1
    50    38    42    2
    51    39    40    2
    52    43    42    1
