@<TRIPOS>MOLECULE
3hws_ADP_A_1.pdb
 27 29 0 0 0
SMALL
GASTEIGER

@<TRIPOS>ATOM
      1  PB       -20.8080  -37.2890   81.6350 P.3   600  ADP600      0.5373
      2  O1B      -19.7150  -37.2230   80.5950 O.2   600  ADP600     -0.2221
      3  O2B      -21.8960  -36.2680   81.4350 O.3   600  ADP600     -0.1143
      4  O3B      -20.3030  -37.3270   83.0620 O.3   600  ADP600     -0.1143
      5  PA       -22.6220  -38.8630   80.1460 P.3   600  ADP600      0.2231
      6  O1A      -23.9800  -38.3910   80.6410 O.3   600  ADP600     -0.4370
      7  O2A      -21.9860  -38.1150   78.9920 O.2   600  ADP600     -0.5169
      8  O3A      -21.5800  -38.6950   81.3820 O.3   600  ADP600     -0.2261
      9  O5'      -22.7250  -40.4390   79.7290 O.3   600  ADP600     -0.3111
     10  C5'      -22.5610  -40.8690   78.3690 C.3   600  ADP600      0.1813
     11  C4'      -23.2060  -42.2200   78.0140 C.3   600  ADP600      0.1821
     12  O4'      -22.9550  -43.2120   79.0080 O.3   600  ADP600     -0.3135
     13  C3'      -24.7200  -42.1340   77.8550 C.3   600  ADP600      0.2184
     14  O3'      -25.1440  -42.1310   76.4830 O.3   600  ADP600     -0.2174
     15  C2'      -25.3280  -43.2540   78.6920 C.3   600  ADP600      0.2570
     16  O2'      -25.9170  -44.3290   77.9420 O.3   600  ADP600     -0.2130
     17  C1'      -24.1690  -43.7950   79.5100 C.3   600  ADP600      0.3186
     18  N9       -24.3480  -43.5300   80.9680 N.pl3 600  ADP600     -0.1439
     19  C8       -23.4860  -42.8490   81.7590 C.3   600  ADP600      0.3377
     20  N7       -23.9410  -42.8040   83.0470 N.2   600  ADP600     -0.2095
     21  C5       -25.1070  -43.4640   83.0970 C.2   600  ADP600      0.2526
     22  C6       -26.1100  -43.7920   84.1440 C.2   600  ADP600      0.4393
     23  N6       -25.9500  -43.3930   85.4310 N.pl3 600  ADP600      0.2180
     24  N1       -27.2020  -44.5080   83.7840 N.2   600  ADP600      0.0021
     25  C2       -27.3790  -44.9130   82.5160 C.3   600  ADP600      0.5254
     26  N3       -26.5120  -44.6520   81.5150 N.2   600  ADP600     -0.0055
     27  C4       -25.3710  -43.9450   81.7290 C.2   600  ADP600      0.3518
@<TRIPOS>BOND
     1    14    13    1
     2    13    11    1
     3    13    15    1
     4    16    15    1
     5    11    10    1
     6    11    12    1
     7    10     9    1
     8    15    17    1
     9     7     5    2
    10    12    17    1
    11    17    18    1
    12     9     5    1
    13     5     6    1
    14     5     8    1
    15     2     1    2
    16    18    27    1
    17    18    19    1
    18     8     1    1
    19     3     1    1
    20    26    27    2
    21    26    25    1
    22     1     4    1
    23    27    21    1
    24    19    20    1
    25    25    24    1
    26    20    21    2
    27    21    22    1
    28    24    22    2
    29    22    23    1
