@<TRIPOS>MOLECULE
3hwt_D3T_A_1.pdb
 28 29 0 0 0
SMALL
GASTEIGER

@<TRIPOS>ATOM
      1  PA        15.7590   27.1330   13.1590 P.3   576  D3T576      0.2189
      2  O1A       16.4020   28.0260   12.1730 O.2   576  D3T576     -0.5170
      3  O2A       15.3500   25.7750   12.7340 O.3   576  D3T576     -0.4371
      4  O5'       14.4230   27.8180   13.7050 O.3   576  D3T576     -0.3113
      5  C5'       14.3670   29.2080   14.0200 C.3   576  D3T576      0.1785
      6  C4'       13.7390   29.4110   15.3870 C.3   576  D3T576      0.1472
      7  O4'       12.3540   28.9600   15.3740 O.3   576  D3T576     -0.3366
      8  C1'       12.0150   28.4220   16.6410 C.3   576  D3T576      0.2063
      9  N1        11.5990   27.0190   16.4680 N.am  576  D3T576     -0.1795
     10  C6        12.2470   26.1890   15.5770 C.2   576  D3T576      0.0877
     11  C2        10.5450   26.5680   17.2280 C.1   576  D3T576      0.2844
     12  O2         9.9620   27.2670   18.0450 O.2   576  D3T576     -0.1918
     13  N3        10.2010   25.2580   17.0070 N.2   576  D3T576     -0.2455
     14  C4        10.7950   24.3740   16.1290 C.1   576  D3T576      0.2134
     15  O4        10.3590   23.2300   16.0260 O.2   576  D3T576     -0.2088
     16  C5        11.9150   24.9040   15.3840 C.2   576  D3T576      0.0891
     17  C5M       12.6530   24.0010   14.4470 C.3   576  D3T576      0.0462
     18  C2'       13.2520   28.5420   17.5360 C.3   576  D3T576      0.0545
     19  C3'       14.3760   28.6050   16.5090 C.3   576  D3T576      0.0366
     20  O3A       16.6820   26.9610   14.3500 O.3   576  D3T576     -0.2700
     21  PB        18.0300   27.5820   14.6870 P.3   576  D3T576      0.2277
     22  O1B       18.2180   28.8560   13.9560 O.2   576  D3T576     -0.5168
     23  O2B       18.0900   27.5880   16.1740 O.3   576  D3T576     -0.4368
     24  O3B       19.1270   26.6230   14.2600 O.3   576  D3T576     -0.2258
     25  PG        19.9070   26.5910   12.9600 P.3   576  D3T576      0.5373
     26  O1G       21.1850   27.3140   13.1350 O.3   576  D3T576     -0.1143
     27  O2G       19.9480   25.1700   12.5490 O.3   576  D3T576     -0.1143
     28  O3G       19.1530   27.3550   11.9300 O.2   576  D3T576     -0.2221
@<TRIPOS>BOND
     1    28    25    2
     2     2     1    2
     3    27    25    1
     4     3     1    1
     5    25    26    1
     6    25    24    1
     7     1     4    1
     8     1    20    1
     9     4     5    1
    10    22    21    2
    11     5     6    1
    12    24    21    1
    13    20    21    1
    14    17    16    1
    15    21    23    1
    16     7     6    1
    17     7     8    1
    18    16    10    2
    19    16    14    1
    20     6    19    1
    21    10     9    1
    22    15    14    2
    23    14    13    2
    24     9     8    1
    25     9    11   am
    26    19    18    1
    27     8    18    1
    28    13    11    2
    29    11    12    2
