@<TRIPOS>MOLECULE
3hww_AKG_A_1.pdb
 10 10 0 0 0
SMALL
GASTEIGER

@<TRIPOS>ATOM
      1  C1       -42.7770    3.0060   10.4000 C.2   557  AKG557      0.3938
      2  O1       -42.3110    1.9630    9.9750 O.co2 557  AKG557     -0.2429
      3  O2       -43.2280    3.9740    9.6790 O.co2 557  AKG557     -0.2429
      4  C2       -42.9000    3.3130   11.7530 C.3   557  AKG557      0.2457
      5  O5       -42.9340    4.4170   12.4520 O.3   557  AKG557     -0.3421
      6  C3       -42.7950    2.6900   12.9590 C.3   557  AKG557      0.1653
      7  C4       -44.1440    2.3660   13.5110 C.3   557  AKG557      0.1466
      8  C5       -43.8340    1.5140   14.7050 C.2   557  AKG557      0.3674
      9  O3       -43.9490    2.0130   15.8380 O.co2 557  AKG557     -0.2456
     10  O4       -43.4570    0.3410   14.5400 O.co2 557  AKG557     -0.2456
@<TRIPOS>BOND
     1     3     1   ar
     2     2     1   ar
     3     1     4    1
     4     4     5    1
     5     4     6    1
     6     5     6    1
     7     6     7    1
     8     7     8    1
     9    10     8   ar
    10     8     9   ar
