@<TRIPOS>MOLECULE
3hwx_TPP_1_1.pdb
 26 27 0 0 0
SMALL
GASTEIGER

@<TRIPOS>ATOM
      1  N1'       -6.3280   14.0990  -78.9140 N.2   601  TPP601     -0.1861
      2  C2'       -5.3050   14.5520  -78.1380 C.1   601  TPP601      0.0663
      3  CM2       -4.9170   15.9730  -78.3050 C.3   601  TPP601      0.1291
      4  N3'       -4.6640   13.7260  -77.2330 N.2   601  TPP601     -0.3368
      5  C4'       -5.0510   12.4110  -77.1180 C.2   601  TPP601      0.2292
      6  N4'       -4.4370   11.5940  -76.2720 N.pl3 601  TPP601     -0.0925
      7  C5'       -6.0940   11.9370  -77.9180 C.2   601  TPP601      0.0654
      8  C6'       -6.7360   12.7860  -78.8060 C.2   601  TPP601      0.1115
      9  C7'       -6.5770   10.5190  -77.7970 C.3   601  TPP601      0.1237
     10  N3        -5.7000    9.5530  -78.4320 N.pl3 601  TPP601     -0.2970
     11  C2        -4.8090    8.7990  -77.6930 C.3   601  TPP601      0.1543
     12  S1        -3.9680    7.8240  -78.6290 S.3   601  TPP601     -0.0951
     13  C5        -4.6860    8.2770  -79.9900 C.2   601  TPP601      0.0164
     14  C4        -5.6360    9.2520  -79.7710 C.2   601  TPP601      0.0279
     15  CM4       -6.4340    9.8410  -80.8720 C.3   601  TPP601      0.0473
     16  C6        -4.2510    7.5840  -81.2590 C.3   601  TPP601      0.0661
     17  C7        -3.0750    8.2460  -81.9620 C.3   601  TPP601      0.1544
     18  O7        -2.4470    7.2840  -82.8070 O.3   601  TPP601     -0.3134
     19  PA        -0.9380    7.4350  -83.3750 P.3   601  TPP601      0.2230
     20  O1A       -0.8700    7.1770  -84.8590 O.2   601  TPP601     -0.5169
     21  O2A       -0.3560    8.7330  -82.9070 O.3   601  TPP601     -0.4370
     22  O3A       -0.1870    6.2590  -82.6230 O.3   601  TPP601     -0.2261
     23  PB        -0.8600    4.8210  -82.4920 P.3   601  TPP601      0.5373
     24  O1B       -1.0220    4.3000  -83.9200 O.2   601  TPP601     -0.2221
     25  O2B        0.0930    3.9430  -81.7280 O.3   601  TPP601     -0.1143
     26  O3B       -2.1880    4.9260  -81.7770 O.3   601  TPP601     -0.1143
@<TRIPOS>BOND
     1    20    19    2
     2    24    23    2
     3    19    21    1
     4    19    18    1
     5    19    22    1
     6    18    17    1
     7    22    23    1
     8    23    26    1
     9    23    25    1
    10    17    16    1
    11    16    13    1
    12    15    14    1
    13    13    14    2
    14    13    12    1
    15    14    10    1
    16     1     8    1
    17     1     2    2
    18     8     7    2
    19    12    11    1
    20    10     9    1
    21    10    11    1
    22     3     2    1
    23     2     4    2
    24     7     9    1
    25     7     5    1
    26     4     5    2
    27     5     6    1
