@<TRIPOS>MOLECULE
3hx0_D3T_A_1.pdb
 28 29 0 0 0
SMALL
GASTEIGER

@<TRIPOS>ATOM
      1  PA        23.8270    2.0260   41.0940 P.3   701  D3T701      0.2189
      2  O1A       24.1310    1.5330   39.7390 O.2   701  D3T701     -0.5170
      3  O2A       23.3790    1.0450   42.1210 O.3   701  D3T701     -0.4371
      4  O5'       22.6830    3.1340   41.0020 O.3   701  D3T701     -0.3113
      5  C5'       22.8540    4.3360   40.2330 C.3   701  D3T701      0.1785
      6  C4'       22.3690    5.5410   41.0100 C.3   701  D3T701      0.1472
      7  O4'       21.0610    5.2570   41.5570 O.3   701  D3T701     -0.3366
      8  C1'       20.8850    5.9470   42.7870 C.3   701  D3T701      0.2063
      9  N1        20.4190    5.0130   43.8630 N.am  701  D3T701     -0.1795
     10  C6        20.7060    3.6340   43.8110 C.2   701  D3T701      0.0877
     11  C2        19.6830    5.5540   44.9320 C.1   701  D3T701      0.2844
     12  O2        19.4030    6.7420   45.0330 O.2   701  D3T701     -0.1918
     13  N3        19.2900    4.6260   45.8890 N.2   701  D3T701     -0.2455
     14  C4        19.5450    3.2490   45.8920 C.1   701  D3T701      0.2134
     15  O4        19.1230    2.5650   46.8230 O.2   701  D3T701     -0.2088
     16  C5        20.3160    2.7410   44.7520 C.2   701  D3T701      0.0891
     17  C5M       20.6400    1.2750   44.6670 C.3   701  D3T701      0.0462
     18  C2'       22.2140    6.6320   43.1210 C.3   701  D3T701      0.0545
     19  C3'       23.2090    5.9180   42.2150 C.3   701  D3T701      0.0366
     20  O3A       25.0250    2.7510   41.6960 O.3   701  D3T701     -0.2700
     21  PB        26.4300    3.0770   41.2190 P.3   701  D3T701      0.2277
     22  O1B       26.4210    3.4000   39.7790 O.2   701  D3T701     -0.5168
     23  O2B       26.8600    4.1240   42.1720 O.3   701  D3T701     -0.4368
     24  O3B       27.2910    1.8480   41.4720 O.3   701  D3T701     -0.2258
     25  PG        27.5810    0.6340   40.6040 P.3   701  D3T701      0.5373
     26  O1G       28.8430    0.8530   39.8880 O.3   701  D3T701     -0.1143
     27  O2G       27.5160   -0.5420   41.5330 O.3   701  D3T701     -0.1143
     28  O3G       26.5150    0.4820   39.5830 O.2   701  D3T701     -0.2221
@<TRIPOS>BOND
     1    28    25    2
     2     2     1    2
     3    22    21    2
     4    26    25    1
     5     5     4    1
     6     5     6    1
     7    25    24    1
     8    25    27    1
     9     4     1    1
    10     6     7    1
    11     6    19    1
    12     1    20    1
    13     1     3    1
    14    21    24    1
    15    21    20    1
    16    21    23    1
    17     7     8    1
    18    19    18    1
    19     8    18    1
    20     8     9    1
    21    10     9    1
    22    10    16    2
    23     9    11   am
    24    17    16    1
    25    16    14    1
    26    11    12    2
    27    11    13    2
    28    13    14    2
    29    14    15    2
