@<TRIPOS>MOLECULE
3hx3_RET_A_1.pdb
 21 21 0 0 0
SMALL
GASTEIGER

@<TRIPOS>ATOM
      1  C1         5.0550    7.8800   12.2630 C.3   400  RET400      0.0183
      2  C2         5.3860    9.1320   11.4850 C.3   400  RET400      0.0044
      3  C3         6.6590    9.6150   12.1620 C.3   400  RET400      0.0047
      4  C4         7.7560    8.5460   12.1040 C.3   400  RET400      0.0217
      5  C5         7.2980    7.0920   12.0190 C.2   400  RET400     -0.0479
      6  C6         6.0090    6.7310   12.0610 C.2   400  RET400     -0.0307
      7  C7         5.6480    5.2870   11.9920 C.2   400  RET400     -0.0052
      8  C8         4.7620    4.7110   12.8010 C.2   400  RET400     -0.0046
      9  C9         4.4140    3.2710   12.7440 C.2   400  RET400     -0.0219
     10  C10        3.2770    2.8240   13.3080 C.2   400  RET400     -0.0043
     11  C11        2.9840    1.3960   13.2360 C.2   400  RET400     -0.0006
     12  C12        1.8980    0.8250   13.7650 C.2   400  RET400     -0.0042
     13  C13        0.8320    1.5810   14.4480 C.2   400  RET400     -0.0186
     14  C14        1.1340    2.4390   15.4270 C.2   400  RET400      0.0411
     15  C15        0.0760    3.1750   16.1140 C.2   400  RET400      0.2339
     16  O1         0.3870    4.0610   16.8960 O.2   400  RET400     -0.2832
     17  C16        3.8590    7.7860   13.2050 C.3   400  RET400      0.0043
     18  C17        4.1540    7.4260   11.1140 C.3   400  RET400      0.0043
     19  C18        8.3410    6.0290   11.8460 C.3   400  RET400      0.0260
     20  C19        5.3220    2.2700   12.0840 C.3   400  RET400      0.0310
     21  C20       -0.6010    1.3440   14.0750 C.3   400  RET400      0.0311
@<TRIPOS>BOND
     1    18     1    1
     2     2     3    1
     3     2     1    1
     4    19     5    1
     5     7     6    1
     6     7     8    2
     7     5     6    2
     8     5     4    1
     9     6     1    1
    10    20     9    1
    11     4     3    1
    12     1    17    1
    13     9     8    1
    14     9    10    2
    15    11    10    1
    16    11    12    2
    17    12    13    1
    18    21    13    1
    19    13    14    2
    20    14    15    1
    21    15    16    2
