@<TRIPOS>MOLECULE
3hx4_ANP_A_1.pdb
 31 33 0 0 0
SMALL
GASTEIGER

@<TRIPOS>ATOM
      1  PG        -2.5720   53.7890   64.3070 P.3   605  ANP605      0.4884
      2  O1G       -2.9480   54.4830   65.5950 O.3   605  ANP605     -0.1240
      3  O2G       -3.3200   54.2820   63.0910 O.2   605  ANP605     -0.2331
      4  O3G       -1.0840   53.6550   64.0740 O.3   605  ANP605     -0.1240
      5  PB        -4.8970   51.9390   64.2680 P.3   605  ANP605      0.4669
      6  O1B       -5.1080   50.5700   63.6680 O.2   605  ANP605     -0.2351
      7  O2B       -5.6330   52.3080   65.5400 O.3   605  ANP605     -0.1253
      8  N3B       -3.1860   52.1680   64.5380 N.3   605  ANP605     -0.0163
      9  PA        -5.2560   52.6880   61.5950 P.3   605  ANP605      0.2220
     10  O1A       -5.8560   53.8250   60.8210 O.2   605  ANP605     -0.5170
     11  O2A       -3.8260   52.2620   61.3280 O.3   605  ANP605     -0.4370
     12  O3A       -5.3550   53.0230   63.1640 O.3   605  ANP605     -0.2360
     13  O5'       -6.2750   51.4460   61.4810 O.3   605  ANP605     -0.3111
     14  C5'       -7.4690   51.4830   62.2680 C.3   605  ANP605      0.1813
     15  C4'       -8.5930   50.5770   61.7590 C.3   605  ANP605      0.1821
     16  O4'       -9.1260   51.0330   60.5050 O.3   605  ANP605     -0.3135
     17  C3'       -8.1260   49.1530   61.5460 C.3   605  ANP605      0.2184
     18  O3'       -9.1430   48.2640   62.0190 O.3   605  ANP605     -0.2174
     19  C2'       -8.0360   49.0580   60.0400 C.3   605  ANP605      0.2570
     20  O2'       -8.1920   47.7220   59.5900 O.3   605  ANP605     -0.2130
     21  C1'       -9.1920   49.9300   59.5970 C.3   605  ANP605      0.3186
     22  N9        -9.0210   50.3090   58.1720 N.pl3 605  ANP605     -0.1439
     23  C8        -7.9450   50.9090   57.6310 C.3   605  ANP605      0.3377
     24  N7        -8.1210   51.1000   56.2950 N.2   605  ANP605     -0.2095
     25  C5        -9.3290   50.6060   55.9610 C.2   605  ANP605      0.2526
     26  C6       -10.1310   50.4790   54.7150 C.2   605  ANP605      0.4393
     27  N6        -9.6780   50.9250   53.5170 N.pl3 605  ANP605      0.2180
     28  N1       -11.3370   49.8970   54.8110 N.2   605  ANP605      0.0021
     29  C2       -11.8070   49.4450   55.9910 C.3   605  ANP605      0.5254
     30  N3       -11.1450   49.5240   57.1570 N.2   605  ANP605     -0.0055
     31  C4        -9.9140   50.0870   57.2060 C.2   605  ANP605      0.3518
@<TRIPOS>BOND
     1    27    26    1
     2    26    28    2
     3    26    25    1
     4    28    29    1
     5    25    24    2
     6    25    31    1
     7    29    30    1
     8    24    23    1
     9    30    31    2
    10    31    22    1
    11    23    22    1
    12    22    21    1
    13    20    19    1
    14    21    19    1
    15    21    16    1
    16    19    17    1
    17    16    15    1
    18    10     9    2
    19    11     9    1
    20    13     9    1
    21    13    14    1
    22    17    15    1
    23    17    18    1
    24     9    12    1
    25    15    14    1
    26     3     1    2
    27    12     5    1
    28     6     5    2
    29     4     1    1
    30     5     8    1
    31     5     7    1
    32     1     8    1
    33     1     2    1
