@<TRIPOS>MOLECULE
3hx9_HEM_A_1.pdb
 43 50 0 0 0
SMALL
GASTEIGER

@<TRIPOS>ATOM
      1  CHA        6.4050   11.8130   31.7140 C.2   300  HEM300      0.0000
      2  CHB        1.5940   11.9460   32.4320 C.2   300  HEM300      0.0000
      3  CHC        1.7940    7.2090   33.6400 C.2   300  HEM300      0.0000
      4  CHD        6.3960    7.0020   32.2680 C.2   300  HEM300      0.0000
      5  C1A        5.0970   12.2660   31.8380 C.2   300  HEM300      0.0000
      6  C2A        4.6560   13.6030   31.6720 C.2   300  HEM300      0.0000
      7  C3A        3.3300   13.6370   31.8260 C.2   300  HEM300      0.0000
      8  C4A        2.8890   12.3040   32.1590 C.2   300  HEM300      0.0000
      9  CMA        2.4210   14.8700   31.7560 C.3   300  HEM300      0.0000
     10  CAA        5.5510   14.8170   31.3570 C.3   300  HEM300      0.0000
     11  CBA        5.6300   14.9810   29.8670 C.3   300  HEM300      0.0000
     12  CGA        5.8340   16.4510   29.6040 C.2   300  HEM300      0.0000
     13  O1A        4.7780   17.1650   29.4800 O.co2 300  HEM300      0.0000
     14  O2A        7.0450   16.8770   29.5510 O.co2 300  HEM300      0.0000
     15  C1B        1.2610   10.6990   32.8770 C.ar  300  HEM300      0.0000
     16  C2B       -0.0670   10.2460   33.2650 C.ar  300  HEM300      0.0000
     17  C3B       -0.0140    8.9650   33.5680 C.ar  300  HEM300      0.0000
     18  C4B        1.3660    8.5130   33.3800 C.ar  300  HEM300      0.0000
     19  CMB       -1.2730   11.2030   33.3160 C.3   300  HEM300      0.0000
     20  CAB       -1.1340    8.0220   34.0720 C.2   300  HEM300      0.0000
     21  CBB       -2.3930    8.1450   33.7000 C.2   300  HEM300      0.0000
     22  C1C        3.0720    6.7310   33.3740 C.2   300  HEM300      0.0000
     23  C2C        3.5140    5.3910   33.5090 C.2   300  HEM300      0.0000
     24  C3C        4.7710    5.3200   33.1290 C.2   300  HEM300      0.0000
     25  C4C        5.1700    6.6830   32.7610 C.2   300  HEM300      0.0000
     26  CMC        2.6500    4.2040   34.0260 C.3   300  HEM300      0.0000
     27  CAC        5.6960    4.0930   33.0320 C.2   300  HEM300      0.0000
     28  CBC        5.4110    2.8600   33.4680 C.2   300  HEM300      0.0000
     29  C1D        6.8290    8.2790   32.0360 C.ar  300  HEM300      0.0000
     30  C2D        8.2060    8.6400   31.7640 C.ar  300  HEM300      0.0000
     31  C3D        8.1870   10.1020   31.6130 C.ar  300  HEM300      0.0000
     32  C4D        6.8240   10.5200   31.7830 C.ar  300  HEM300      0.0000
     33  CMD        9.4300    7.7000   31.6330 C.3   300  HEM300      0.0000
     34  CAD        9.4680   10.9600   31.3170 C.3   300  HEM300      0.0000
     35  CBD        9.9620   11.4750   32.6630 C.3   300  HEM300      0.0000
     36  CGD       11.2000   12.3630   32.6340 C.2   300  HEM300      0.0000
     37  O1D       11.9910   12.2650   33.6360 O.co2 300  HEM300      0.0000
     38  O2D       11.4220   13.1600   31.6650 O.co2 300  HEM300      0.0000
     39  NA         3.9880   11.4720   32.1420 N.2   300  HEM300      0.0000
     40  NB         2.0830    9.6080   32.8920 N.ar  300  HEM300      0.0000
     41  NC         4.1020    7.5360   32.8800 N.2   300  HEM300      0.0000
     42  ND         6.0510    9.3880   32.0260 N.ar  300  HEM300      0.0000
     43 FE          4.1010    9.5390   32.6990 Fe    300  HEM300      0.0000
@<TRIPOS>BOND
     1    13    12   ar
     2    14    12   ar
     3    12    11    1
     4    11    10    1
     5    34    31    1
     6    34    35    1
     7    10     6    1
     8    31    30   ar
     9    31    32   ar
    10    33    30    1
    11    38    36   ar
    12     6     7    2
    13     6     5    1
    14     1    32    2
    15     1     5    1
    16     9     7    1
    17    30    29   ar
    18    32    42   ar
    19     7     8    1
    20     5    39    2
    21    42    29   ar
    22    42    43    1
    23    29     4    2
    24    39     8    1
    25    39    43    1
    26     8     2    2
    27     4    25    1
    28     2    15    1
    29    36    35    1
    30    36    37   ar
    31    43    41    1
    32    43    40    1
    33    25    41    2
    34    25    24    1
    35    15    40   ar
    36    15    16   ar
    37    41    22    1
    38    40    18   ar
    39    27    24    1
    40    27    28    2
    41    24    23    2
    42    16    19    1
    43    16    17   ar
    44    22    23    1
    45    22     3    2
    46    18    17   ar
    47    18     3    1
    48    23    26    1
    49    17    20    1
    50    21    20    2
