@<TRIPOS>MOLECULE
3hxb_BD5_B_1.pdb
 46 49 0 0 0
SMALL
GASTEIGER

@<TRIPOS>ATOM
      1  C43        5.8440   18.8800   27.3910 C.ar  332  BD5332     -0.0009
      2  C42        5.3500   20.1850   27.3650 C.ar  332  BD5332      0.0417
      3  C41        3.9850   20.4190   27.2060 C.ar  332  BD5332      0.1957
      4  O44        3.5070   21.6930   27.1790 O.3   332  BD5332     -0.2866
      5  C40        3.1140   19.3400   27.0740 C.ar  332  BD5332      0.0417
      6  C39        3.6000   18.0320   27.1010 C.ar  332  BD5332     -0.0009
      7  C38        4.9690   17.7970   27.2510 C.ar  332  BD5332     -0.0197
      8  C37        5.4970   16.3530   27.2920 C.3   332  BD5332      0.0596
      9  C35        5.8820   15.6930   25.9360 C.3   332  BD5332      0.2021
     10  C36        4.9030   14.5580   25.5460 C.2   332  BD5332      0.3845
     11  O45        4.3140   14.6490   24.4380 O.co2 332  BD5332     -0.2437
     12  O46        4.7770   13.6110   26.3510 O.co2 332  BD5332     -0.2437
     13  N33        5.9310   16.5960   24.7690 N.am  332  BD5332     -0.1938
     14  C32        7.0500   16.8510   24.0990 C.2   332  BD5332      0.2620
     15  O34        8.1470   16.3680   24.3780 O.2   332  BD5332     -0.2715
     16  C24        6.8340   17.7590   22.8680 C.3   332  BD5332      0.1771
     17  C25        7.6600   17.2060   21.6390 C.3   332  BD5332      0.0574
     18  C26        7.9100   18.2140   20.4910 C.ar  332  BD5332     -0.0200
     19  C31        9.0910   18.1580   19.7700 C.ar  332  BD5332     -0.0042
     20  C30        9.3110   19.0790   18.7560 C.ar  332  BD5332     -0.0003
     21  C29        8.3840   20.0590   18.4330 C.ar  332  BD5332     -0.0000
     22  C28        7.1990   20.1250   19.1360 C.ar  332  BD5332     -0.0003
     23  C27        6.9860   19.2000   20.1470 C.ar  332  BD5332     -0.0042
     24  N22        6.8770   19.2400   23.0430 N.am  332  BD5332     -0.1960
     25  C21        5.8170   19.9180   23.5320 C.2   332  BD5332      0.2621
     26  O23        4.7650   19.3780   23.9000 O.2   332  BD5332     -0.2715
     27  C12        5.8900   21.4810   23.5400 C.3   332  BD5332      0.1804
     28  C13        5.8220   22.2450   24.9140 C.3   332  BD5332      0.0575
     29  C14        6.2430   23.7240   24.7350 C.ar  332  BD5332     -0.0198
     30  C19        7.1330   24.2750   25.6670 C.ar  332  BD5332     -0.0009
     31  C18        7.5480   25.5970   25.5250 C.ar  332  BD5332      0.0417
     32  C17        7.0950   26.3670   24.4510 C.ar  332  BD5332      0.1957
     33  O20        7.5250   27.6350   24.3460 O.3   332  BD5332     -0.2866
     34  C16        6.2270   25.8350   23.4990 C.ar  332  BD5332      0.0417
     35  C15        5.8010   24.5100   23.6470 C.ar  332  BD5332     -0.0009
     36  N10        6.8200   22.0390   22.4720 N.am  332  BD5332     -0.1607
     37  C9         8.1370   22.3610   22.4730 C.2   332  BD5332      0.4219
     38  O11        8.9520   22.2170   23.3840 O.2   332  BD5332     -0.2245
     39  O8         8.6060   22.8660   21.2840 O.3   332  BD5332     -0.4285
     40  C7         8.5880   24.2820   21.0430 C.3   332  BD5332      0.2368
     41  C3         7.7360   24.8560   20.1190 C.ar  332  BD5332      0.0213
     42  C2         6.7380   24.0740   19.5180 C.ar  332  BD5332     -0.0007
     43  C1         5.8540   24.6200   18.5860 C.ar  332  BD5332     -0.0002
     44  C6         5.9860   25.9710   18.2730 C.ar  332  BD5332     -0.0000
     45  C5         6.9850   26.7490   18.8800 C.ar  332  BD5332     -0.0002
     46  C4         7.8800   26.2120   19.8100 C.ar  332  BD5332     -0.0007
@<TRIPOS>BOND
     1    44    43   ar
     2    44    45   ar
     3    21    20   ar
     4    21    22   ar
     5    43    42   ar
     6    20    19   ar
     7    45    46   ar
     8    22    23   ar
     9    42    41   ar
    10    19    18   ar
    11    46    41   ar
    12    41    40    1
    13    23    18   ar
    14    18    17    1
    15    40    39    1
    16    39    37    1
    17    17    16    1
    18    36    37   am
    19    36    27    1
    20    37    38    2
    21    16    24    1
    22    16    14    1
    23    24    25   am
    24    34    35   ar
    25    34    32   ar
    26    25    27    1
    27    25    26    2
    28    27    28    1
    29    35    29   ar
    30    14    15    2
    31    14    13   am
    32    33    32    1
    33    11    10   ar
    34    32    31   ar
    35    29    28    1
    36    29    30   ar
    37    13     9    1
    38    31    30   ar
    39    10     9    1
    40    10    12   ar
    41     9     8    1
    42     5     6   ar
    43     5     3   ar
    44     6     7   ar
    45     4     3    1
    46     3     2   ar
    47     7     8    1
    48     7     1   ar
    49     2     1   ar
