@<TRIPOS>MOLECULE
3hxc_BD6_B_1.pdb
 48 52 0 0 0
SMALL
GASTEIGER

@<TRIPOS>ATOM
      1  CD2        6.6300   25.4020   19.6280 C.2   334  BD6334      0.0115
      2  CE3        5.2980   25.7610   19.4510 C.2   334  BD6334      0.0006
      3  CZ3        4.9520   26.7920   18.5930 C.2   334  BD6334     -0.0042
      4  CH2        5.9480   27.4610   17.9000 C.2   334  BD6334     -0.0198
      5  CZ2        7.2810   27.0980   18.0730 C.3   334  BD6334      0.0717
      6  CE2        7.6260   26.0700   18.9380 C.2   334  BD6334      0.0631
      7  NE1        8.7890   25.5310   19.2860 N.2   334  BD6334     -0.2482
      8  CD1        8.5660   24.5530   20.1690 C.2   334  BD6334      0.0943
      9  CG         7.2600   24.4520   20.4080 C.2   334  BD6334      0.0002
     10  CB         6.5630   23.4590   21.3480 C.3   334  BD6334      0.0561
     11  CA         6.2560   24.0400   22.7400 C.3   334  BD6334      0.1444
     12  C          5.2200   25.1800   22.6530 C.2   334  BD6334      0.1070
     13  O          4.0300   24.9760   22.3930 O.2   334  BD6334     -0.5379
     14  NBC        5.7290   26.3860   22.8760 N.am  334  BD6334     -0.2012
     15  OAF        4.9520   27.5060   22.8400 O.3   334  BD6334     -0.4026
     16  N          5.7270   22.9670   23.6190 N.am  334  BD6334     -0.1989
     17  CBK        5.6260   23.0660   24.9530 C.2   334  BD6334      0.2601
     18  OAD        5.9710   24.0530   25.6030 O.2   334  BD6334     -0.2715
     19  CBU        5.0400   21.8250   25.6540 C.3   334  BD6334      0.1579
     20  CAZ        4.2310   22.2710   26.8890 C.3   334  BD6334      0.0556
     21  CBN        3.6480   21.1100   27.6980 C.ar  334  BD6334     -0.0200
     22  CAQ        4.3820   20.5570   28.7430 C.ar  334  BD6334     -0.0042
     23  CAK        3.8580   19.5060   29.4880 C.ar  334  BD6334     -0.0003
     24  CAH        2.5940   19.0020   29.1840 C.ar  334  BD6334     -0.0000
     25  CAL        1.8580   19.5540   28.1350 C.ar  334  BD6334     -0.0003
     26  CAR        2.3870   20.6110   27.3970 C.ar  334  BD6334     -0.0042
     27  NBV        6.1420   20.9010   26.0420 N.am  334  BD6334     -0.2695
     28  CAA        7.4480   21.3800   26.5610 C.3   334  BD6334      0.1153
     29  CBL        6.0360   19.5580   25.9620 C.2   334  BD6334      0.2464
     30  OAE        6.9580   18.7990   26.2650 O.2   334  BD6334     -0.2730
     31  CBT        4.7310   18.9590   25.4100 C.3   334  BD6334      0.1802
     32  CAY        4.1720   17.8580   26.3090 C.3   334  BD6334      0.0745
     33  CBO        2.8170   17.3110   25.8220 C.2   334  BD6334      0.0653
     34  CAV        2.1650   17.5990   24.6920 C.3   334  BD6334      0.1683
     35  NBF        1.0330   16.9000   24.6740 N.2   334  BD6334     -0.2440
     36  CAS        0.9720   16.1810   25.7880 C.2   334  BD6334      0.1939
     37  NBB        2.0710   16.4340   26.4950 N.2   334  BD6334     -0.2310
     38  NBD        5.1950   18.3990   24.1570 N.am  334  BD6334     -0.1607
     39  CBI        5.1290   19.1150   23.0560 C.2   334  BD6334      0.4219
     40  OAB        4.6240   20.2390   23.0150 O.2   334  BD6334     -0.2245
     41  OBH        5.6300   18.5710   21.9160 O.3   334  BD6334     -0.4285
     42  CAX        6.0110   19.6720   21.0140 C.3   334  BD6334      0.2368
     43  CBM        7.0700   19.6450   20.1500 C.ar  334  BD6334      0.0213
     44  CAO        7.9490   18.5640   20.1550 C.ar  334  BD6334     -0.0007
     45  CAI        9.0140   18.5660   19.2800 C.ar  334  BD6334     -0.0002
     46  CAG        9.1780   19.6520   18.4280 C.ar  334  BD6334     -0.0000
     47  CAJ        8.3000   20.7260   18.4290 C.ar  334  BD6334     -0.0002
     48  CAP        7.2330   20.7360   19.2980 C.ar  334  BD6334     -0.0007
@<TRIPOS>BOND
     1     4     5    1
     2     4     3    2
     3     5     6    1
     4    46    47   ar
     5    46    45   ar
     6    47    48   ar
     7     3     2    1
     8     6     7    2
     9     6     1    1
    10    45    44   ar
    11     7     8    1
    12    48    43   ar
    13     2     1    2
    14     1     9    1
    15    43    44   ar
    16    43    42    1
    17     8     9    2
    18     9    10    1
    19    42    41    1
    20    10    11    1
    21    41    39    1
    22    13    12    2
    23    12    11    1
    24    12    14   am
    25    11    16    1
    26    15    14    1
    27    40    39    2
    28    39    38   am
    29    16    17   am
    30    38    31    1
    31    35    34    1
    32    35    36    2
    33    34    33    1
    34    17    18    2
    35    17    19    1
    36    31    29    1
    37    31    32    1
    38    19    27    1
    39    19    20    1
    40    36    37    1
    41    33    32    1
    42    33    37    2
    43    29    27   am
    44    29    30    2
    45    27    28    1
    46    20    21    1
    47    26    21   ar
    48    26    25   ar
    49    21    22   ar
    50    25    24   ar
    51    22    23   ar
    52    24    23   ar
