@<TRIPOS>MOLECULE
3hxd_BD7_B_1.pdb
 46 49 0 0 0
SMALL
GASTEIGER

@<TRIPOS>ATOM
      1  CD1        6.9390   24.3340   19.1600 C.ar  334  BD7334     -0.0009
      2  CE1        7.7550   25.0640   18.3010 C.ar  334  BD7334      0.0417
      3  CZ         9.0450   25.4070   18.7020 C.ar  334  BD7334      0.1957
      4  OH         9.8790   26.1070   17.8970 O.3   334  BD7334     -0.2866
      5  CE2        9.5160   25.0260   19.9460 C.ar  334  BD7334      0.0417
      6  CD2        8.7010   24.3060   20.8030 C.ar  334  BD7334     -0.0009
      7  CG         7.4180   23.9640   20.4140 C.ar  334  BD7334     -0.0198
      8  CB         6.5490   23.1560   21.3720 C.3   334  BD7334      0.0545
      9  CA         6.2650   23.8900   22.6760 C.3   334  BD7334      0.1444
     10  C          5.1840   24.9480   22.4070 C.2   334  BD7334      0.1070
     11  O          4.0750   24.6260   21.9830 O.2   334  BD7334     -0.5379
     12  NBC        5.5430   26.2090   22.6530 N.am  334  BD7334     -0.2012
     13  OAF        4.6730   27.2540   22.4500 O.3   334  BD7334     -0.4026
     14  N          5.7720   22.8730   23.6340 N.am  334  BD7334     -0.1989
     15  CBJ        5.7460   22.9940   24.9640 C.2   334  BD7334      0.2601
     16  OAD        6.1450   23.9750   25.5900 O.2   334  BD7334     -0.2715
     17  CBS        5.1790   21.7510   25.6780 C.3   334  BD7334      0.1579
     18  CBA        4.4960   22.1690   26.9930 C.3   334  BD7334      0.0556
     19  CBN        3.8430   20.9960   27.7310 C.ar  334  BD7334     -0.0200
     20  CAP        4.4650   20.4510   28.8530 C.ar  334  BD7334     -0.0042
     21  CAL        3.8780   19.3890   29.5340 C.ar  334  BD7334     -0.0003
     22  CAI        2.6640   18.8680   29.0880 C.ar  334  BD7334     -0.0000
     23  CAM        2.0410   19.4200   27.9670 C.ar  334  BD7334     -0.0003
     24  CAQ        2.6320   20.4850   27.2880 C.ar  334  BD7334     -0.0042
     25  NBT        6.3000   20.7980   25.9210 N.am  334  BD7334     -0.2695
     26  CAA        7.6500   21.2390   26.3620 C.3   334  BD7334      0.1153
     27  CBK        6.1970   19.4650   25.7620 C.2   334  BD7334      0.2464
     28  OAE        7.1520   18.7100   25.9560 O.2   334  BD7334     -0.2730
     29  CBR        4.8570   18.8690   25.2890 C.3   334  BD7334      0.1802
     30  CAZ        4.3310   17.8380   26.2840 C.3   334  BD7334      0.0745
     31  CBP        2.9770   17.2390   25.8750 C.2   334  BD7334      0.0653
     32  CAW        2.2170   17.5650   24.8300 C.3   334  BD7334      0.1683
     33  NBF        1.1250   16.8050   24.8500 N.2   334  BD7334     -0.2440
     34  CAV        1.1990   16.0060   25.9070 C.2   334  BD7334      0.1939
     35  NBB        2.3360   16.2790   26.5390 N.2   334  BD7334     -0.2310
     36  NBD        5.2290   18.1930   24.0580 N.am  334  BD7334     -0.1607
     37  CBH        5.3540   18.8740   22.9350 C.2   334  BD7334      0.4219
     38  OAB        5.1100   20.0820   22.8550 O.2   334  BD7334     -0.2245
     39  OBG        5.7540   18.1990   21.8170 O.3   334  BD7334     -0.4285
     40  CAX        5.9030   19.1600   20.7050 C.3   334  BD7334      0.2368
     41  CBM        7.0320   19.3730   19.9580 C.ar  334  BD7334      0.0213
     42  CAN        8.1060   18.4930   20.0700 C.ar  334  BD7334     -0.0007
     43  CAJ        9.2280   18.7240   19.3080 C.ar  334  BD7334     -0.0002
     44  CAH        9.2590   19.8130   18.4490 C.ar  334  BD7334     -0.0000
     45  CAK        8.1830   20.6850   18.3380 C.ar  334  BD7334     -0.0002
     46  CAO        7.0520   20.4710   19.0900 C.ar  334  BD7334     -0.0007
@<TRIPOS>BOND
     1     4     3    1
     2     2     3   ar
     3     2     1   ar
     4    45    44   ar
     5    45    46   ar
     6    44    43   ar
     7     3     5   ar
     8    46    41   ar
     9     1     7   ar
    10    43    42   ar
    11     5     6   ar
    12    41    42   ar
    13    41    40    1
    14     7     6   ar
    15     7     8    1
    16    40    39    1
    17     8     9    1
    18    39    37    1
    19    11    10    2
    20    10    12   am
    21    10     9    1
    22    13    12    1
    23     9    14    1
    24    38    37    2
    25    37    36   am
    26    14    15   am
    27    36    29    1
    28    32    33    1
    29    32    31    1
    30    33    34    2
    31    15    16    2
    32    15    17    1
    33    29    27    1
    34    29    30    1
    35    17    25    1
    36    17    18    1
    37    27    25   am
    38    27    28    2
    39    31    30    1
    40    31    35    2
    41    34    35    1
    42    25    26    1
    43    18    19    1
    44    24    19   ar
    45    24    23   ar
    46    19    20   ar
    47    23    22   ar
    48    20    21   ar
    49    22    21   ar
