@<TRIPOS>MOLECULE
3hxn_HEM_A_1.pdb
 43 50 0 0 0
SMALL
GASTEIGER

@<TRIPOS>ATOM
      1  CHA       26.0750   13.4710   23.9870 C.2   142  HEM142      0.0000
      2  CHB       21.5860   14.8320   25.0200 C.2   142  HEM142      0.0000
      3  CHC       20.0690   10.4510   23.7210 C.2   142  HEM142      0.0000
      4  CHD       24.5150    9.2150   22.5650 C.2   142  HEM142      0.0000
      5  C1A       24.9760   14.2130   24.3390 C.2   142  HEM142      0.0000
      6  C2A       25.0710   15.4560   25.0130 C.2   142  HEM142      0.0000
      7  C3A       23.8220   15.7950   25.3190 C.2   142  HEM142      0.0000
      8  C4A       22.9490   14.7880   24.8950 C.2   142  HEM142      0.0000
      9  CMA       23.5560   17.1230   25.9640 C.3   142  HEM142      0.0000
     10  CAA       26.2870   16.2790   25.4480 C.3   142  HEM142      0.0000
     11  CBA       26.7180   17.2460   24.3590 C.3   142  HEM142      0.0000
     12  CGA       27.9650   17.9680   24.6670 C.2   142  HEM142      0.0000
     13  O1A       29.0520   17.5570   24.1770 O.co2 142  HEM142      0.0000
     14  O2A       27.9260   19.0150   25.3770 O.co2 142  HEM142      0.0000
     15  C1B       20.7890   13.8010   24.6210 C.ar  142  HEM142      0.0000
     16  C2B       19.4040   13.8140   24.8170 C.ar  142  HEM142      0.0000
     17  C3B       18.9480   12.5760   24.5080 C.ar  142  HEM142      0.0000
     18  C4B       20.1190   11.7660   24.1580 C.ar  142  HEM142      0.0000
     19  CMB       18.4510   14.9020   25.3380 C.3   142  HEM142      0.0000
     20  CAB       17.5530   12.2860   24.4210 C.2   142  HEM142      0.0000
     21  CBB       16.7550   11.7070   25.3830 C.2   142  HEM142      0.0000
     22  C1C       21.1770    9.7670   23.3320 C.2   142  HEM142      0.0000
     23  C2C       21.1380    8.4500   22.8220 C.2   142  HEM142      0.0000
     24  C3C       22.4370    8.0940   22.4670 C.2   142  HEM142      0.0000
     25  C4C       23.1810    9.3030   22.6590 C.2   142  HEM142      0.0000
     26  CMC       19.8860    7.7840   22.2640 C.3   142  HEM142      0.0000
     27  CAC       23.0110    6.8470   22.0590 C.2   142  HEM142      0.0000
     28  CBC       22.7690    5.6370   22.6330 C.2   142  HEM142      0.0000
     29  C1D       25.3280   10.1960   22.9990 C.ar  142  HEM142      0.0000
     30  C2D       26.7690   10.1230   22.9050 C.ar  142  HEM142      0.0000
     31  C3D       27.2010   11.3270   23.2790 C.ar  142  HEM142      0.0000
     32  C4D       26.0120   12.1610   23.5420 C.ar  142  HEM142      0.0000
     33  CMD       27.6280    9.0630   22.2890 C.3   142  HEM142      0.0000
     34  CAD       28.6440   11.7160   23.4460 C.3   142  HEM142      0.0000
     35  CBD       29.1980   11.3380   24.8370 C.3   142  HEM142      0.0000
     36  CGD       30.5480   11.9000   25.0830 C.2   142  HEM142      0.0000
     37  O1D       30.7090   12.8410   25.9340 O.co2 142  HEM142      0.0000
     38  O2D       31.5460   11.4660   24.4410 O.co2 142  HEM142      0.0000
     39  NA        23.6730   13.7340   24.3150 N.2   142  HEM142      0.0000
     40  NB        21.2560   12.5500   24.1950 N.ar  142  HEM142      0.0000
     41  NC        22.4420   10.2780   23.2210 N.2   142  HEM142      0.0000
     42  ND        24.8770   11.4230   23.4150 N.ar  142  HEM142      0.0000
     43 FE         23.0480   12.0290   23.6210 Fe    142  HEM142      0.0000
@<TRIPOS>BOND
     1    27    24    1
     2    27    28    2
     3    26    23    1
     4    33    30    1
     5    24    25    1
     6    24    23    2
     7     4    25    1
     8     4    29    2
     9    25    41    2
    10    23    22    1
    11    30    29   ar
    12    30    31   ar
    13    29    42   ar
    14    41    22    1
    15    41    43    1
    16    31    34    1
    17    31    32   ar
    18    22     3    2
    19    42    32   ar
    20    42    43    1
    21    34    35    1
    22    32     1    2
    23    43    40    1
    24    43    39    1
    25     3    18    1
    26     1     5    1
    27    18    40   ar
    28    18    17   ar
    29    13    12   ar
    30    40    15   ar
    31    39     5    2
    32    39     8    1
    33     5     6    1
    34    11    12    1
    35    11    10    1
    36    20    17    1
    37    20    21    2
    38    38    36   ar
    39    17    16   ar
    40    15    16   ar
    41    15     2    1
    42    12    14   ar
    43    16    19    1
    44    35    36    1
    45     8     2    2
    46     8     7    1
    47     6     7    2
    48     6    10    1
    49    36    37   ar
    50     7     9    1
