@<TRIPOS>MOLECULE
3hxn_IHP_D_1.pdb
 36 36 0 0 0
SMALL
GASTEIGER

@<TRIPOS>ATOM
      1  C1        15.3950  -21.1630   19.4790 C.3   149  IHP149      0.1863
      2  C2        16.7180  -20.4620   19.1530 C.3   149  IHP149      0.1863
      3  C3        16.9740  -19.1600   19.8360 C.3   149  IHP149      0.1863
      4  C4        15.9290  -18.1510   19.5230 C.3   149  IHP149      0.1863
      5  C5        14.6050  -18.6800   18.9380 C.3   149  IHP149      0.1863
      6  C6        14.1900  -20.1520   19.2030 C.3   149  IHP149      0.1863
      7  O11       15.3960  -21.6510   20.8520 O.3   149  IHP149     -0.2675
      8  P1        14.1390  -22.5200   21.5540 P.3   149  IHP149      0.5327
      9  O21       13.9020  -23.8070   20.7220 O.2   149  IHP149     -0.2224
     10  O31       14.6940  -22.7800   22.9540 O.3   149  IHP149     -0.1145
     11  O41       12.8930  -21.6840   21.6630 O.3   149  IHP149     -0.1145
     12  O12       17.7730  -21.3540   19.4450 O.3   149  IHP149     -0.2675
     13  P2        17.7470  -22.8560   18.7880 P.3   149  IHP149      0.5327
     14  O22       16.8510  -22.8980   17.5320 O.2   149  IHP149     -0.2224
     15  O32       17.2530  -23.8260   19.8960 O.3   149  IHP149     -0.1145
     16  O42       19.1980  -23.0790   18.4360 O.3   149  IHP149     -0.1145
     17  O13       17.0310  -19.3050   21.2480 O.3   149  IHP149     -0.2675
     18  P3        18.0070  -18.3300   22.1390 P.3   149  IHP149      0.5327
     19  O23       19.3870  -18.9790   22.0280 O.3   149  IHP149     -0.1145
     20  O33       17.3270  -18.3890   23.5150 O.3   149  IHP149     -0.1145
     21  O43       18.0120  -16.9350   21.5920 O.2   149  IHP149     -0.2224
     22  O14       16.4490  -17.2790   18.4830 O.3   149  IHP149     -0.2675
     23  P4        16.9700  -15.7190   18.6590 P.3   149  IHP149      0.5327
     24  O24       16.7620  -15.1630   20.0560 O.3   149  IHP149     -0.1145
     25  O34       16.1590  -15.0830   17.5380 O.2   149  IHP149     -0.2224
     26  O44       18.4560  -15.7570   18.3070 O.3   149  IHP149     -0.1145
     27  O15       13.4930  -17.9230   19.3040 O.3   149  IHP149     -0.2675
     28  P5        13.4660  -16.7490   20.4610 P.3   149  IHP149      0.5327
     29  O25       14.6910  -15.9020   20.2850 O.3   149  IHP149     -0.1145
     30  O35       13.4130  -17.6140   21.7200 O.3   149  IHP149     -0.1145
     31  O45       12.2790  -15.8410   20.2660 O.2   149  IHP149     -0.2224
     32  O16       13.5280  -20.5150   17.9890 O.3   149  IHP149     -0.2675
     33  P6        12.0750  -21.2420   17.8890 P.3   149  IHP149      0.5327
     34  O26       11.2320  -20.7580   18.9910 O.3   149  IHP149     -0.1145
     35  O36       11.6640  -20.8210   16.4910 O.2   149  IHP149     -0.2224
     36  O46       12.3180  -22.7550   17.9500 O.3   149  IHP149     -0.1145
@<TRIPOS>BOND
     1    35    33    2
     2    14    13    2
     3    25    23    2
     4    33    36    1
     5    33    32    1
     6    33    34    1
     7    32     6    1
     8    26    23    1
     9    16    13    1
    10    22    23    1
    11    22     4    1
    12    23    24    1
    13    13    12    1
    14    13    15    1
    15     5     6    1
    16     5    27    1
    17     5     4    1
    18     2    12    1
    19     2     1    1
    20     2     3    1
    21     6     1    1
    22    27    28    1
    23     1     7    1
    24     4     3    1
    25     3    17    1
    26    31    28    2
    27    29    28    1
    28    28    30    1
    29     9     8    2
    30     7     8    1
    31    17    18    1
    32     8    11    1
    33     8    10    1
    34    21    18    2
    35    19    18    1
    36    18    20    1
