@<TRIPOS>MOLECULE
3hxu_A5A_A_1.pdb
 28 30 0 0 0
SMALL
GASTEIGER

@<TRIPOS>ATOM
      1  N         23.6820   49.1300   18.1540 N.3   442  A5A442     -0.1230
      2  CA        23.9250   49.4720   19.5370 C.3   442  A5A442      0.1710
      3  CB        23.0540   50.5620   20.1330 C.3   442  A5A442      0.0305
      4  C         24.4100   48.3890   20.4360 C.2   442  A5A442      0.2798
      5  O         24.1560   47.2280   20.1660 O.2   442  A5A442     -0.2701
      6  N3S       25.0720   48.7700   21.5260 N.am  442  A5A442     -0.0577
      7  S         25.5420   47.7620   22.6240 S.3   442  A5A442      0.0852
      8  O1S       26.2880   46.7470   22.1000 O.3   442  A5A442     -0.0508
      9  O2S       26.1040   48.3200   23.7330 O.3   442  A5A442     -0.0508
     10  O5'       24.2350   47.0120   23.1320 O.3   442  A5A442     -0.2230
     11  C5'       23.1720   47.7570   23.6880 C.3   442  A5A442      0.2064
     12  C4'       22.9790   47.2220   25.0700 C.3   442  A5A442      0.1842
     13  O4'       22.3290   45.9770   25.2690 O.3   442  A5A442     -0.3135
     14  C3'       23.9400   47.5350   26.2070 C.3   442  A5A442      0.2185
     15  O3'       24.2880   48.8380   26.5710 O.3   442  A5A442     -0.2174
     16  C2'       23.5180   46.4920   27.1620 C.3   442  A5A442      0.2570
     17  O2'       22.7120   47.0390   28.1860 O.3   442  A5A442     -0.2130
     18  C1'       22.8240   45.3800   26.4540 C.3   442  A5A442      0.3186
     19  N9        23.6560   44.1890   26.1340 N.pl3 442  A5A442     -0.1439
     20  C8        24.6290   44.0990   25.2240 C.3   442  A5A442      0.3377
     21  N7        25.1370   42.8560   25.2030 N.2   442  A5A442     -0.2095
     22  C5        24.4680   42.1330   26.1080 C.2   442  A5A442      0.2526
     23  C6        24.5140   40.7710   26.5700 C.2   442  A5A442      0.4393
     24  N6        25.3900   39.8960   26.0600 N.pl3 442  A5A442      0.2180
     25  N1        23.6550   40.3880   27.5290 N.2   442  A5A442      0.0021
     26  C2        22.7770   41.2460   28.0560 C.3   442  A5A442      0.5254
     27  N3        22.6950   42.5200   27.6670 N.2   442  A5A442     -0.0055
     28  C4        23.5110   43.0000   26.7060 C.2   442  A5A442      0.3518
@<TRIPOS>BOND
     1     1     2    1
     2     2     3    1
     3     2     4    1
     4     5     4    2
     5     4     6   am
     6     6     7    1
     7     8     7    1
     8     7    10    1
     9     7     9    1
    10    10    11    1
    11    11    12    1
    12    12    13    1
    13    12    14    1
    14    21    20    1
    15    21    22    2
    16    20    19    1
    17    13    18    1
    18    24    23    1
    19    22    23    1
    20    22    28    1
    21    19    18    1
    22    19    28    1
    23    14    15    1
    24    14    16    1
    25    18    16    1
    26    23    25    2
    27    28    27    2
    28    16    17    1
    29    25    26    1
    30    27    26    1
