@<TRIPOS>MOLECULE
3hxv_G5A_A_1.pdb
 27 29 0 0 0
SMALL
GASTEIGER

@<TRIPOS>ATOM
      1  C         24.3910   48.4610   20.4140 C.2   444  G5A444      0.2818
      2  N         23.5430   49.1510   18.1970 N.3   444  G5A444     -0.1209
      3  O         24.1850   47.2970   20.1000 O.2   444  G5A444     -0.2700
      4  S         25.5070   47.7670   22.5970 S.3   444  G5A444      0.0852
      5  N1        23.6510   40.4530   27.4980 N.2   444  G5A444      0.0021
      6  C2        22.7860   41.3240   28.0400 C.3   444  G5A444      0.5254
      7  N3        22.7020   42.6000   27.6320 N.2   444  G5A444     -0.0055
      8  C4        23.5060   43.0560   26.6430 C.2   444  G5A444      0.3518
      9  C5        24.4490   42.1750   26.0270 C.2   444  G5A444      0.2526
     10  C6        24.4960   40.8180   26.5070 C.2   444  G5A444      0.4393
     11  N6        25.3550   39.9170   25.9780 N.pl3 444  G5A444      0.2180
     12  N7        25.0970   42.8930   25.0840 N.2   444  G5A444     -0.2095
     13  C8        24.5930   44.1560   25.1100 C.3   444  G5A444      0.3377
     14  N9        23.6370   44.2420   26.0530 N.pl3 444  G5A444     -0.1439
     15  CA        24.0260   49.6040   19.4860 C.3   444  G5A444      0.1973
     16  C1*       22.8080   45.4200   26.4120 C.3   444  G5A444      0.3186
     17  O1S       26.2550   46.7350   22.0020 O.3   444  G5A444     -0.0508
     18  C2*       23.5500   46.4990   27.1260 C.3   444  G5A444      0.2570
     19  O2*       22.7540   47.0720   28.1390 O.3   444  G5A444     -0.2130
     20  O2S       26.1000   48.3510   23.7420 O.3   444  G5A444     -0.0508
     21  C3*       23.9520   47.5500   26.1760 C.3   444  G5A444      0.2185
     22  O3*       24.3560   48.8190   26.5970 O.3   444  G5A444     -0.2174
     23  N3S       24.9490   48.8270   21.5660 N.am  444  G5A444     -0.0576
     24  C4*       22.9210   47.3230   25.0850 C.3   444  G5A444      0.1842
     25  O4*       22.3100   46.0490   25.2300 O.3   444  G5A444     -0.3135
     26  C5*       23.1500   47.8390   23.7030 C.3   444  G5A444      0.2064
     27  O5*       24.1880   47.0330   23.1640 O.3   444  G5A444     -0.2230
@<TRIPOS>BOND
     1     2    15    1
     2    15     1    1
     3     3     1    2
     4     1    23   am
     5    23     4    1
     6    17     4    1
     7     4    27    1
     8     4    20    1
     9    27    26    1
    10    26    24    1
    11    12    13    1
    12    12     9    2
    13    24    25    1
    14    24    21    1
    15    13    14    1
    16    25    16    1
    17    11    10    1
    18     9    10    1
    19     9     8    1
    20    14    16    1
    21    14     8    1
    22    21    22    1
    23    21    18    1
    24    16    18    1
    25    10     5    2
    26     8     7    2
    27    18    19    1
    28     5     6    1
    29     7     6    1
