@<TRIPOS>MOLECULE
3hxw_SSA_A_1.pdb
 29 31 0 0 0
SMALL
GASTEIGER

@<TRIPOS>ATOM
      1  N10       23.6520   49.3510   18.2250 N.3   442  SSA442     -0.1202
      2  CA        24.3050   49.8430   19.4310 C.3   442  SSA442      0.2036
      3  CB        23.4630   50.9560   20.0500 C.3   442  SSA442      0.2104
      4  OG        22.0910   50.5690   20.0630 O.3   442  SSA442     -0.2182
      5  C9        24.5050   48.7280   20.4200 C.2   442  SSA442      0.2825
      6  O9        24.2100   47.5740   20.1340 O.2   442  SSA442     -0.2700
      7  N8        25.0360   49.0750   21.5940 N.am  442  SSA442     -0.0576
      8  S1        25.4390   47.9810   22.6910 S.3   442  SSA442      0.0852
      9  O1S       26.2790   46.9760   22.0950 O.3   442  SSA442     -0.0508
     10  O2S       26.1160   48.6280   23.7900 O.3   442  SSA442     -0.0508
     11  O5'       24.0970   47.2690   23.2510 O.3   442  SSA442     -0.2230
     12  C5'       23.0740   48.1150   23.7610 C.3   442  SSA442      0.2064
     13  C4'       22.7600   47.6920   25.1830 C.3   442  SSA442      0.1842
     14  O4'       22.3270   46.3290   25.1980 O.3   442  SSA442     -0.3135
     15  C3'       23.9610   47.7370   26.1160 C.3   442  SSA442      0.2185
     16  O3'       24.1690   49.0470   26.6590 O.3   442  SSA442     -0.2174
     17  C2'       23.5510   46.7410   27.1760 C.3   442  SSA442      0.2570
     18  O2'       22.6440   47.3670   28.0940 O.3   442  SSA442     -0.2130
     19  C1'       22.7470   45.7010   26.4080 C.3   442  SSA442      0.3186
     20  N9        23.5600   44.5090   26.0690 N.pl3 442  SSA442     -0.1439
     21  C8        24.5210   44.4170   25.1280 C.3   442  SSA442      0.3377
     22  N7        25.0380   43.1560   25.0930 N.2   442  SSA442     -0.2095
     23  C5        24.3950   42.4350   26.0310 C.2   442  SSA442      0.2526
     24  C6        24.4360   41.0410   26.5250 C.2   442  SSA442      0.4393
     25  N6        25.3040   40.1500   25.9910 N.pl3 442  SSA442      0.2180
     26  N1        23.5810   40.6980   27.5170 N.2   442  SSA442      0.0021
     27  C2        22.7120   41.5760   28.0530 C.3   442  SSA442      0.5254
     28  N3        22.6170   42.8580   27.6510 N.2   442  SSA442     -0.0055
     29  C4        23.4190   43.3300   26.6650 C.2   442  SSA442      0.3518
@<TRIPOS>BOND
     1     1     2    1
     2     2     3    1
     3     2     5    1
     4     3     4    1
     5     6     5    2
     6     5     7   am
     7     7     8    1
     8     9     8    1
     9     8    11    1
    10     8    10    1
    11    11    12    1
    12    12    13    1
    13    22    21    1
    14    22    23    2
    15    21    20    1
    16    13    14    1
    17    13    15    1
    18    14    19    1
    19    25    24    1
    20    23    24    1
    21    23    29    1
    22    20    19    1
    23    20    29    1
    24    15    16    1
    25    15    17    1
    26    19    17    1
    27    24    26    2
    28    29    28    2
    29    17    18    1
    30    26    27    1
    31    28    27    1
