@<TRIPOS>MOLECULE
3hxx_ACP_A_1.pdb
 31 33 0 0 0
SMALL
GASTEIGER

@<TRIPOS>ATOM
      1  PG        20.0000    7.4580   -0.5370 P.3   442  ACP442      0.1295
      2  O1G       20.5110    8.8680   -0.4290 O.3   442  ACP442     -0.3567
      3  O2G       19.6570    6.8360    0.7990 O.3   442  ACP442     -0.3567
      4  O3G       20.8730    6.5840   -1.4090 O.2   442  ACP442     -0.4595
      5  PB        17.5480    6.0270   -1.6600 P.3   442  ACP442      0.3815
      6  O1B       17.4980    5.2670   -0.3560 O.3   442  ACP442     -0.1391
      7  O2B       18.1090    5.3440   -2.8810 O.2   442  ACP442     -0.2547
      8  C3B       18.4210    7.5990   -1.4040 C.3   442  ACP442      0.1768
      9  PA        14.8920    5.8600   -2.8730 P.3   442  ACP442      0.2209
     10  O1A       14.3340    4.6210   -2.2160 O.3   442  ACP442     -0.4371
     11  O2A       15.3880    5.8090   -4.3010 O.2   442  ACP442     -0.5170
     12  O3A       16.0380    6.5020   -1.9470 O.3   442  ACP442     -0.2483
     13  O5'       13.7430    6.9820   -2.7280 O.3   442  ACP442     -0.3111
     14  C5'       13.4700    7.9630   -3.7330 C.3   442  ACP442      0.1813
     15  C4'       13.9390    9.3640   -3.3110 C.3   442  ACP442      0.1821
     16  O4'       13.5050    9.7520   -1.9990 O.3   442  ACP442     -0.3135
     17  C3'       15.4470    9.4960   -3.2770 C.3   442  ACP442      0.2184
     18  O3'       15.9340    9.7850   -4.5850 O.3   442  ACP442     -0.2174
     19  C2'       15.6790   10.6420   -2.3110 C.3   442  ACP442      0.2570
     20  O2'       15.5730   11.8790   -3.0090 O.3   442  ACP442     -0.2130
     21  C1'       14.5020   10.5640   -1.3570 C.3   442  ACP442      0.3186
     22  N9        14.8560    9.9430   -0.0530 N.pl3 442  ACP442     -0.1439
     23  C8        15.0260    8.6190    0.1680 C.3   442  ACP442      0.3377
     24  N7        15.3200    8.3690    1.4680 N.2   442  ACP442     -0.2095
     25  C5        15.3440    9.5550    2.1100 C.2   442  ACP442      0.2526
     26  C6        15.5840   10.0170    3.4980 C.2   442  ACP442      0.4393
     27  N6        15.8640    9.1470    4.5080 N.pl3 442  ACP442      0.2180
     28  N1        15.5050   11.3460    3.7340 N.2   442  ACP442      0.0021
     29  C2        15.2180   12.2370    2.7710 C.3   442  ACP442      0.5254
     30  N3        14.9860   11.8880    1.4950 N.2   442  ACP442     -0.0055
     31  C4        15.0340   10.5890    1.1050 C.2   442  ACP442      0.3518
@<TRIPOS>BOND
     1    18    17    1
     2    11     9    2
     3    14    15    1
     4    14    13    1
     5    15    17    1
     6    15    16    1
     7    17    19    1
     8    20    19    1
     9     7     5    2
    10     9    13    1
    11     9    10    1
    12     9    12    1
    13    19    21    1
    14    16    21    1
    15    12     5    1
    16     5     8    1
    17     5     6    1
    18     4     1    2
    19     8     1    1
    20    21    22    1
    21     1     2    1
    22     1     3    1
    23    22    23    1
    24    22    31    1
    25    23    24    1
    26    31    30    2
    27    31    25    1
    28    24    25    2
    29    30    29    1
    30    25    26    1
    31    29    28    1
    32    26    28    2
    33    26    27    1
