@<TRIPOS>MOLECULE
3hxy_5AL_A_1.pdb
 28 30 0 0 0
SMALL
GASTEIGER

@<TRIPOS>ATOM
      1  C         12.3360    4.4080   -3.7020 C.2   442  5AL442      0.3385
      2  N         10.4040    3.1910   -4.7880 N.3   442  5AL442     -0.1210
      3  O         11.8050    4.4790   -2.6080 O.2   442  5AL442     -0.2482
      4  P         14.7310    5.1130   -2.6260 P.3   442  5AL442      0.2723
      5  N1        16.3440   10.5110    4.3870 N.2   442  5AL442      0.0021
      6  C2        16.1030   11.4380    3.4480 C.3   442  5AL442      0.5254
      7  N3        15.8640   11.1260    2.1670 N.2   442  5AL442     -0.0055
      8  C4        15.8590    9.8340    1.7630 C.2   442  5AL442      0.3518
      9  C5        16.1130    8.8080    2.7230 C.2   442  5AL442      0.2526
     10  C6        16.3590    9.1960    4.0860 C.2   442  5AL442      0.4393
     11  N6        16.6060    8.2770    5.0470 N.pl3 442  5AL442      0.2180
     12  N7        16.0440    7.6400    2.0610 N.2   442  5AL442     -0.2095
     13  C8        15.7680    7.9170    0.7650 C.3   442  5AL442      0.3377
     14  N9        15.6570    9.2430    0.5830 N.pl3 442  5AL442     -0.1439
     15  CA        11.5230    4.1190   -4.9110 C.3   442  5AL442      0.1903
     16  CB        11.3960    5.2310   -5.9550 C.3   442  5AL442      0.0325
     17  C1'       15.3520    9.9670   -0.6890 C.3   442  5AL442      0.3186
     18  O1A       14.6520    4.1170   -1.5010 O.3   442  5AL442     -0.4273
     19  C2'       16.4630    9.9010   -1.6870 C.3   442  5AL442      0.2570
     20  O2'       16.9900   11.1510   -2.1880 O.3   442  5AL442     -0.2130
     21  O2A       16.0550    5.4120   -3.2820 O.2   442  5AL442     -0.5082
     22  C3'       16.1280    8.8650   -2.6610 C.3   442  5AL442      0.2184
     23  O3'       16.7480    8.8300   -3.9640 O.3   442  5AL442     -0.2174
     24  O3A       13.7730    4.6120   -3.8240 O.3   442  5AL442     -0.4091
     25  C4'       14.6650    8.7520   -2.5590 C.3   442  5AL442      0.1822
     26  O4'       14.2120    9.3910   -1.3540 O.3   442  5AL442     -0.3135
     27  C5'       13.9100    7.5640   -3.0850 C.3   442  5AL442      0.1823
     28  O5'       14.0720    6.5010   -2.1540 O.3   442  5AL442     -0.3024
@<TRIPOS>BOND
     1    16    15    1
     2    15     2    1
     3    15     1    1
     4    23    22    1
     5    24     1    1
     6    24     4    1
     7     1     3    2
     8    21     4    2
     9    27    25    1
    10    27    28    1
    11    22    25    1
    12    22    19    1
    13     4    28    1
    14     4    18    1
    15    25    26    1
    16    20    19    1
    17    19    17    1
    18    26    17    1
    19    17    14    1
    20    14    13    1
    21    14     8    1
    22    13    12    1
    23     8     7    2
    24     8     9    1
    25    12     9    2
    26     7     6    1
    27     9    10    1
    28     6     5    1
    29    10     5    2
    30    10    11    1
