@<TRIPOS>MOLECULE
3hxy_ACP_A_1.pdb
 31 33 0 0 0
SMALL
GASTEIGER

@<TRIPOS>ATOM
      1  PG        20.8100    6.3410   -0.2000 P.3   444  ACP444      0.1295
      2  O1G       21.6070    7.6220   -0.1350 O.3   444  ACP444     -0.3567
      3  O2G       20.4710    5.7740    1.1580 O.3   444  ACP444     -0.3567
      4  O3G       21.3660    5.3250   -1.1680 O.2   444  ACP444     -0.4595
      5  PB        18.1660    5.3760   -1.1910 P.3   444  ACP444      0.3815
      6  O1B       18.2710    4.4670    0.0100 O.3   444  ACP444     -0.1391
      7  O2B       18.5030    4.8090   -2.5480 O.2   444  ACP444     -0.2547
      8  C3B       19.2150    6.8280   -0.9090 C.3   444  ACP444      0.1768
      9  PA        15.5120    5.2840   -2.2010 P.3   444  ACP444      0.2209
     10  O1A       14.9890    4.0150   -1.5720 O.3   444  ACP444     -0.4371
     11  O2A       16.0170    5.2670   -3.6250 O.2   444  ACP444     -0.5170
     12  O3A       16.6450    5.9040   -1.2380 O.3   444  ACP444     -0.2483
     13  O5'       14.3660    6.4100   -2.0930 O.3   444  ACP444     -0.3111
     14  C5'       14.1690    7.3430   -3.1530 C.3   444  ACP444      0.1813
     15  C4'       14.6350    8.7360   -2.7400 C.3   444  ACP444      0.1821
     16  O4'       14.2380    9.0430   -1.4010 O.3   444  ACP444     -0.3135
     17  C3'       16.1470    8.8880   -2.7830 C.3   444  ACP444      0.2184
     18  O3'       16.5620    9.4320   -4.0400 O.3   444  ACP444     -0.2174
     19  C2'       16.4640    9.8490   -1.6570 C.3   444  ACP444      0.2570
     20  O2'       16.6030   11.1670   -2.1910 O.3   444  ACP444     -0.2130
     21  C1'       15.2510    9.8100   -0.7400 C.3   444  ACP444      0.3186
     22  N9        15.5950    9.1800    0.5610 N.pl3 444  ACP444     -0.1439
     23  C8        15.7230    7.8580    0.7810 C.3   444  ACP444      0.3377
     24  N7        16.0390    7.6020    2.0750 N.2   444  ACP444     -0.2095
     25  C5        16.1160    8.7840    2.7130 C.2   444  ACP444      0.2526
     26  C6        16.4090    9.2330    4.0950 C.2   444  ACP444      0.4393
     27  N6        16.6900    8.3430    5.0770 N.pl3 444  ACP444      0.2180
     28  N1        16.3870   10.5610    4.3420 N.2   444  ACP444      0.0021
     29  C2        16.1090   11.4570    3.3760 C.3   444  ACP444      0.5254
     30  N3        15.8340   11.1200    2.1020 N.2   444  ACP444     -0.0055
     31  C4        15.8220    9.8220    1.7110 C.2   444  ACP444      0.3518
@<TRIPOS>BOND
     1    18    17    1
     2    11     9    2
     3    14    15    1
     4    14    13    1
     5    17    15    1
     6    17    19    1
     7    15    16    1
     8     7     5    2
     9     9    13    1
    10     9    10    1
    11     9    12    1
    12    20    19    1
    13    19    21    1
    14    16    21    1
    15    12     5    1
    16     5     8    1
    17     5     6    1
    18     4     1    2
    19     8     1    1
    20    21    22    1
    21     1     2    1
    22     1     3    1
    23    22    23    1
    24    22    31    1
    25    23    24    1
    26    31    30    2
    27    31    25    1
    28    24    25    2
    29    30    29    1
    30    25    26    1
    31    29    28    1
    32    26    28    2
    33    26    27    1
