@<TRIPOS>MOLECULE
3hxz_A5A_A_1.pdb
 28 30 0 0 0
SMALL
GASTEIGER

@<TRIPOS>ATOM
      1  N         29.4950   27.1040  -13.2920 N.3   442  A5A442     -0.1230
      2  CA        28.7610   27.1260  -12.0370 C.3   442  A5A442      0.1710
      3  CB        28.7810   25.7370  -11.3990 C.3   442  A5A442      0.0305
      4  C         29.3650   28.1340  -11.0970 C.2   442  A5A442      0.2798
      5  O         30.3780   28.7460  -11.4020 O.2   442  A5A442     -0.2701
      6  N3S       28.7230   28.3130   -9.9420 N.am  442  A5A442     -0.0577
      7  S         29.1510   29.4300   -8.8710 S.3   442  A5A442      0.0852
      8  O1S       28.1970   29.4170   -7.7940 O.3   442  A5A442     -0.0508
      9  O2S       29.1770   30.7280   -9.4710 O.3   442  A5A442     -0.0508
     10  O5'       30.6220   29.1130   -8.2610 O.3   442  A5A442     -0.2230
     11  C5'       30.8850   27.8030   -7.7790 C.3   442  A5A442      0.2064
     12  C4'       31.3420   27.8620   -6.3310 C.3   442  A5A442      0.1842
     13  O4'       32.6000   28.5260   -6.2130 O.3   442  A5A442     -0.3135
     14  C3'       30.4000   28.6290   -5.4160 C.3   442  A5A442      0.2185
     15  O3'       29.3060   27.8120   -4.9800 O.3   442  A5A442     -0.2174
     16  C2'       31.3240   29.0160   -4.2830 C.3   442  A5A442      0.2570
     17  O2'       31.5040   27.8830   -3.4210 O.3   442  A5A442     -0.2130
     18  C1'       32.6560   29.2430   -4.9750 C.3   442  A5A442      0.3186
     19  N9        32.9110   30.6720   -5.2870 N.pl3 442  A5A442     -0.1439
     20  C8        32.2790   31.4170   -6.2010 C.3   442  A5A442      0.3377
     21  N7        32.8150   32.6610   -6.2020 N.2   442  A5A442     -0.2095
     22  C5        33.7980   32.6820   -5.2830 C.2   442  A5A442      0.2526
     23  C6        34.6850   33.6600   -4.8490 C.2   442  A5A442      0.4393
     24  N6        34.6570   34.9040   -5.3880 N.pl3 442  A5A442      0.2180
     25  N1        35.5750   33.3520   -3.8830 N.2   442  A5A442      0.0021
     26  C2        35.6160   32.1240   -3.3470 C.3   442  A5A442      0.5254
     27  N3        34.7700   31.1630   -3.7480 N.2   442  A5A442     -0.0055
     28  C4        33.8560   31.4220   -4.7140 C.2   442  A5A442      0.3518
@<TRIPOS>BOND
     1     1     2    1
     2     2     3    1
     3     2     4    1
     4     5     4    2
     5     4     6   am
     6     6     7    1
     7     9     7    1
     8     7    10    1
     9     7     8    1
    10    10    11    1
    11    11    12    1
    12    12    13    1
    13    12    14    1
    14    13    18    1
    15    21    20    1
    16    21    22    2
    17    20    19    1
    18    14    15    1
    19    14    16    1
    20    24    23    1
    21    19    18    1
    22    19    28    1
    23    22    23    1
    24    22    28    1
    25    18    16    1
    26    23    25    2
    27    28    27    2
    28    16    17    1
    29    25    26    1
    30    27    26    1
