@<TRIPOS>MOLECULE
3hy0_G5A_A_1.pdb
 27 29 0 0 0
SMALL
GASTEIGER

@<TRIPOS>ATOM
      1  C        -20.0710  -24.6910   -4.7440 C.2   442  G5A442      0.2818
      2  N        -20.7780  -23.8500   -2.5370 N.3   442  G5A442     -0.1209
      3  O        -18.9220  -24.4270   -4.4290 O.2   442  G5A442     -0.2700
      4  S        -19.3060  -25.7410   -6.9590 S.3   442  G5A442      0.0852
      5  N1       -11.9550  -23.9650  -11.7960 N.2   442  G5A442      0.0021
      6  C2       -12.8160  -23.1130  -12.3670 C.3   442  G5A442      0.5254
      7  N3       -14.0910  -23.0490  -11.9700 N.2   442  G5A442     -0.0055
      8  C4       -14.5330  -23.8520  -10.9770 C.2   442  G5A442      0.3518
      9  C5       -13.6680  -24.7440  -10.3690 C.2   442  G5A442      0.2526
     10  C6       -12.3450  -24.7900  -10.8020 C.2   442  G5A442      0.4393
     11  N6       -11.4490  -25.6390  -10.2390 N.pl3 442  G5A442      0.2180
     12  N7       -14.3760  -25.3990   -9.4300 N.2   442  G5A442     -0.2095
     13  C8       -15.6440  -24.9200   -9.4590 C.3   442  G5A442      0.3377
     14  N9       -15.7290  -23.9820  -10.4130 N.pl3 442  G5A442     -0.1439
     15  CA       -21.2200  -24.4230   -3.8000 C.3   442  G5A442      0.1973
     16  C1*      -16.9090  -23.1680  -10.8030 C.3   442  G5A442      0.3186
     17  O1S      -19.9800  -26.4330   -8.0210 O.3   442  G5A442     -0.0508
     18  C2*      -17.9730  -23.9600  -11.5450 C.3   442  G5A442      0.2570
     19  O2*      -18.6730  -23.0300  -12.3830 O.3   442  G5A442     -0.2130
     20  O2S      -18.3800  -26.6170   -6.3120 O.3   442  G5A442     -0.0508
     21  C3*      -18.8850  -24.4090  -10.4290 C.3   442  G5A442      0.2185
     22  O3*      -20.2200  -24.6940  -10.8660 O.3   442  G5A442     -0.2174
     23  N3S      -20.4060  -25.2350   -5.9110 N.am  442  G5A442     -0.0576
     24  C4*      -18.8710  -23.1680   -9.5530 C.3   442  G5A442      0.1842
     25  O4*      -17.5300  -22.6750   -9.6160 O.3   442  G5A442     -0.3135
     26  C5*      -19.2800  -23.4180   -8.1150 C.3   442  G5A442      0.2064
     27  O5*      -18.5090  -24.4780   -7.5800 O.3   442  G5A442     -0.2230
@<TRIPOS>BOND
     1    19    18    1
     2     6     7    1
     3     6     5    1
     4     7     8    2
     5     5    10    2
     6    18    16    1
     7    18    21    1
     8     8    14    1
     9     8     9    1
    10    22    21    1
    11    16    14    1
    12    16    25    1
    13    10     9    1
    14    10    11    1
    15    21    24    1
    16    14    13    1
    17     9    12    2
    18    25    24    1
    19    24    26    1
    20    13    12    1
    21    26    27    1
    22    17     4    1
    23    27     4    1
    24     4    20    1
    25     4    23    1
    26    23     1   am
    27     1     3    2
    28     1    15    1
    29    15     2    1
