@<TRIPOS>MOLECULE
3hy1_SSA_A_1.pdb
 29 31 0 0 0
SMALL
GASTEIGER

@<TRIPOS>ATOM
      1  N10       -2.2070  -15.0840  -34.1420 N.3   442  SSA442     -0.1202
      2  CA        -3.4700  -15.7540  -34.3840 C.3   442  SSA442      0.2036
      3  CB        -3.6980  -16.6870  -33.2100 C.3   442  SSA442      0.2104
      4  OG        -2.4600  -16.6630  -32.4570 O.3   442  SSA442     -0.2182
      5  C9        -4.5270  -14.7030  -34.4620 C.2   442  SSA442      0.2825
      6  O9        -4.2710  -13.5720  -34.0860 O.2   442  SSA442     -0.2700
      7  N8        -5.7080  -15.0330  -34.9590 N.am  442  SSA442     -0.0576
      8  S1        -6.6720  -13.8020  -35.2580 S.3   442  SSA442      0.0852
      9  O1S       -5.9500  -12.8260  -36.0260 O.3   442  SSA442     -0.0508
     10  O2S       -7.8180  -14.2490  -35.9970 O.3   442  SSA442     -0.0508
     11  O5'       -7.1480  -13.1410  -33.8450 O.3   442  SSA442     -0.2230
     12  C5'       -7.4340  -14.0240  -32.7690 C.3   442  SSA442      0.2064
     13  C4'       -8.7760  -13.6640  -32.1570 C.3   442  SSA442      0.1842
     14  O4'       -8.7350  -12.3540  -31.5870 O.3   442  SSA442     -0.3135
     15  C3'       -9.9010  -13.6380  -33.1740 C.3   442  SSA442      0.2185
     16  O3'      -10.4990  -14.9290  -33.3030 O.3   442  SSA442     -0.2174
     17  C2'      -10.8710  -12.6580  -32.5610 C.3   442  SSA442      0.2570
     18  O2'      -11.7140  -13.3540  -31.6400 O.3   442  SSA442     -0.2130
     19  C1'       -9.9930  -11.7000  -31.7770 C.3   442  SSA442      0.3186
     20  N9        -9.7920  -10.4500  -32.5480 N.pl3 442  SSA442     -0.1439
     21  C8        -8.9990  -10.3090  -33.6280 C.3   442  SSA442      0.3377
     22  N7        -9.0320   -9.0370  -34.0970 N.2   442  SSA442     -0.2095
     23  C5        -9.8630   -8.3400  -33.3030 C.2   442  SSA442      0.2526
     24  C6       -10.3480   -6.9440  -33.2390 C.2   442  SSA442      0.4393
     25  N6        -9.9360   -6.0240  -34.1440 N.pl3 442  SSA442      0.2180
     26  N1       -11.2120   -6.6210  -32.2500 N.2   442  SSA442      0.0021
     27  C2       -11.6260   -7.5300  -31.3480 C.3   442  SSA442      0.5254
     28  N3       -11.2280   -8.8160  -31.3470 N.2   442  SSA442     -0.0055
     29  C4       -10.3620   -9.2740  -32.2840 C.2   442  SSA442      0.3518
@<TRIPOS>BOND
     1     9     8    1
     2    10     8    1
     3     8     7    1
     4     8    11    1
     5     7     5   am
     6     5     2    1
     7     5     6    2
     8     2     1    1
     9     2     3    1
    10    25    24    1
    11    22    21    1
    12    22    23    2
    13    11    12    1
    14    21    20    1
    15    23    24    1
    16    23    29    1
    17    16    15    1
    18    24    26    2
    19     3     4    1
    20    15    17    1
    21    15    13    1
    22    12    13    1
    23    17    19    1
    24    17    18    1
    25    20    29    1
    26    20    19    1
    27    29    28    2
    28    26    27    1
    29    13    14    1
    30    19    14    1
    31    27    28    1
