@<TRIPOS>MOLECULE
3hy2_ATP_X_1.pdb
 31 33 0 0 0
SMALL
GASTEIGER

@<TRIPOS>ATOM
      1  PG         1.9140  -18.6530   31.3750 P.3     1  ATP1        0.5373
      2  O1G        3.3180  -18.2330   31.7400 O.3     1  ATP1       -0.1143
      3  O2G        0.9660  -17.4760   31.3150 O.3     1  ATP1       -0.1143
      4  O3G        1.7500  -19.5630   30.2100 O.2     1  ATP1       -0.2221
      5  PB         2.0170  -19.3640   34.1240 P.3     1  ATP1        0.2277
      6  O1B        1.1050  -19.9540   35.1680 O.3     1  ATP1       -0.4368
      7  O2B        2.4310  -17.9430   34.3340 O.2     1  ATP1       -0.5168
      8  O3B        1.3810  -19.5220   32.6650 O.3     1  ATP1       -0.2258
      9  PA         4.8460  -19.9030   34.4100 P.3     1  ATP1        0.2189
     10  O1A        5.2980  -18.5680   33.8520 O.2     1  ATP1       -0.5170
     11  O2A        5.6870  -21.0890   34.0280 O.3     1  ATP1       -0.4371
     12  O3A        3.3540  -20.2730   33.9500 O.3     1  ATP1       -0.2700
     13  O5'        4.7940  -19.7330   36.0000 O.3     1  ATP1       -0.3112
     14  C5'        4.4700  -20.8000   36.8780 C.3     1  ATP1        0.1813
     15  C4'        5.0370  -20.4610   38.2510 C.3     1  ATP1        0.1821
     16  O4'        4.7040  -21.5320   39.1330 O.3     1  ATP1       -0.3135
     17  C3'        6.5490  -20.3220   38.2990 C.3     1  ATP1        0.2184
     18  O3'        6.8720  -19.4330   39.3760 O.3     1  ATP1       -0.2174
     19  C2'        7.0370  -21.7130   38.6700 C.3     1  ATP1        0.2570
     20  O2'        8.2570  -21.7220   39.4180 O.3     1  ATP1       -0.2130
     21  C1'        5.9170  -22.1840   39.5770 C.3     1  ATP1        0.3186
     22  N9         5.7400  -23.6540   39.5980 N.pl3   1  ATP1       -0.1439
     23  C8         5.6840  -24.3780   40.7270 C.3     1  ATP1        0.3377
     24  N7         5.4810  -25.6910   40.4410 N.2     1  ATP1       -0.2095
     25  C5         5.4150  -25.8150   39.0980 C.2     1  ATP1        0.2526
     26  C6         5.2250  -26.9230   38.1360 C.2     1  ATP1        0.4393
     27  N6         5.0650  -28.2010   38.5680 N.pl3   1  ATP1        0.2180
     28  N1         5.2130  -26.6190   36.8200 N.2     1  ATP1        0.0021
     29  C2         5.3880  -25.3540   36.3740 C.3     1  ATP1        0.5254
     30  N3         5.5690  -24.3010   37.2000 N.2     1  ATP1       -0.0055
     31  C4         5.5840  -24.4600   38.5480 C.2     1  ATP1        0.3518
@<TRIPOS>BOND
     1     4     1    2
     2     3     1    1
     3     1     2    1
     4     1     8    1
     5     8     5    1
     6    10     9    2
     7    12     5    1
     8    12     9    1
     9    11     9    1
    10     5     7    2
    11     5     6    1
    12     9    13    1
    13    13    14    1
    14    29    28    1
    15    29    30    1
    16    28    26    2
    17    14    15    1
    18    30    31    2
    19    26    27    1
    20    26    25    1
    21    15    17    1
    22    15    16    1
    23    17    19    1
    24    17    18    1
    25    31    25    1
    26    31    22    1
    27    19    20    1
    28    19    21    1
    29    25    24    2
    30    16    21    1
    31    21    22    1
    32    22    23    1
    33    24    23    1
