@<TRIPOS>MOLECULE
3hy3_10F_A_1.pdb
 34 36 0 0 0
SMALL
GASTEIGER

@<TRIPOS>ATOM
      1  N1        12.2680   17.5350   -6.2370 N.3   501  10F501     -0.1673
      2  C2        11.7050   18.7390   -5.5340 C.3   501  10F501      0.2442
      3  NA2       12.5580   19.8670   -5.7160 N.3   501  10F501     -0.0936
      4  N3        10.2630   19.1310   -5.7910 N.3   501  10F501     -0.1540
      5  C4         9.3870   17.9410   -5.9380 C.3   501  10F501      0.2531
      6  O4         8.0910   18.2010   -6.3040 O.3   501  10F501     -0.2013
      7  C4A       10.0400   16.8980   -6.8150 C.3   501  10F501      0.1822
      8  N5         9.0000   15.8470   -7.0730 N.2   501  10F501     -0.2707
      9  C6         9.7120   14.7420   -7.7970 C.2   501  10F501      0.0693
     10  C7        10.9180   14.1050   -7.0780 C.3   501  10F501      0.1326
     11  N8        11.9300   15.1920   -6.8710 N.3   501  10F501     -0.1942
     12  C8A       11.3010   16.3970   -6.1810 C.3   501  10F501      0.1747
     13  C9         8.9180   14.0340   -8.9440 C.3   501  10F501      0.1356
     14  N10        8.6060   14.6600   -9.9110 N.pl3 501  10F501     -0.2748
     15  C11        4.2470   14.7750  -10.8970 C.ar  501  10F501      0.0246
     16  C12        5.1320   16.0850  -11.1060 C.ar  501  10F501      0.0009
     17  C13        6.6470   16.0490  -10.8000 C.ar  501  10F501      0.0144
     18  C14        7.2400   14.7030  -10.2670 C.ar  501  10F501      0.0499
     19  C15        6.3770   13.3920  -10.0250 C.ar  501  10F501      0.0144
     20  C16        4.8640   13.4540  -10.3400 C.ar  501  10F501      0.0009
     21  C17        2.7570   14.8400  -11.1050 C.3   501  10F501      0.2488
     22  N          2.4330   15.9940  -11.9070 N.3   501  10F501     -0.1788
     23  CA         1.9250   16.0270  -13.2720 C.3   501  10F501      0.1676
     24  CB         1.1950   17.3680  -13.4350 C.3   501  10F501      0.0336
     25  CG         2.2550   18.4480  -13.0710 C.3   501  10F501      0.1015
     26  CD         2.7070   19.3370  -14.2760 C.3   501  10F501      0.4260
     27  OE1        3.2030   20.6070  -13.8780 O.2   501  10F501     -0.2671
     28  OE2        1.7710   19.4460  -15.3280 O.2   501  10F501     -0.2671
     29  CT         1.0520   14.8100  -13.5650 C.3   501  10F501      0.4414
     30  O2         1.8630   13.6640  -13.7290 O.2   501  10F501     -0.2654
     31  O1        -0.0050   14.6680  -12.6360 O.2   501  10F501     -0.2654
     32  C18        9.6610   14.9020  -10.8230 C.3   501  10F501      0.2785
     33  O5        10.6830   14.6740  -10.3670 O.3   501  10F501     -0.1959
     34  O          2.1450   14.6670  -10.1340 O.3   501  10F501     -0.1986
@<TRIPOS>BOND
     1    28    26    1
     2    26    27    1
     3    26    25    1
     4    30    29    1
     5    29    23    1
     6    29    31    1
     7    24    23    1
     8    24    25    1
     9    23    22    1
    10    22    21    1
    11    16    15   ar
    12    16    17   ar
    13    21    15    1
    14    21    34    1
    15    15    20   ar
    16    32    33    1
    17    32    14    1
    18    17    18   ar
    19    20    19   ar
    20    18    19   ar
    21    18    14    1
    22    14    13    1
    23    13     9    1
    24     9    10    1
    25     9     8    2
    26    10    11    1
    27     8     7    1
    28    11    12    1
    29     7    12    1
    30     7     5    1
    31     6     5    1
    32     1    12    1
    33     1     2    1
    34     5     4    1
    35     4     2    1
    36     3     2    1
