@<TRIPOS>MOLECULE
3hy4_N5G_A_1.pdb
 34 36 0 0 0
SMALL
GASTEIGER

@<TRIPOS>ATOM
      1  N1       -11.1470   16.8930    6.5160 N.3   501  N5G501     -0.1676
      2  C2       -11.2920   17.5690    5.7860 C.3   501  N5G501      0.2442
      3  NA2      -12.6070   18.1730    5.7380 N.3   501  N5G501     -0.0936
      4  N3       -10.0190   18.4770    5.8760 N.3   501  N5G501     -0.1543
      5  C4        -8.7540   17.6230    5.9080 C.3   501  N5G501      0.2489
      6  O4        -7.5770   18.4540    5.2560 O.3   501  N5G501     -0.2016
      7  C4A       -9.0860   16.1410    5.3090 C.3   501  N5G501      0.1556
      8  N5        -8.0080   15.3220    6.1520 N.am  501  N5G501     -0.2661
      9  C6        -8.4280   14.6400    7.5620 C.3   501  N5G501      0.1107
     10  C7        -9.7530   13.8360    7.2960 C.3   501  N5G501      0.1115
     11  N8       -10.5090   15.0660    6.7360 N.3   501  N5G501     -0.1988
     12  C8A      -10.3540   15.8430    5.5970 C.3   501  N5G501      0.1702
     13  C9        -8.1940   15.3640    8.9720 C.3   501  N5G501      0.1098
     14  N10       -7.1520   14.9660    9.9990 N.3   501  N5G501     -0.2177
     15  C11       -5.8760   13.9560   14.2310 C.3   501  N5G501      0.0783
     16  C12       -7.0240   13.1690   13.5570 C.3   501  N5G501      0.0106
     17  C13       -7.4850   13.5320   12.1090 C.3   501  N5G501      0.0179
     18  C14       -6.5020   14.2350   11.1310 C.3   501  N5G501      0.0729
     19  C15       -5.3060   14.9580   11.7970 C.3   501  N5G501      0.0179
     20  C16       -4.8680   14.5770   13.2510 C.3   501  N5G501      0.0106
     21  C         -5.2410   13.2230   15.4540 C.2   501  N5G501      0.2413
     22  O         -5.9450   12.7950   16.3070 O.2   501  N5G501     -0.2733
     23  N         -3.7600   13.1640   15.6260 N.am  501  N5G501     -0.1956
     24  CA        -3.1600   12.3640   16.7150 C.3   501  N5G501      0.1980
     25  CB        -2.6740   11.0050   16.1520 C.3   501  N5G501      0.0414
     26  CG        -2.3700   10.9920   14.6210 C.3   501  N5G501      0.1022
     27  CD        -1.4330    9.9030   14.0490 C.3   501  N5G501      0.4260
     28  OE2       -0.1910   10.4040   13.6350 O.2   501  N5G501     -0.2671
     29  OE1       -1.3590    8.7350   14.8250 O.2   501  N5G501     -0.2671
     30  CT        -2.0910   13.1160   17.5040 C.2   501  N5G501      0.3842
     31  O1        -2.1730   14.2970   17.6260 O.co2 501  N5G501     -0.2437
     32  O2        -1.3120   12.4120   18.4310 O.co2 501  N5G501     -0.2437
     33  CP1       -6.8100   14.9910    5.3160 C.2   501  N5G501      0.3031
     34  O3        -6.0010   14.2970    5.8140 O.2   501  N5G501     -0.2649
@<TRIPOS>BOND
     1     6     5    1
     2     7    12    1
     3     7     5    1
     4     7     8    1
     5    33    34    2
     6    33     8   am
     7    12     1    1
     8    12    11    1
     9     3     2    1
    10     2     4    1
    11     2     1    1
    12     4     5    1
    13     8     9    1
    14    11    10    1
    15    10     9    1
    16     9    13    1
    17    13    14    1
    18    14    18    1
    19    18    19    1
    20    18    17    1
    21    19    20    1
    22    17    16    1
    23    20    15    1
    24    16    15    1
    25    28    27    1
    26    27    26    1
    27    27    29    1
    28    15    21    1
    29    26    25    1
    30    21    23   am
    31    21    22    2
    32    23    24    1
    33    25    24    1
    34    24    30    1
    35    30    31   ar
    36    30    32   ar
