@<TRIPOS>MOLECULE
3hy5_RET_A_1.pdb
 21 21 0 0 0
SMALL
GASTEIGER

@<TRIPOS>ATOM
      1  C1        -5.3210   14.8860   12.8330 C.3   400  RET400      0.0037
      2  C2        -6.4820   14.9370   13.8120 C.3   400  RET400      0.0003
      3  C3        -7.4520   15.9090   13.4660 C.3   400  RET400      0.0000
      4  C4        -8.2320   15.4570   12.3120 C.3   400  RET400      0.0003
      5  C5        -7.3920   15.0400   11.0940 C.3   400  RET400      0.0040
      6  C6        -5.7830   15.0690   11.2950 C.3   400  RET400      0.0217
      7  C7        -4.8220   14.8580   10.0910 C.2   400  RET400     -0.0310
      8  C8        -3.9720   15.8480    9.6900 C.2   400  RET400     -0.0310
      9  C9        -3.1220   15.8190    8.3820 C.3   400  RET400      0.0217
     10  C10       -1.6310   15.7370    8.6980 C.3   400  RET400      0.0043
     11  C11       -0.6450   16.0950    7.5900 C.3   400  RET400      0.0007
     12  C12        0.3840   16.9220    7.7660 C.3   400  RET400      0.0045
     13  C13        0.8540   17.2610    9.1950 C.3   400  RET400      0.0254
     14  C14        0.2960   18.5850    9.7530 C.2   400  RET400      0.0189
     15  C15        0.7030   19.0380   11.1500 C.2   400  RET400      0.2297
     16  O1         0.0510   20.1420   11.7130 O.2   400  RET400     -0.2835
     17  C16       -4.2710   15.9460   13.1500 C.3   400  RET400      0.0003
     18  C17       -4.6020   13.5700   13.0510 C.3   400  RET400      0.0003
     19  C18       -7.9840   15.1900    9.6700 C.3   400  RET400      0.0003
     20  C19       -3.5220   14.6900    7.4380 C.3   400  RET400      0.0047
     21  C20        2.3260   16.9720    9.5040 C.3   400  RET400      0.0048
@<TRIPOS>BOND
     1    20     9    1
     2    11    12    1
     3    11    10    1
     4    12    13    1
     5     9    10    1
     6     9     8    1
     7    13    21    1
     8    13    14    1
     9    19     5    1
    10     8     7    2
    11    14    15    2
    12     7     6    1
    13     5     6    1
    14     5     4    1
    15    15    16    1
    16     6     1    1
    17     4     3    1
    18     1    18    1
    19     1    17    1
    20     1     2    1
    21     3     2    1
