@<TRIPOS>MOLECULE
3hy8_PLP_A_1.pdb
 16 16 0 0 0
SMALL
GASTEIGER

@<TRIPOS>ATOM
      1  N1        30.6890   15.9810   20.0200 N.ar  350  PLP350     -0.2452
      2  C2        30.9170   14.8040   19.2720 C.ar  350  PLP350      0.0982
      3  C2A       29.9530   14.4430   18.1480 C.3   350  PLP350      0.0555
      4  C3        32.0330   13.9690   19.5730 C.ar  350  PLP350      0.2120
      5  O3        32.2560   12.8040   18.8340 O.3   350  PLP350     -0.2852
      6  C4        32.9240   14.3360   20.6390 C.ar  350  PLP350      0.0822
      7  C4A       34.1550   13.4380   20.9800 C.2   350  PLP350      0.2372
      8  O4A       34.3870   12.3830   20.3320 O.2   350  PLP350     -0.2830
      9  C5        32.6770   15.5410   21.3900 C.ar  350  PLP350      0.0333
     10  C6        31.5580   16.3530   21.0680 C.ar  350  PLP350      0.0969
     11  C5A       33.6130   15.9680   22.5410 C.3   350  PLP350      0.1819
     12  O4P       33.1550   17.2060   23.1290 O.3   350  PLP350     -0.2653
     13  P         33.3850   17.5300   24.6810 P.3   350  PLP350      0.5329
     14  O1P       33.9360   16.2270   25.4450 O.3   350  PLP350     -0.1145
     15  O2P       31.9960   17.9870   25.3370 O.3   350  PLP350     -0.1145
     16  O3P       34.4440   18.7260   24.8110 O.2   350  PLP350     -0.2224
@<TRIPOS>BOND
     1     3     2    1
     2     5     4    1
     3     2     4   ar
     4     2     1   ar
     5     4     6   ar
     6     1    10   ar
     7     8     7    2
     8     6     7    1
     9     6     9   ar
    10    10     9   ar
    11     9    11    1
    12    11    12    1
    13    12    13    1
    14    13    16    2
    15    13    15    1
    16    13    14    1
