@<TRIPOS>MOLECULE
3hy8_FMN_A_1.pdb
 31 33 0 0 0
SMALL
GASTEIGER

@<TRIPOS>ATOM
      1  N1        26.1890   12.8850   19.6310 N.2   390  FMN390     -0.2890
      2  C2        25.5670   13.4470   20.6690 C.1   390  FMN390      0.3669
      3  O2        24.5170   14.0270   20.5860 O.2   390  FMN390     -0.1744
      4  N3        26.1570   13.3540   21.9710 N.2   390  FMN390     -0.2300
      5  C4        27.3790   12.7150   22.2220 C.1   390  FMN390      0.2513
      6  O4        27.8210   12.6860   23.3680 O.2   390  FMN390     -0.2057
      7  C4A       28.0620   12.0960   21.1080 C.2   390  FMN390      0.2700
      8  N5        29.2370   11.4120   21.2310 N.2   390  FMN390     -0.3878
      9  C5A       29.8660   10.7410   20.1800 C.2   390  FMN390      0.1320
     10  C6        31.0540    9.9700   20.4120 C.2   390  FMN390      0.0250
     11  C7        31.6570    9.2400   19.3430 C.2   390  FMN390     -0.0238
     12  C7M       32.8880    8.3870   19.6010 C.3   390  FMN390      0.0308
     13  C8        31.0840    9.2840   17.9730 C.2   390  FMN390     -0.0280
     14  C8M       31.6140    8.5320   16.7680 C.3   390  FMN390      0.0304
     15  C9        29.9130   10.0560   17.7530 C.2   390  FMN390     -0.0041
     16  C9A       29.2660   10.7800   18.8050 C.3   390  FMN390      0.1497
     17  N10       28.0280   11.5560   18.7070 N.pl3 390  FMN390     -0.2691
     18  C10       27.3860   12.2060   19.7690 C.2   390  FMN390      0.2416
     19  C1'       27.3860   11.6360   17.3410 C.3   390  FMN390      0.1294
     20  C2'       26.1480   10.6980   17.3170 C.3   390  FMN390      0.2044
     21  O2'       26.6280    9.3880   17.1360 O.3   390  FMN390     -0.2185
     22  C3'       25.1520   11.1000   16.2440 C.3   390  FMN390      0.2164
     23  O3'       25.7740   11.2090   14.9440 O.3   390  FMN390     -0.2175
     24  C4'       24.3800   12.3990   16.5980 C.3   390  FMN390      0.2147
     25  O4'       24.0220   12.5550   17.9800 O.3   390  FMN390     -0.2176
     26  C5'       23.0710   12.4520   15.8010 C.3   390  FMN390      0.1892
     27  O5'       22.2950   11.0620   16.0490 O.3   390  FMN390     -0.2674
     28  P         20.8030   11.0540   16.0120 P.3   390  FMN390      0.5327
     29  O1P       20.4130    9.5690   16.2280 O.3   390  FMN390     -0.1145
     30  O2P       20.2210   11.8190   16.9960 O.3   390  FMN390     -0.1145
     31  O3P       20.4610   11.6790   14.7330 O.2   390  FMN390     -0.2224
@<TRIPOS>BOND
     1    31    28    2
     2    23    22    1
     3    26    27    1
     4    26    24    1
     5    28    27    1
     6    28    29    1
     7    28    30    1
     8    22    24    1
     9    22    20    1
    10    24    25    1
    11    14    13    1
    12    21    20    1
    13    20    19    1
    14    19    17    1
    15    15    13    2
    16    15    16    1
    17    13    11    1
    18    17    16    1
    19    17    18    1
    20    16     9    1
    21    11    12    1
    22    11    10    2
    23     1    18    2
    24     1     2    2
    25    18     7    1
    26     9    10    1
    27     9     8    2
    28     3     2    2
    29     2     4    2
    30     7     8    2
    31     7     5    1
    32     4     5    2
    33     5     6    2
