@<TRIPOS>MOLECULE
3hye_HYE_2_1.pdb
 21 22 0 0 0
SMALL
GASTEIGER

@<TRIPOS>ATOM
      1  C1        23.6910 -158.1750   54.9390 C.3   300  HYE300      0.1833
      2  C2        24.1420 -158.3910   56.4120 C.3   300  HYE300      0.0547
      3  C3        24.1070 -159.8630   56.8280 C.3   300  HYE300      0.1391
      4  C4        24.4830 -160.1720   58.3090 C.3   300  HYE300      0.1695
      5  C6        23.3190 -159.8140   59.2920 C.3   300  HYE300      0.0366
      6  O21       23.7540 -156.7280   54.7090 O.3   300  HYE300     -0.2204
      7  C19       25.0780 -160.8370   56.1550 C.1   300  HYE300      0.1279
      8  O20       25.4810 -160.7790   55.0400 O.2   300  HYE300     -0.2270
      9  N18       25.4360 -161.8220   57.0410 N.2   300  HYE300     -0.1975
     10  C7        24.8730 -161.7160   58.3660 C.3   300  HYE300      0.2070
     11  C16       25.9780 -161.9170   59.3820 C.2   300  HYE300      0.2349
     12  O17       27.0980 -162.2500   59.0350 O.2   300  HYE300     -0.2860
     13  C8        23.6830 -162.7650   58.5180 C.3   300  HYE300      0.1865
     14  O15       22.5290 -162.3860   57.7100 O.3   300  HYE300     -0.2202
     15  C9        23.9040 -164.2730   58.1530 C.3   300  HYE300      0.0546
     16  C14       25.1500 -164.9610   58.8620 C.3   300  HYE300      0.0073
     17  C13       25.2290 -166.4520   58.4630 C.3   300  HYE300      0.0051
     18  C12       23.9780 -167.2090   59.0470 C.3   300  HYE300      0.0257
     19  C11       22.6810 -166.3670   58.9260 C.2   300  HYE300     -0.0306
     20  C10       22.6510 -165.0900   58.5360 C.2   300  HYE300     -0.0284
     21  O5        25.6620 -159.3960   58.6720 O.3   300  HYE300     -0.2220
@<TRIPOS>BOND
     1     6     1    1
     2     1     2    1
     3     8     7    2
     4     7     3    1
     5     7     9    2
     6     2     3    1
     7     3     4    1
     8     9    10    1
     9    14    13    1
    10    15    13    1
    11    15    20    1
    12    15    16    1
    13     4    10    1
    14     4    21    1
    15     4     5    1
    16    10    13    1
    17    10    11    1
    18    17    16    1
    19    17    18    1
    20    20    19    2
    21    19    18    1
    22    12    11    2
