@<TRIPOS>MOLECULE
3hyf_ON1_A_1.pdb
 20 21 0 0 0
SMALL
GASTEIGER

@<TRIPOS>ATOM
      1  C1         3.7860   49.4070   34.6460 C.ar  701  ON1701      0.0091
      2  N1         3.4260   49.1450   29.9340 N.2   701  ON1701     -0.3363
      3  O1         3.1800   52.3620   28.0190 O.3   701  ON1701     -0.1956
      4 CL1         7.4790   50.0230   36.3950 Cl    701  ON1701     -0.0814
      5  C2         4.7910   49.7230   35.6210 C.ar  701  ON1701      0.0679
      6  N2         2.8670   50.9440   31.3950 N.2   701  ON1701     -0.2717
      7  O2         2.6200   53.0850   30.5990 O.2   701  ON1701     -0.2104
      8 CL2         4.2440   50.1640   37.1910 Cl    701  ON1701     -0.0814
      9  C3         6.2210   49.6590   35.2690 C.ar  701  ON1701      0.0682
     10  O3         3.9870   48.0770   27.5900 O.co2 701  ON1701     -0.2379
     11  C4         6.6110   49.2780   33.9340 C.ar  701  ON1701      0.0120
     12  O4         3.8320   49.9300   26.4760 O.co2 701  ON1701     -0.2379
     13  C5         5.6020   48.9620   32.9650 C.ar  701  ON1701     -0.0022
     14  C6         4.1900   49.0230   33.3090 C.ar  701  ON1701     -0.0043
     15  C7         3.1300   48.6850   32.2810 C.3   701  ON1701      0.1520
     16  C8         3.1390   49.6520   31.1350 C.1   701  ON1701      0.1300
     17  C9         3.4530   49.9980   28.8340 C.2   701  ON1701      0.2476
     18  C10        3.1790   51.4200   28.9990 C.3   701  ON1701      0.3273
     19  C11        2.8870   51.8220   30.3330 C.1   701  ON1701      0.2278
     20  C12        3.7780   49.3100   27.5430 C.2   701  ON1701      0.4173
@<TRIPOS>BOND
     1    12    20   ar
     2    20    10   ar
     3    20    17    1
     4     3    18    1
     5    17    18    1
     6    17     2    2
     7    18    19    1
     8     2    16    2
     9    19     7    2
    10    19     6    2
    11    16     6    2
    12    16    15    1
    13    15    14    1
    14    13    14   ar
    15    13    11   ar
    16    14     1   ar
    17    11     9   ar
    18     1     5   ar
    19     9     5   ar
    20     9     4    1
    21     5     8    1
