@<TRIPOS>MOLECULE
3hyk_A3P_A_1.pdb
 27 29 0 0 0
SMALL
GASTEIGER

@<TRIPOS>ATOM
      1  P1        64.3270   19.9790    3.1430 P.3   124  A3P124      0.5327
      2  O1P       64.9510   19.2190    4.2930 O.3   124  A3P124     -0.1145
      3  O2P       64.0530   21.3990    3.4400 O.3   124  A3P124     -0.1145
      4  O3P       64.9330   19.6960    1.7840 O.2   124  A3P124     -0.2224
      5  P2        57.5500   18.8430    4.8670 P.3   124  A3P124      0.5327
      6  O4P       57.4000   20.3210    5.0690 O.3   124  A3P124     -0.1145
      7  O5P       58.3140   18.3030    6.0540 O.3   124  A3P124     -0.1145
      8  O6P       56.3370   18.0090    4.4630 O.2   124  A3P124     -0.2224
      9  O5'       58.5400   18.6260    3.6410 O.3   124  A3P124     -0.2675
     10  C5'       59.8350   19.1940    3.7800 C.3   124  A3P124      0.1859
     11  C4'       60.5150   19.0900    2.4400 C.3   124  A3P124      0.1796
     12  O4'       59.6570   19.5820    1.4130 O.3   124  A3P124     -0.3136
     13  C3'       61.7780   19.9050    2.3110 C.3   124  A3P124      0.1928
     14  O3'       62.8520   19.3160    3.0380 O.3   124  A3P124     -0.2673
     15  C2'       61.9120   19.9730    0.7810 C.3   124  A3P124      0.2543
     16  O2'       62.7520   18.9640    0.2190 O.3   124  A3P124     -0.2131
     17  C1'       60.4770   19.8020    0.2840 C.3   124  A3P124      0.3185
     18  N9        60.0670   21.0390   -0.4020 N.pl3 124  A3P124     -0.1439
     19  C8        60.2190   22.3030    0.0570 C.3   124  A3P124      0.3377
     20  N7        59.7590   23.2030   -0.8430 N.2   124  A3P124     -0.2095
     21  C5        59.3280   22.4990   -1.9040 C.2   124  A3P124      0.2526
     22  C6        58.7430   22.8380   -3.2140 C.2   124  A3P124      0.4393
     23  N6        58.5190   24.1430   -3.5520 N.pl3 124  A3P124      0.2180
     24  N1        58.4420   21.7970   -4.0290 N.2   124  A3P124      0.0021
     25  C2        58.6630   20.5100   -3.6980 C.3   124  A3P124      0.5254
     26  N3        59.1970   20.1310   -2.5210 N.2   124  A3P124     -0.0055
     27  C4        59.5250   21.0740   -1.6090 C.2   124  A3P124      0.3518
@<TRIPOS>BOND
     1    24    25    1
     2    24    22    2
     3    25    26    1
     4    23    22    1
     5    22    21    1
     6    26    27    2
     7    21    27    1
     8    21    20    2
     9    27    18    1
    10    20    19    1
    11    18    19    1
    12    18    17    1
    13    16    15    1
    14    17    15    1
    15    17    12    1
    16    15    13    1
    17    12    11    1
    18     4     1    2
    19    13    11    1
    20    13    14    1
    21    11    10    1
    22    14     1    1
    23     1     3    1
    24     1     2    1
    25     9    10    1
    26     9     5    1
    27     8     5    2
    28     5     6    1
    29     5     7    1
