@<TRIPOS>MOLECULE
3hyo_ADP_A_1.pdb
 27 29 0 0 0
SMALL
GASTEIGER

@<TRIPOS>ATOM
      1  PB        17.7570   26.2300   20.3010 P.3   281  ADP281      0.5373
      2  O1B       16.3760   26.6870   20.2280 O.3   281  ADP281     -0.1143
      3  O2B       18.6290   26.7670   19.2660 O.2   281  ADP281     -0.2221
      4  O3B       18.1750   26.3040   21.6820 O.3   281  ADP281     -0.1143
      5  PA        17.4530   23.9210   18.5360 P.3   281  ADP281      0.2231
      6  O1A       18.4440   24.0780   17.4580 O.2   281  ADP281     -0.5169
      7  O2A       16.0320   24.1780   18.3150 O.3   281  ADP281     -0.4370
      8  O3A       17.9010   24.7240   19.8630 O.3   281  ADP281     -0.2261
      9  O5'       17.6130   22.5120   19.2400 O.3   281  ADP281     -0.3111
     10  C5'       18.8520   21.9240   19.2020 C.3   281  ADP281      0.1813
     11  C4'       18.5900   20.4400   19.1530 C.3   281  ADP281      0.1821
     12  O4'       18.2070   19.9690   20.4020 O.3   281  ADP281     -0.3135
     13  C3'       17.4830   20.0230   18.1840 C.3   281  ADP281      0.2184
     14  O3'       18.0820   19.8430   16.9690 O.3   281  ADP281     -0.2174
     15  C2'       17.1610   18.6910   18.7340 C.3   281  ADP281      0.2570
     16  O2'       18.2870   17.9000   18.4430 O.3   281  ADP281     -0.2130
     17  C1'       17.2360   18.9450   20.2280 C.3   281  ADP281      0.3186
     18  N9        15.8940   19.2420   20.7850 N.pl3 281  ADP281     -0.1439
     19  C8        15.4000   20.4300   21.0330 C.3   281  ADP281      0.3377
     20  N7        14.1850   20.3670   21.5390 N.2   281  ADP281     -0.2095
     21  C5        13.8580   19.1090   21.6050 C.2   281  ADP281      0.2526
     22  C6        12.6580   18.3650   22.0460 C.2   281  ADP281      0.4393
     23  N6        11.5680   18.9940   22.5270 N.pl3 281  ADP281      0.2180
     24  N1        12.7510   17.0500   21.9090 N.2   281  ADP281      0.0021
     25  C2        13.8270   16.4240   21.4500 C.3   281  ADP281      0.5254
     26  N3        14.9420   17.0130   21.0420 N.2   281  ADP281     -0.0055
     27  C4        15.0020   18.3500   21.1070 C.2   281  ADP281      0.3518
@<TRIPOS>BOND
     1    14    13    1
     2     6     5    2
     3    13    15    1
     4    13    11    1
     5     7     5    1
     6    16    15    1
     7     5     9    1
     8     5     8    1
     9    15    17    1
    10    11    10    1
    11    11    12    1
    12    10     9    1
    13     3     1    2
    14     8     1    1
    15     2     1    1
    16    17    12    1
    17    17    18    1
    18     1     4    1
    19    18    19    1
    20    18    27    1
    21    19    20    1
    22    26    27    2
    23    26    25    1
    24    27    21    1
    25    25    24    1
    26    20    21    2
    27    21    22    1
    28    24    22    2
    29    22    23    1
