@<TRIPOS>MOLECULE
3hyt_AGO_A_1.pdb
 42 45 0 0 0
SMALL
GASTEIGER

@<TRIPOS>ATOM
      1  CM'      -33.4610   30.9640    0.8940 C.3   801  AGO801      0.1355
      2  N2'      -31.9980   30.8370    1.0040 N.pl3 801  AGO801     -0.2355
      3  C2'      -31.2160   31.0100   -0.0640 C.ar  801  AGO801      0.0716
      4  C3'      -30.8140   32.3010   -0.4270 C.ar  801  AGO801      0.0163
      5  C4'      -29.9930   32.5010   -1.5400 C.ar  801  AGO801      0.0013
      6  C5'      -29.5690   31.4070   -2.2940 C.ar  801  AGO801      0.0003
      7  C6'      -29.9650   30.1180   -1.9320 C.ar  801  AGO801      0.0077
      8  C1'      -30.7900   29.9130   -0.8210 C.ar  801  AGO801      0.0904
      9  C'       -31.2030   28.4820   -0.4430 C.2   801  AGO801      0.3428
     10  O1'      -32.3540   28.2180   -0.0950 O.2   801  AGO801     -0.2448
     11  O3'      -30.2470   27.5120   -0.4420 O.3   801  AGO801     -0.4387
     12  C3B      -30.4860   26.3410   -1.2670 C.3   801  AGO801      0.2592
     13  C2B      -30.9330   26.5820   -2.7020 C.2   801  AGO801      0.2395
     14  O2'      -32.0970   26.6600   -3.0890 O.2   801  AGO801     -0.2877
     15  C4B      -29.0670   25.7940   -1.4460 C.3   801  AGO801      0.1946
     16  C5B      -28.9730   24.3220   -1.0090 C.3   801  AGO801      0.1828
     17  O5'      -29.8710   23.4920   -1.7600 O.3   801  AGO801     -0.3111
     18  PA       -30.3480   22.0640   -1.2050 P.3   801  AGO801      0.2220
     19  O1A      -31.2880   21.4820   -2.1840 O.2   801  AGO801     -0.5170
     20  O2A      -30.7620   22.1960    0.2050 O.3   801  AGO801     -0.4370
     21  O3A      -28.9700   21.2410   -1.2420 O.3   801  AGO801     -0.2360
     22  PB       -28.8110   19.8360   -0.4960 P.3   801  AGO801      0.4669
     23  O1B      -27.7930   19.0620   -1.2280 O.2   801  AGO801     -0.2351
     24  O2B      -30.1470   19.2500   -0.2800 O.3   801  AGO801     -0.1253
     25  N3B      -28.1820   20.3080    0.9310 N.3   801  AGO801     -0.0163
     26  PG       -28.1310   19.1240    2.0640 P.3   801  AGO801      0.4884
     27  O2G      -26.9690   18.0930    1.6240 O.2   801  AGO801     -0.2331
     28  O3G      -27.5370   19.8490    3.3930 O.3   801  AGO801     -0.1240
     29  O1G      -29.4300   18.4580    2.3220 O.3   801  AGO801     -0.1240
     30  O4'      -28.6950   25.9220   -2.8600 O.3   801  AGO801     -0.3275
     31  C1B      -29.6980   26.6840   -3.5800 C.3   801  AGO801      0.2591
     32  N9       -29.8000   25.9990   -4.8950 N.pl3 801  AGO801     -0.2314
     33  C8       -30.1100   24.7160   -5.0840 C.3   801  AGO801      0.2249
     34  N7       -30.0920   24.4380   -6.3880 N.2   801  AGO801     -0.2322
     35  C5       -29.7610   25.5480   -7.0400 C.2   801  AGO801      0.2182
     36  C4       -29.5690   26.5450   -6.0890 C.2   801  AGO801      0.2302
     37  N3       -29.2230   27.7900   -6.4680 N.2   801  AGO801     -0.3074
     38  C2       -29.0540   28.1080   -7.7650 C.1   801  AGO801      0.2531
     39  N2       -28.7120   29.3460   -8.1090 N.pl3 801  AGO801     -0.0226
     40  N1       -29.2350   27.1390   -8.7630 N.2   801  AGO801     -0.2485
     41  C6       -29.5950   25.8400   -8.3910 C.1   801  AGO801      0.2372
     42  O6       -29.7570   24.9760   -9.2520 O.2   801  AGO801     -0.2069
@<TRIPOS>BOND
     1    42    41    2
     2    40    41    2
     3    40    38    2
     4    41    35    1
     5    39    38    1
     6    38    37    2
     7    35    34    2
     8    35    36    1
     9    37    36    2
    10    34    33    1
    11    36    32    1
    12    33    32    1
    13    32    31    1
    14    31    30    1
    15    31    13    1
    16    14    13    2
    17    30    15    1
    18    13    12    1
    19     6     7   ar
    20     6     5   ar
    21    19    18    2
    22     7     8   ar
    23    17    18    1
    24    17    16    1
    25     5     4   ar
    26    15    12    1
    27    15    16    1
    28    12    11    1
    29    21    18    1
    30    21    22    1
    31    23    22    2
    32    18    20    1
    33     8     9    1
    34     8     3   ar
    35    22    24    1
    36    22    25    1
    37     9    11    1
    38     9    10    2
    39     4     3   ar
    40     3     2    1
    41     1     2    1
    42    25    26    1
    43    27    26    2
    44    26    29    1
    45    26    28    1
