@<TRIPOS>MOLECULE
3hyu_HEM_A_1.pdb
 43 50 0 0 0
SMALL
GASTEIGER

@<TRIPOS>ATOM
      1  CHA      -15.0770  -39.4350  -34.9820 C.2   142  HEM142      0.0000
      2  CHB      -14.6840  -41.1440  -30.4800 C.2   142  HEM142      0.0000
      3  CHC      -12.5650  -36.9830  -29.0220 C.2   142  HEM142      0.0000
      4  CHD      -13.1940  -35.1430  -33.5130 C.2   142  HEM142      0.0000
      5  C1A      -15.1970  -40.2400  -33.8770 C.2   142  HEM142      0.0000
      6  C2A      -15.8150  -41.5500  -33.8570 C.2   142  HEM142      0.0000
      7  C3A      -15.7100  -42.0150  -32.6100 C.2   142  HEM142      0.0000
      8  C4A      -15.0210  -41.0270  -31.8110 C.2   142  HEM142      0.0000
      9  CMA      -16.2330  -43.3530  -32.0630 C.3   142  HEM142      0.0000
     10  CAA      -16.4920  -42.2170  -35.0820 C.3   142  HEM142      0.0000
     11  CBA      -15.4410  -42.9530  -35.9090 C.3   142  HEM142      0.0000
     12  CGA      -16.0940  -43.6360  -37.0860 C.2   142  HEM142      0.0000
     13  O1A      -17.2850  -43.3020  -37.3840 O.co2 142  HEM142      0.0000
     14  O2A      -15.4170  -44.5110  -37.7050 O.co2 142  HEM142      0.0000
     15  C1B      -14.0550  -40.1790  -29.7050 C.ar  142  HEM142      0.0000
     16  C2B      -13.7230  -40.3130  -28.2990 C.ar  142  HEM142      0.0000
     17  C3B      -13.1520  -39.1570  -27.8990 C.ar  142  HEM142      0.0000
     18  C4B      -13.0940  -38.2630  -29.0300 C.ar  142  HEM142      0.0000
     19  CMB      -13.9830  -41.5670  -27.4300 C.3   142  HEM142      0.0000
     20  CAB      -12.6220  -38.8110  -26.4930 C.2   142  HEM142      0.0000
     21  CBB      -13.3870  -38.9830  -25.4020 C.2   142  HEM142      0.0000
     22  C1C      -12.5900  -36.1240  -30.1220 C.2   142  HEM142      0.0000
     23  C2C      -12.2270  -34.7170  -30.0920 C.2   142  HEM142      0.0000
     24  C3C      -12.3930  -34.2190  -31.3330 C.2   142  HEM142      0.0000
     25  C4C      -12.8940  -35.2750  -32.1730 C.2   142  HEM142      0.0000
     26  CMC      -11.7040  -33.9930  -28.8360 C.3   142  HEM142      0.0000
     27  CAC      -12.1530  -32.7800  -31.8410 C.2   142  HEM142      0.0000
     28  CBC      -12.4790  -31.7430  -31.0700 C.2   142  HEM142      0.0000
     29  C1D      -13.7500  -36.1230  -34.2920 C.ar  142  HEM142      0.0000
     30  C2D      -14.1070  -35.9380  -35.6810 C.ar  142  HEM142      0.0000
     31  C3D      -14.6870  -37.2640  -36.1270 C.ar  142  HEM142      0.0000
     32  C4D      -14.6240  -38.1350  -34.9860 C.ar  142  HEM142      0.0000
     33  CMD      -13.9370  -34.6450  -36.5010 C.3   142  HEM142      0.0000
     34  CAD      -15.2040  -37.6230  -37.5320 C.3   142  HEM142      0.0000
     35  CBD      -16.4400  -36.8040  -37.8390 C.3   142  HEM142      0.0000
     36  CGD      -17.6420  -37.6970  -37.7220 C.2   142  HEM142      0.0000
     37  O1D      -18.7270  -37.2790  -38.2010 O.co2 142  HEM142      0.0000
     38  O2D      -17.5510  -38.8370  -37.1680 O.co2 142  HEM142      0.0000
     39  NA       -14.7110  -39.9400  -32.6060 N.2   142  HEM142      0.0000
     40  NB       -13.6500  -38.9080  -30.1180 N.ar  142  HEM142      0.0000
     41  NC       -13.0040  -36.4270  -31.4060 N.2   142  HEM142      0.0000
     42  ND       -14.0630  -37.4350  -33.9220 N.ar  142  HEM142      0.0000
     43 FE        -13.8050  -38.1900  -32.0290 Fe    142  HEM142      0.0000
@<TRIPOS>BOND
     1    37    36   ar
     2    35    36    1
     3    35    34    1
     4    36    38   ar
     5    14    12   ar
     6    34    31    1
     7    13    12   ar
     8    12    11    1
     9    33    30    1
    10    31    30   ar
    11    31    32   ar
    12    11    10    1
    13    30    29   ar
    14    10     6    1
    15    32     1    2
    16    32    42   ar
    17     1     5    1
    18    29    42   ar
    19    29     4    2
    20    42    43    1
    21     5     6    1
    22     5    39    2
    23     6     7    2
    24     4    25    1
    25     7     9    1
    26     7     8    1
    27    39    43    1
    28    39     8    1
    29    25    41    2
    30    25    24    1
    31    43    41    1
    32    43    40    1
    33    27    24    1
    34    27    28    2
    35     8     2    2
    36    41    22    1
    37    24    23    2
    38     2    15    1
    39    22    23    1
    40    22     3    2
    41    40    15   ar
    42    40    18   ar
    43    23    26    1
    44    15    16   ar
    45    18     3    1
    46    18    17   ar
    47    16    17   ar
    48    16    19    1
    49    17    20    1
    50    20    21    2
