@<TRIPOS>MOLECULE
3hyw_DCQ_A_1.pdb
 23 23 0 0 0
SMALL
GASTEIGER

@<TRIPOS>ATOM
      1  O2        71.2420  112.4250  122.2820 O.3   500  DCQ500     -0.2836
      2  C2        70.0750  112.5680  122.9660 C.ar  500  DCQ500      0.2282
      3  C3        69.1500  113.5150  122.5420 C.ar  500  DCQ500      0.2140
      4  O3        69.4060  114.2800  121.4290 O.3   500  DCQ500     -0.4652
      5  C3M       70.1200  115.5150  121.4870 C.3   500  DCQ500      0.2528
      6  C4        67.9580  113.6700  123.2360 C.ar  500  DCQ500      0.2140
      7  O4        67.0400  114.6000  122.8130 O.3   500  DCQ500     -0.4652
      8  C4M       66.8650  115.8370  123.5030 C.3   500  DCQ500      0.2528
      9  C5        67.6960  112.8820  124.3520 C.ar  500  DCQ500      0.2282
     10  O5        66.5220  113.0450  125.0250 O.3   500  DCQ500     -0.2836
     11  C1        69.8180  111.7790  124.0840 C.ar  500  DCQ500      0.0195
     12  C1M       70.8450  110.7610  124.5220 C.3   500  DCQ500      0.0343
     13  C6        68.6230  111.9390  124.7860 C.ar  500  DCQ500      0.0191
     14  C7        68.3190  111.0870  126.0060 C.3   500  DCQ500      0.0295
     15  C8        68.4550  111.8840  127.3000 C.3   500  DCQ500      0.0048
     16  C9        69.0930  111.0420  128.3980 C.3   500  DCQ500      0.0003
     17  C10       68.1610  110.8830  129.5950 C.3   500  DCQ500      0.0000
     18  C11       68.7000  111.6350  130.8060 C.3   500  DCQ500      0.0000
     19  C12       68.6830  110.7620  132.0540 C.3   500  DCQ500      0.0000
     20  C13       67.5520  111.1710  132.9950 C.3   500  DCQ500      0.0000
     21  C14       67.7670  110.6160  134.4000 C.3   500  DCQ500      0.0000
     22  C15       66.5450  110.8390  135.2850 C.3   500  DCQ500      0.0000
     23  C16       66.9400  110.8610  136.7460 C.3   500  DCQ500      0.0000
@<TRIPOS>BOND
     1     4     5    1
     2     4     3    1
     3     1     2    1
     4     3     2   ar
     5     3     6   ar
     6     7     6    1
     7     7     8    1
     8     2    11   ar
     9     6     9   ar
    10    11    12    1
    11    11    13   ar
    12     9    13   ar
    13     9    10    1
    14    13    14    1
    15    14    15    1
    16    15    16    1
    17    16    17    1
    18    17    18    1
    19    18    19    1
    20    19    20    1
    21    20    21    1
    22    21    22    1
    23    22    23    1
