@<TRIPOS>MOLECULE
3hyx_AUK_A_1.pdb
 28 29 0 0 0
SMALL
GASTEIGER

@<TRIPOS>ATOM
      1  O27       66.6900  113.5650  126.0630 O.2   501  AUK501     -0.2868
      2  C7        67.7140  113.4350  125.3600 C.ar  501  AUK501      0.1946
      3  C8        68.6980  112.3330  125.6060 C.ar  501  AUK501      0.0362
      4  C9        69.8950  112.2510  124.7040 C.ar  501  AUK501      0.0796
      5  C28       70.9240  111.1610  124.9120 C.3   501  AUK501      0.0535
      6  N10       70.0930  113.1890  123.6510 N.ar  501  AUK501     -0.1344
      7  O26       71.2530  113.0820  122.8150 O.3   501  AUK501     -0.1636
      8  C3        69.1750  114.2350  123.3930 C.ar  501  AUK501      0.1048
      9  C4        69.3990  115.1410  122.3530 C.ar  501  AUK501      0.0208
     10  C5        68.4890  116.1710  122.1190 C.ar  501  AUK501      0.0016
     11  C6        67.3450  116.3170  122.9060 C.ar  501  AUK501      0.0002
     12  C1        67.0770  115.4420  123.9610 C.ar  501  AUK501      0.0047
     13  C2        67.9590  114.3960  124.2400 C.ar  501  AUK501      0.0578
     14  C11       68.5580  111.3010  126.7230 C.3   501  AUK501      0.0561
     15  C12       67.3010  111.3320  127.5810 C.2   501  AUK501     -0.0297
     16  C13       67.2910  111.2540  128.9370 C.2   501  AUK501     -0.0475
     17  C23       68.5600  111.1650  129.7440 C.3   501  AUK501      0.0260
     18  C14       65.9730  111.2720  129.6910 C.3   501  AUK501      0.0264
     19  C15       65.0990  110.0650  129.3380 C.3   501  AUK501      0.0297
     20  C16       63.6460  110.2470  129.7530 C.2   501  AUK501     -0.0342
     21  C17       62.6100  110.0630  128.9040 C.2   501  AUK501     -0.0478
     22  C24       62.8600  109.6760  127.4770 C.3   501  AUK501      0.0260
     23  C18       61.1860  110.2530  129.3940 C.3   501  AUK501      0.0263
     24  C19       60.1580  110.2970  128.2610 C.3   501  AUK501      0.0297
     25  C20       59.3070  109.0450  128.2750 C.2   501  AUK501     -0.0342
     26  C21       58.0290  108.9930  127.8450 C.2   501  AUK501     -0.0478
     27  C22       57.2800  107.6890  127.9050 C.3   501  AUK501      0.0260
     28  C25       57.3210  110.2020  127.3030 C.3   501  AUK501      0.0260
@<TRIPOS>BOND
     1    10     9   ar
     2    10    11   ar
     3     9     8   ar
     4     7     6    1
     5    11    12   ar
     6     8     6   ar
     7     8    13   ar
     8     6     4   ar
     9    12    13   ar
    10    13     2   ar
    11     4     5    1
    12     4     3   ar
    13     2     3   ar
    14     2     1    2
    15     3    14    1
    16    14    15    1
    17    28    26    1
    18    22    21    1
    19    15    16    2
    20    26    27    1
    21    26    25    2
    22    24    25    1
    23    24    23    1
    24    21    23    1
    25    21    20    2
    26    16    18    1
    27    16    17    1
    28    19    18    1
    29    19    20    1
