@<TRIPOS>MOLECULE
3hyy_37D_A_1.pdb
 15 16 0 0 0
SMALL
GASTEIGER

@<TRIPOS>ATOM
      1  C1         7.9310   10.9730   23.1480 C.ar  237  37D237      0.0438
      2  C2         7.3560    9.7470   22.8370 C.ar  237  37D237      0.1797
      3  C4         5.7470   11.2330   23.3370 C.ar  237  37D237      0.1616
      4  C5         6.9330   11.9070   23.4570 C.ar  237  37D237      0.0420
      5  C6         4.3640   11.8460   23.5450 C.2   237  37D237      0.1305
      6  C9         2.5460   13.2020   23.9940 C.2   237  37D237      0.0748
      7  C10        4.0360   13.1590   24.0750 C.3   237  37D237      0.1812
      8  C11        4.9720   14.2190   24.5530 C.2   237  37D237      0.3279
      9  C13        5.0760   16.4600   25.6970 C.3   237  37D237      0.2556
     10  C15        1.6240   14.3310   24.3920 C.3   237  37D237      0.0501
     11  O14        6.2040   14.1880   24.4540 O.2   237  37D237     -0.2493
     12  O12        4.3400   15.3550   25.1610 O.3   237  37D237     -0.4439
     13  N8         2.1100   11.9970   23.4710 N.2   237  37D237     -0.1560
     14  N7         3.2510   11.2140   23.2040 N.2   237  37D237     -0.1490
     15  O3         5.8940    9.9490   22.9730 O.2   237  37D237     -0.4491
@<TRIPOS>BOND
     1     2    15   ar
     2     2     1   ar
     3    15     3   ar
     4     1     4   ar
     5    14    13    1
     6    14     5    2
     7     3     4   ar
     8     3     5    1
     9    13     6    2
    10     5     7    1
    11     6     7    1
    12     6    10    1
    13     7     8    1
    14    11     8    2
    15     8    12    1
    16    12     9    1
