@<TRIPOS>MOLECULE
3hyz_42C_A_1.pdb
 12 13 0 0 0
SMALL
GASTEIGER

@<TRIPOS>ATOM
      1  C1        32.0860   10.0390   -0.9020 C.2   237  42C237      0.3481
      2  C2        33.1550   10.7250   -0.1210 C.2   237  42C237      0.2219
      3  C3        34.4930   10.7450   -0.7130 C.1   237  42C237      0.0576
      4  C5        33.7280    9.5520   -2.5540 C.3   237  42C237      0.4005
      5  C8        34.5630   11.7560    1.1860 C.3   237  42C237      0.2618
      6  C11       29.6980    9.5840   -1.3380 C.3   237  42C237      0.2537
      7  C12       30.5120   10.2230    0.9920 C.3   237  42C237      0.2537
      8  N10       30.7700    9.9520   -0.4200 N.pl3 237  42C237     -0.1813
      9  N6        32.4540    9.4820   -2.0820 N.2   237  42C237     -0.0336
     10  N4        34.7520   10.1680   -1.9140 N.2   237  42C237     -0.1640
     11  N9        35.3170   11.3870    0.1250 N.2   237  42C237     -0.1914
     12  N7        33.2660   11.3520    1.0510 N.2   237  42C237     -0.2269
@<TRIPOS>BOND
     1     4     9    1
     2     4    10    1
     3     9     1    2
     4    10     3    2
     5     6     8    1
     6     1     8    1
     7     1     2    1
     8     3     2    1
     9     3    11    2
    10     8     7    1
    11     2    12    2
    12    11     5    1
    13    12     5    1
