@<TRIPOS>MOLECULE
3hz1_37D_A_1.pdb
 15 16 0 0 0
SMALL
GASTEIGER

@<TRIPOS>ATOM
      1  C1         7.8600   10.1360   22.6040 C.ar  238  37D238      0.0438
      2  C2         6.5530    9.6800   22.8080 C.ar  238  37D238      0.1797
      3  C4         6.8390   11.6780   23.7840 C.ar  238  37D238      0.1616
      4  C5         8.0580   11.3690   23.2280 C.ar  238  37D238      0.0420
      5  C6         6.6560   12.9400   24.5720 C.2   238  37D238      0.1305
      6  C9         5.8050   14.8140   25.6500 C.2   238  37D238      0.0748
      7  C10        5.4220   13.6990   24.7720 C.3   238  37D238      0.1812
      8  C11        4.0640   13.4110   24.2790 C.2   238  37D238      0.3279
      9  C13        1.6240   14.0000   24.3280 C.3   238  37D238      0.2556
     10  C15        4.9170   15.9400   26.1920 C.3   238  37D238      0.0501
     11  O14        3.7860   12.4070   23.6280 O.2   238  37D238     -0.2493
     12  O12        3.0050   14.2990   24.6160 O.3   238  37D238     -0.4439
     13  N8         7.1190   14.6210   25.8930 N.2   238  37D238     -0.1560
     14  N7         7.6630   13.4980   25.2340 N.2   238  37D238     -0.1490
     15  O3         5.8720   10.7150   23.6130 O.2   238  37D238     -0.4491
@<TRIPOS>BOND
     1     1     2   ar
     2     1     4   ar
     3     2    15   ar
     4     4     3   ar
     5    15     3   ar
     6    11     8    2
     7     3     5    1
     8     8    12    1
     9     8     7    1
    10     9    12    1
    11     5     7    1
    12     5    14    2
    13     7     6    1
    14    14    13    1
    15     6    13    2
    16     6    10    1
