@<TRIPOS>MOLECULE
3hz1_42C_A_1.pdb
 12 13 0 0 0
SMALL
GASTEIGER

@<TRIPOS>ATOM
      1  C1         0.7050   10.1160   25.5000 C.2   237  42C237      0.3481
      2  C2        -0.4250   10.6930   24.7810 C.2   237  42C237      0.2219
      3  C3        -1.6420   10.9060   25.5370 C.1   237  42C237      0.0576
      4  C5        -0.6900    9.9510   27.4380 C.3   237  42C237      0.4005
      5  C8        -1.9660   11.6240   23.5390 C.3   237  42C237      0.2618
      6  C11        3.1230    9.3980   25.6290 C.3   237  42C237      0.2537
      7  C12        2.1100    9.7530   23.4320 C.3   237  42C237      0.2537
      8  N10        1.9520    9.8170   24.8700 N.pl3 237  42C237     -0.1813
      9  N6         0.4770    9.7630   26.7990 N.2   237  42C237     -0.0336
     10  N4        -1.7510   10.5210   26.8370 N.2   237  42C237     -0.1640
     11  N9        -2.5810   11.4250   24.7070 N.2   237  42C237     -0.1914
     12  N7        -0.6830   11.1870   23.5600 N.2   237  42C237     -0.2269
@<TRIPOS>BOND
     1     7     8    1
     2     5    12    1
     3     5    11    1
     4    12     2    2
     5    11     3    2
     6     2     1    1
     7     2     3    1
     8     8     1    1
     9     8     6    1
    10     1     9    2
    11     3    10    2
    12     9     4    1
    13    10     4    1
