@<TRIPOS>MOLECULE
3hz3_SUC_A_1.pdb
 23 24 0 0 0
SMALL
GASTEIGER

@<TRIPOS>ATOM
      1  C1        -2.4700   -5.6060   -3.7870 C.3   1779  SUC1779     0.2713
      2  C2        -1.0750   -6.1420   -3.3250 C.3   1779  SUC1779     0.2406
      3  C3        -0.4790   -6.9360   -4.4660 C.3   1779  SUC1779     0.2198
      4  C4        -1.3510   -8.2260   -4.6990 C.3   1779  SUC1779     0.2144
      5  C5        -2.8530   -7.9120   -4.8060 C.3   1779  SUC1779     0.1835
      6  C6        -3.6780   -9.1110   -4.3450 C.3   1779  SUC1779     0.2142
      7  O1        -2.1570   -4.9880   -5.0590 O.3   1779  SUC1779    -0.3033
      8  O2        -0.1510   -5.1220   -2.8940 O.3   1779  SUC1779    -0.2149
      9  O3         0.8750   -7.2760   -4.1000 O.3   1779  SUC1779    -0.2174
     10  O4        -0.9120   -8.9590   -5.8730 O.3   1779  SUC1779    -0.2176
     11  O5        -3.3250   -6.8280   -3.9040 O.3   1779  SUC1779    -0.3256
     12  O6        -3.7440   -9.1440   -2.8690 O.3   1779  SUC1779    -0.2176
     13  C1'       -4.5020   -4.4650   -5.5310 C.3   1779  SUC1779     0.2406
     14  C2'       -3.1380   -4.7070   -6.0920 C.3   1779  SUC1779     0.2516
     15  C3'       -2.6410   -3.5270   -6.9260 C.3   1779  SUC1779     0.2381
     16  C4'       -1.7540   -4.2180   -7.9030 C.3   1779  SUC1779     0.2167
     17  C5'       -2.6460   -5.4110   -8.2660 C.3   1779  SUC1779     0.1835
     18  C6'       -1.9330   -6.6670   -8.7490 C.3   1779  SUC1779     0.2142
     19  O1'       -4.4970   -3.3180   -4.7190 O.3   1779  SUC1779    -0.2149
     20  O2'       -3.1910   -5.8140   -7.0320 O.3   1779  SUC1779    -0.3272
     21  O3'       -1.8490   -2.6870   -6.1210 O.3   1779  SUC1779    -0.2150
     22  O4'       -1.6440   -3.3370   -8.9970 O.3   1779  SUC1779    -0.2175
     23  O6'       -0.9100   -7.0420   -7.8180 O.3   1779  SUC1779    -0.2176
@<TRIPOS>BOND
     1    22    16    1
     2    18    17    1
     3    18    23    1
     4    17    16    1
     5    17    20    1
     6    16    15    1
     7    20    14    1
     8    15    21    1
     9    15    14    1
    10    14    13    1
    11    14     7    1
    12    10     4    1
    13    13    19    1
    14     7     1    1
    15     5     4    1
    16     5     6    1
    17     5    11    1
    18     4     3    1
    19     3     9    1
    20     3     2    1
    21     6    12    1
    22    11     1    1
    23     1     2    1
    24     2     8    1
