@<TRIPOS>MOLECULE
3hz5_Z64_A_1.pdb
 26 29 0 0 0
SMALL
GASTEIGER

@<TRIPOS>ATOM
      1  C1         0.5140   10.0710   25.7200 C.2   237  Z64237      0.3480
      2  C3        -0.9270    9.8490   27.5700 C.3   237  Z64237      0.4005
      3  C5        -1.7320   10.9040   25.6500 C.1   237  Z64237      0.0576
      4  C6        -0.5080   10.7150   25.0250 C.2   237  Z64237      0.2219
      5  N2         0.2640    9.6440   26.9730 N.2   237  Z64237     -0.0336
      6  C8        -1.8540   11.7590   23.6440 C.3   237  Z64237      0.2618
      7  C11        2.8080    9.1390   25.9590 C.3   237  Z64237      0.2536
      8  C12        2.1010   10.1650   23.7740 C.3   237  Z64237      0.2025
      9  C13        2.5520   11.6470   23.7450 C.3   237  Z64237      0.0508
     10  C14        3.8320   11.9170   24.5600 C.3   237  Z64237      0.0050
     11  C15        4.4510   13.2520   24.1120 C.3   237  Z64237      0.0119
     12  N10        1.7750    9.8190   25.1580 N.pl3 237  Z64237     -0.1851
     13  N4        -1.9240   10.4670   26.9250 N.2   237  Z64237     -0.1640
     14  N9        -2.5410   11.5350   24.7810 N.2   237  Z64237     -0.1914
     15  N7        -0.5980   11.2610   23.7870 N.2   237  Z64237     -0.2269
     16  C16        5.8170   13.4740   24.7130 C.3   237  Z64237      0.0829
     17  C20        6.2130   14.4640   25.7170 C.2   237  Z64237      0.0640
     18  C21        5.3250   15.5150   26.3370 C.3   237  Z64237      0.0495
     19  C17        7.0960   12.7650   24.5180 C.2   237  Z64237      0.1197
     20  N18        8.0960   13.2440   25.2380 N.2   237  Z64237     -0.1495
     21  N19        7.5270   14.2890   25.9780 N.2   237  Z64237     -0.1566
     22  C22        7.3000   11.6340   23.5870 C.ar  237  Z64237      0.1610
     23  O23        6.4770   11.3940   22.5420 O.2   237  Z64237     -0.4491
     24  C24        7.0990   10.2100   21.9230 C.ar  237  Z64237      0.1797
     25  C25        8.2370    9.8900   22.6480 C.ar  237  Z64237      0.0438
     26  C26        8.3850   10.7840   23.7010 C.ar  237  Z64237      0.0420
@<TRIPOS>BOND
     1    24    23   ar
     2    24    25   ar
     3    23    22   ar
     4    25    26   ar
     5    22    26   ar
     6    22    19    1
     7     6    15    1
     8     6    14    1
     9     9     8    1
    10     9    10    1
    11     8    12    1
    12    15     4    2
    13    11    10    1
    14    11    16    1
    15    19    16    1
    16    19    20    2
    17    16    17    1
    18    14     3    2
    19     4     3    1
    20     4     1    1
    21    12     1    1
    22    12     7    1
    23    20    21    1
    24     3    13    2
    25    17    21    2
    26    17    18    1
    27     1     5    2
    28    13     2    1
    29     5     2    1
