@<TRIPOS>MOLECULE
3hz6_ADP_A_1.pdb
 27 29 0 0 0
SMALL
GASTEIGER

@<TRIPOS>ATOM
      1  PB        19.8590   14.0290    1.3440 P.3   510  ADP510      0.5373
      2  O1B       21.0390   14.8140    0.7640 O.3   510  ADP510     -0.1143
      3  O2B       19.5750   12.7150    0.6300 O.2   510  ADP510     -0.2221
      4  O3B       19.9140   13.8920    2.8630 O.3   510  ADP510     -0.1143
      5  PA        17.9360   15.7100   -0.0560 P.3   510  ADP510      0.2231
      6  O1A       17.8970   17.1860    0.2320 O.3   510  ADP510     -0.4370
      7  O2A       18.6420   15.0940   -1.2430 O.2   510  ADP510     -0.5169
      8  O3A       18.5600   14.9990    1.2510 O.3   510  ADP510     -0.2261
      9  O5'       16.4490   15.0880    0.0270 O.3   510  ADP510     -0.3111
     10  C5'       16.2140   13.7040   -0.1490 C.3   510  ADP510      0.1813
     11  C4'       14.7350   13.5530    0.1070 C.3   510  ADP510      0.1821
     12  O4'       14.0030   14.2010   -0.9190 O.3   510  ADP510     -0.3135
     13  C3'       14.3900   12.0950   -0.0130 C.3   510  ADP510      0.2184
     14  O3'       14.2480   11.5630    1.2850 O.3   510  ADP510     -0.2174
     15  C2'       13.0860   12.0700   -0.7510 C.3   510  ADP510      0.2570
     16  O2'       12.0860   11.5760    0.1280 O.3   510  ADP510     -0.2130
     17  C1'       12.7530   13.5130   -1.0830 C.3   510  ADP510      0.3186
     18  N9        12.3500   13.5860   -2.4900 N.pl3 510  ADP510     -0.1439
     19  C8        13.1210   13.3050   -3.5770 C.3   510  ADP510      0.3377
     20  N7        12.4200   13.4830   -4.7340 N.2   510  ADP510     -0.2095
     21  C5        11.1740   13.8740   -4.3540 C.2   510  ADP510      0.2526
     22  C6         9.9150   14.2570   -5.0230 C.2   510  ADP510      0.4393
     23  N6         9.8220   14.2440   -6.3630 N.pl3 510  ADP510      0.2180
     24  N1         8.8640   14.6050   -4.2370 N.2   510  ADP510      0.0021
     25  C2         8.9430   14.6270   -2.8910 C.3   510  ADP510      0.5254
     26  N3        10.0550   14.2980   -2.2120 N.2   510  ADP510     -0.0055
     27  C4        11.1540   13.9350   -2.8940 C.2   510  ADP510      0.3518
@<TRIPOS>BOND
     1    23    22    1
     2    22    21    1
     3    22    24    2
     4    20    21    2
     5    20    19    1
     6    21    27    1
     7    24    25    1
     8    19    18    1
     9    27    18    1
    10    27    26    2
    11    25    26    1
    12    18    17    1
    13     7     5    2
    14    17    12    1
    15    17    15    1
    16    12    11    1
    17    15    13    1
    18    15    16    1
    19    10     9    1
    20    10    11    1
    21     5     9    1
    22     5     6    1
    23     5     8    1
    24    13    11    1
    25    13    14    1
    26     3     1    2
    27     2     1    1
    28     8     1    1
    29     1     4    1
