@<TRIPOS>MOLECULE
3hz6_XUL_A_1.pdb
 10 9 0 0 0
SMALL
GASTEIGER

@<TRIPOS>ATOM
      1  C1        24.3910   19.7410   15.6470 C.3   515  XUL515      0.2486
      2  C2        24.9320   18.7440   14.6830 C.2   515  XUL515      0.2165
      3  C3        23.9430   18.2150   13.6950 C.3   515  XUL515      0.2440
      4  C4        22.6270   18.9810   13.5070 C.3   515  XUL515      0.2221
      5  C5        22.6020   20.0850   12.4420 C.3   515  XUL515      0.2179
      6  O1        23.2380   20.4260   15.1820 O.3   515  XUL515     -0.2118
      7  O2        26.0410   18.2370   14.6730 O.2   515  XUL515     -0.2905
      8  O3        23.7490   16.9310   14.1700 O.3   515  XUL515     -0.2122
      9  O4        21.6430   18.0800   13.2280 O.3   515  XUL515     -0.2171
     10  O5        22.7390   21.2840   13.1080 O.3   515  XUL515     -0.2175
@<TRIPOS>BOND
     1     5    10    1
     2     5     4    1
     3     9     4    1
     4     4     3    1
     5     3     8    1
     6     3     2    1
     7     7     2    2
     8     2     1    1
     9     6     1    1
