@<TRIPOS>MOLECULE
3hza_DUP_A_1.pdb
 28 29 0 0 0
SMALL
GASTEIGER

@<TRIPOS>ATOM
      1  O4       -16.9230   15.1040   -0.0370 O.2   201  DUP201     -0.2085
      2  C4       -16.1270   14.3020    0.4940 C.1   201  DUP201      0.2182
      3  C5       -16.4530   13.0080    0.9460 C.2   201  DUP201      0.1242
      4  C6       -15.4770   12.1740    1.3900 C.2   201  DUP201      0.0928
      5  N3       -14.8110   14.7050    0.5940 N.2   201  DUP201     -0.2452
      6  C2       -13.7830   13.9200    1.0810 C.1   201  DUP201      0.2844
      7  O2       -12.6280   14.3480    1.1000 O.2   201  DUP201     -0.1918
      8  N1       -14.1670   12.6680    1.4670 N.am  201  DUP201     -0.1790
      9  C1'      -13.1140   11.7910    2.1230 C.3   201  DUP201      0.2090
     10  C2'      -13.2550   11.7670    3.6550 C.3   201  DUP201      0.0874
     11  C3'      -14.1660   10.5790    3.9590 C.3   201  DUP201      0.1857
     12  O3'      -13.8560   10.0780    5.2560 O.3   201  DUP201     -0.2203
     13  O4'      -13.3570   10.4220    1.7320 O.3   201  DUP201     -0.3339
     14  C4'      -13.6000    9.6210    2.8650 C.3   201  DUP201      0.1774
     15  C5'      -14.5690    8.4690    2.4540 C.3   201  DUP201      0.1848
     16  O5'      -15.8310    9.0340    2.1660 O.3   201  DUP201     -0.2775
     17  PA       -17.0270    8.0370    1.7280 P.3   201  DUP201      0.4623
     18  O1A      -17.0570    6.9590    2.7540 O.3   201  DUP201     -0.1255
     19  O2A      -18.2570    8.9540    1.6960 O.2   201  DUP201     -0.2354
     20  N3A      -16.7400    7.5270    0.3050 N.3   201  DUP201     -0.0179
     21  PB       -16.2270    5.9790   -0.0580 P.3   201  DUP201      0.4700
     22  O1B      -16.9710    4.8980    0.7300 O.3   201  DUP201     -0.1252
     23  O2B      -16.2100    5.7830   -1.5310 O.2   201  DUP201     -0.2350
     24  O3B      -14.6670    5.8920    0.4000 O.3   201  DUP201     -0.1901
     25  PG       -14.0450    4.7830    1.4380 P.3   201  DUP201      0.5397
     26  O2G      -14.9180    4.8030    2.6800 O.3   201  DUP201     -0.1143
     27  O1G      -14.1370    3.5190    0.6690 O.2   201  DUP201     -0.2220
     28  O3G      -12.6510    5.3220    1.6830 O.3   201  DUP201     -0.1143
@<TRIPOS>BOND
     1    23    21    2
     2    21    20    1
     3    21    24    1
     4    21    22    1
     5     1     2    2
     6    20    17    1
     7    24    25    1
     8     2     5    2
     9     2     3    1
    10     5     6    2
    11    27    25    2
    12     3     4    2
    13     6     7    2
    14     6     8   am
    15     4     8    1
    16    25    28    1
    17    25    26    1
    18     8     9    1
    19    19    17    2
    20    17    16    1
    21    17    18    1
    22    13     9    1
    23    13    14    1
    24     9    10    1
    25    16    15    1
    26    15    14    1
    27    14    11    1
    28    10    11    1
    29    11    12    1
