@<TRIPOS>MOLECULE
3hzf_B72_A_1.pdb
 24 25 0 0 0
SMALL
GASTEIGER

@<TRIPOS>ATOM
      1  O1        19.4910    7.2290   12.8530 O.co2   1  B721       -0.2415
      2  C20       18.5930    7.2860   11.9820 C.2     1  B721        0.4084
      3  O2        17.3900    7.4440   12.2360 O.co2   1  B721       -0.2415
      4  C19       18.9350    7.1540   10.5380 C.3     1  B721        0.3186
      5  O3        18.9390    8.4790    9.9960 O.3     1  B721       -0.4637
      6  C1        19.3350    8.6540    8.7070 C.ar    1  B721        0.1387
      7  C2        19.7710    9.8930    8.3270 C.ar    1  B721        0.0323
      8  C3        20.2030   10.1200    7.0180 C.ar    1  B721       -0.0228
      9  C17       20.6530   11.4970    6.6020 C.3     1  B721        0.0308
     10  C4        20.1800    9.0110    6.0390 C.ar    1  B721       -0.0255
     11  C5        19.6730    7.6850    6.4950 C.ar    1  B721       -0.0228
     12  C6        19.2820    7.5830    7.8150 C.ar    1  B721        0.0323
     13  C18       19.6090    6.4550    5.6310 C.3     1  B721        0.0308
     14  C7        20.5680    9.2900    4.5990 C.3     1  B721        0.0520
     15  C8        21.9900    9.3260    4.1160 C.ar    1  B721       -0.0179
     16  C13       22.3320   10.3690    3.2620 C.ar    1  B721       -0.0051
     17  C12       23.6180   10.4310    2.7310 C.ar    1  B721        0.0161
     18  C14       24.0780   11.5780    1.8750 C.3     1  B721        0.0255
     19  C16       23.2270   11.7920    0.6420 C.3     1  B721        0.0048
     20  C15       24.1310   12.8410    2.7320 C.3     1  B721        0.0048
     21  C11       24.5680    9.3450    3.0910 C.ar    1  B721        0.1917
     22  O4        25.8270    9.3650    2.6390 O.3     1  B721       -0.2869
     23  C10       24.1560    8.3050    3.9160 C.ar    1  B721        0.0414
     24  C9        22.8720    8.2920    4.4330 C.ar    1  B721       -0.0007
@<TRIPOS>BOND
     1    19    18    1
     2    18    17    1
     3    18    20    1
     4    22    21    1
     5    17    21   ar
     6    17    16   ar
     7    21    23   ar
     8    16    15   ar
     9    23    24   ar
    10    15    24   ar
    11    15    14    1
    12    14    10    1
    13    13    11    1
    14    10    11   ar
    15    10     8   ar
    16    11    12   ar
    17     9     8    1
    18     8     7   ar
    19    12     6   ar
    20     7     6   ar
    21     6     5    1
    22     5     4    1
    23     4     2    1
    24     2     3   ar
    25     2     1   ar
