@<TRIPOS>MOLECULE
3hzi_ATP_A_1.pdb
 31 33 0 0 0
SMALL
GASTEIGER

@<TRIPOS>ATOM
      1  PG        45.5940  137.8300   10.7690 P.3   500  ATP500      0.5373
      2  O1G       46.1060  136.9820    9.6520 O.2   500  ATP500     -0.2221
      3  O2G       44.1320  137.9390   10.8380 O.3   500  ATP500     -0.1143
      4  O3G       46.1790  137.3440   12.0850 O.3   500  ATP500     -0.1143
      5  PB        45.2360  140.7550   10.9690 P.3   500  ATP500      0.2277
      6  O1B       44.4460  141.3610    9.8710 O.2   500  ATP500     -0.5168
      7  O2B       45.4770  141.1530   12.3570 O.3   500  ATP500     -0.4368
      8  O3B       46.0980  139.3880   10.5250 O.3   500  ATP500     -0.2258
      9  PA        47.9050  142.2870   10.8070 P.3   500  ATP500      0.2189
     10  O1A       47.6860  143.3120   11.8400 O.3   500  ATP500     -0.4371
     11  O2A       48.8590  141.2000   11.1110 O.2   500  ATP500     -0.5170
     12  O3A       46.4370  141.6650   10.3690 O.3   500  ATP500     -0.2700
     13  O5'       48.3210  143.0470    9.4870 O.3   500  ATP500     -0.3112
     14  C5'       48.5610  142.3650    8.2230 C.3   500  ATP500      0.1813
     15  C4'       49.7060  142.9760    7.4050 C.3   500  ATP500      0.1821
     16  O4'       49.6550  144.4260    7.4860 O.3   500  ATP500     -0.3135
     17  C3'       51.1470  142.5570    7.8020 C.3   500  ATP500      0.2184
     18  O3'       51.6270  141.6290    6.8020 O.3   500  ATP500     -0.2174
     19  C2'       51.9320  143.8490    7.8940 C.3   500  ATP500      0.2570
     20  O2'       52.9210  143.9810    6.8700 O.3   500  ATP500     -0.2130
     21  C1'       50.9200  145.0210    7.8450 C.3   500  ATP500      0.3186
     22  N9        50.7530  145.7860    9.1440 N.pl3 500  ATP500     -0.1439
     23  C8        49.8900  145.5750   10.2170 C.3   500  ATP500      0.3377
     24  N7        49.9970  146.4350   11.2090 N.2   500  ATP500     -0.2095
     25  C5        51.0040  147.2750   10.7760 C.2   500  ATP500      0.2526
     26  C6        51.6330  148.4470   11.3520 C.2   500  ATP500      0.4393
     27  N6        51.2740  148.8970   12.5490 N.pl3 500  ATP500      0.2180
     28  N1        52.6330  149.1040   10.6650 N.2   500  ATP500      0.0021
     29  C2        52.9970  148.6390    9.4380 C.3   500  ATP500      0.5254
     30  N3        52.4880  147.5390    8.7630 N.2   500  ATP500     -0.0055
     31  C4        51.4670  146.9030    9.5010 C.2   500  ATP500      0.3518
@<TRIPOS>BOND
     1    18    17    1
     2    20    19    1
     3    15    16    1
     4    15    17    1
     5    15    14    1
     6    16    21    1
     7    17    19    1
     8    21    19    1
     9    21    22    1
    10    14    13    1
    11    30    29    1
    12    30    31    2
    13    22    31    1
    14    22    23    1
    15    29    28    1
    16    13     9    1
    17    31    25    1
    18     2     1    2
    19     6     5    2
    20    23    24    1
    21    12     9    1
    22    12     5    1
    23     8     1    1
    24     8     5    1
    25    28    26    2
    26     1     3    1
    27     1     4    1
    28    25    24    2
    29    25    26    1
    30     9    11    2
    31     9    10    1
    32     5     7    1
    33    26    27    1
