@<TRIPOS>MOLECULE
3hzk_KDA_B_1.pdb
 19 19 0 0 0
SMALL
GASTEIGER

@<TRIPOS>ATOM
      1  C1         6.8310   -0.8740   -6.3720 C.2   302  KDA302      0.4275
      2  O1A        7.2790   -1.9590   -6.7900 O.co2 302  KDA302     -0.2389
      3  O1B        5.6330   -0.5320   -6.4740 O.co2 302  KDA302     -0.2389
      4  C2         7.8110    0.0350   -5.5780 C.3   302  KDA302      0.3269
      5  C3         7.4950   -0.1860   -4.0810 C.3   302  KDA302      0.1174
      6  C4         8.4950    0.5140   -3.1460 C.3   302  KDA302      0.1914
      7  O4         8.1050    0.2540   -1.7660 O.3   302  KDA302     -0.2201
      8  C5         9.9030    0.0260   -3.5080 C.3   302  KDA302      0.2119
      9  O5         9.9560   -1.3940   -3.3870 O.3   302  KDA302     -0.2177
     10  C6        10.1820    0.3620   -4.9650 C.3   302  KDA302      0.1847
     11  O6         9.1950   -0.3110   -5.8070 O.3   302  KDA302     -0.3139
     12  C7        11.6630    0.3000   -5.4340 C.3   302  KDA302      0.2144
     13  O7        12.5840    0.6980   -4.4000 O.3   302  KDA302     -0.2176
     14  C8        11.8620    1.1440   -6.6980 C.3   302  KDA302      0.2174
     15  O8        11.0150    0.6780   -7.7390 O.3   302  KDA302     -0.2175
     16  O2         7.7580    1.4670   -5.8480 O.2   302  KDA302     -0.4461
     17  C9         6.4120    1.9070   -6.1590 C.2   302  KDA302      0.1708
     18  C10        5.3060    1.7180   -5.3300 C.2   302  KDA302      0.0143
     19  C11        4.0630    2.1870   -5.7400 C.3   302  KDA302      0.0341
@<TRIPOS>BOND
     1    15    14    1
     2     2     1   ar
     3    14    12    1
     4     3     1   ar
     5     1     4    1
     6    17    16    1
     7    17    18    2
     8    16     4    1
     9    11     4    1
    10    11    10    1
    11    19    18    1
    12     4     5    1
    13    12    10    1
    14    12    13    1
    15    10     8    1
    16     5     6    1
    17     8     9    1
    18     8     6    1
    19     6     7    1
