@<TRIPOS>MOLECULE
3hzm_KDO_B_1.pdb
 16 16 0 0 0
SMALL
GASTEIGER

@<TRIPOS>ATOM
      1  C1        -9.4510    0.5050    0.5850 C.2   303  KDO303      0.4179
      2  O1A      -10.4370    0.9080   -0.0920 O.co2 303  KDO303     -0.2401
      3  O1B       -9.4060   -0.5830    1.2020 O.co2 303  KDO303     -0.2401
      4  C2        -8.2480    1.4380    0.7670 C.3   303  KDO303      0.3156
      5  O2        -7.4100    0.9080    1.8170 O.3   303  KDO303     -0.1830
      6  C3        -7.4990    1.6220   -0.5710 C.3   303  KDO303      0.1064
      7  C4        -6.3150    2.5770   -0.3650 C.3   303  KDO303      0.1902
      8  O4        -5.6680    2.7720   -1.6420 O.3   303  KDO303     -0.2201
      9  C5        -6.8830    3.9120    0.1370 C.3   303  KDO303      0.2118
     10  O5        -7.7830    4.4090   -0.8400 O.3   303  KDO303     -0.2177
     11  C6        -7.6670    3.6420    1.4190 C.3   303  KDO303      0.1838
     12  O6        -8.7250    2.7220    1.2140 O.3   303  KDO303     -0.3212
     13  C7        -8.3270    4.9470    1.9160 C.3   303  KDO303      0.2143
     14  O7        -7.3490    5.9720    2.1290 O.3   303  KDO303     -0.2176
     15  C8        -9.0660    4.6250    3.2310 C.3   303  KDO303      0.2174
     16  O8        -9.7980    5.7730    3.7140 O.3   303  KDO303     -0.2175
@<TRIPOS>BOND
     1     8     7    1
     2    10     9    1
     3     6     7    1
     4     6     4    1
     5     7     9    1
     6     2     1   ar
     7     9    11    1
     8     1     4    1
     9     1     3   ar
    10     4    12    1
    11     4     5    1
    12    12    11    1
    13    11    13    1
    14    13    14    1
    15    13    15    1
    16    15    16    1
