@<TRIPOS>MOLECULE
3hzt_J60_A_1.pdb
 29 31 0 0 0
SMALL
GASTEIGER

@<TRIPOS>ATOM
      1  CBA       14.2680   -7.4830   21.3320 C.3   540  J60540      0.0188
      2  CAZ       13.0040   -8.2150   20.8630 C.3   540  J60540      0.0722
      3  NAX       12.0860   -8.4010   22.0040 N.3   540  J60540     -0.2712
      4  CAY       11.9710   -9.8330   22.3610 C.3   540  J60540      0.0722
      5  CBB       12.7890  -10.1270   23.6230 C.3   540  J60540      0.0188
      6  CAW       10.7980   -7.6870   21.7960 C.3   540  J60540      0.0958
      7  CAV        9.6600   -8.6090   21.3080 C.3   540  J60540      0.1327
      8  NAU        8.6660   -8.8080   22.3890 N.am  540  J60540     -0.2001
      9  CAS        8.4580   -9.9680   23.0230 C.2   540  J60540      0.2667
     10  OAT        9.0050  -11.0320   22.7500 O.2   540  J60540     -0.2683
     11  CAN        7.3440   -9.9270   24.0730 C.2   540  J60540      0.0786
     12  CAM        6.8830   -8.8100   24.7380 C.2   540  J60540      0.0105
     13  CAQ        7.4210   -7.3710   24.5930 C.3   540  J60540      0.0336
     14  CAO        6.5720  -10.9900   24.5230 C.2   540  J60540      0.1131
     15  CAR        6.6750  -12.4630   24.1060 C.3   540  J60540      0.0665
     16  NAP        5.6880  -10.5450   25.4090 N.2   540  J60540     -0.4104
     17  CAL        5.8410   -9.2210   25.5780 C.2   540  J60540      0.1099
     18  CAK        5.2000   -8.2920   26.3950 C.3   540  J60540      0.0975
     19  CAG        4.1300   -8.5590   27.2610 C.2   540  J60540      0.0780
     20  CAE        3.5100   -7.5910   28.0550 C.2   540  J60540      0.0180
     21  CAD        3.7050   -6.2060   28.2490 C.3   540  J60540      0.0666
     22  CAA        2.8680   -5.5200   29.1490 C.2   540  J60540      0.0360
     23 CL          3.0230   -3.8170   29.4740 Cl    540  J60540     -0.0869
     24  CAB        1.8670   -6.2090   29.8200 C.2   540  J60540     -0.0113
     25  CAC        1.6740   -7.5760   29.6250 C.3   540  J60540      0.0862
     26  CAF        2.4960   -8.2730   28.7440 C.2   540  J60540      0.1231
     27  NAH        2.5010   -9.5690   28.3890 N.2   540  J60540     -0.3375
     28  CAI        3.4760   -9.7640   27.5000 C.1   540  J60540      0.2004
     29  OAJ        3.7280  -10.8580   26.9910 O.2   540  J60540     -0.2096
@<TRIPOS>BOND
     1     2     1    1
     2     2     3    1
     3     7     6    1
     4     7     8    1
     5     6     3    1
     6     3     4    1
     7     4     5    1
     8     8     9   am
     9    10     9    2
    10     9    11    1
    11    11    14    1
    12    11    12    2
    13    15    14    1
    14    14    16    2
    15    13    12    1
    16    12    17    1
    17    16    17    2
    18    17    18    1
    19    18    19    1
    20    29    28    2
    21    19    28    1
    22    19    20    2
    23    28    27    2
    24    20    21    1
    25    20    26    1
    26    21    22    1
    27    27    26    2
    28    26    25    1
    29    22    23    1
    30    22    24    2
    31    25    24    1
