@<TRIPOS>MOLECULE
3hzv_KDA_A_1.pdb
 19 19 0 0 0
SMALL
GASTEIGER

@<TRIPOS>ATOM
      1  C1        -5.8980   -0.3640    6.1960 C.2   301  KDA301      0.4152
      2  O1A       -6.3440   -1.4660    6.5930 O.co2 301  KDA301     -0.2402
      3  O1B       -4.7320    0.0400    6.3340 O.co2 301  KDA301     -0.2402
      4  C2        -6.8730    0.5460    5.4430 C.3   301  KDA301      0.2863
      5  C3        -6.7460    0.2570    3.9520 C.3   301  KDA301      0.1036
      6  C4        -7.7800    1.0310    3.1750 C.3   301  KDA301      0.1901
      7  O4        -7.5950    0.7230    1.7850 O.3   301  KDA301     -0.2201
      8  C5        -9.1830    0.6510    3.6900 C.3   301  KDA301      0.2118
      9  O5        -9.4300   -0.7620    3.5430 O.3   301  KDA301     -0.2177
     10  C6        -9.2350    1.0250    5.1690 C.3   301  KDA301      0.1837
     11  O6        -8.2180    0.3000    5.8810 O.3   301  KDA301     -0.3230
     12  C7       -10.5720    0.7080    5.8370 C.3   301  KDA301      0.2143
     13  O7       -11.6590    1.3740    5.1900 O.3   301  KDA301     -0.2176
     14  C8       -10.4750    1.1780    7.2950 C.3   301  KDA301      0.2174
     15  O8       -11.6980    0.9140    7.9900 O.3   301  KDA301     -0.2175
     16  O2        -6.6560    1.9800    5.6360 O.3   301  KDA301     -0.3260
     17  C9        -6.9570    2.5550    6.9420 C.3   301  KDA301      0.1452
     18  C10       -6.2780    1.8200    8.0970 C.3   301  KDA301      0.0322
     19  C11       -6.9240    2.0490    9.4700 C.3   301  KDA301      0.0027
@<TRIPOS>BOND
     1     7     6    1
     2     6     8    1
     3     6     5    1
     4     9     8    1
     5     8    10    1
     6     5     4    1
     7    10    12    1
     8    10    11    1
     9    13    12    1
    10     4    16    1
    11     4    11    1
    12     4     1    1
    13    16    17    1
    14    12    14    1
    15     1     3   ar
    16     1     2   ar
    17    17    18    1
    18    14    15    1
    19    18    19    1
