@<TRIPOS>MOLECULE
3hzw_PBP_A_1.pdb
 10 10 0 0 0
SMALL
GASTEIGER

@<TRIPOS>ATOM
      1  CH        24.1610   26.4380   37.5610 C.3   201  PBP201      0.0773
      2  CG        24.7970   26.1520   35.0420 C.ar  201  PBP201      0.0347
      3  CD1       24.4420   25.9220   33.6790 C.ar  201  PBP201      0.0033
      4  CE1       25.4520   25.8730   32.6910 C.ar  201  PBP201      0.0068
      5  CD2       26.1740   26.3250   35.3610 C.ar  201  PBP201      0.0033
      6  CE2       27.1670   26.2760   34.3800 C.ar  201  PBP201      0.0068
      7  CZ        26.8260   26.0490   33.0370 C.ar  201  PBP201      0.0346
      8 BR         28.1850   25.9880   31.7250 Br    201  PBP201     -0.0490
      9  CR        23.8340   26.2060   36.0720 C.2   201  PBP201      0.1735
     10  O         22.6470   26.0520   35.7770 O.2   201  PBP201     -0.2913
@<TRIPOS>BOND
     1     8     7    1
     2     4     7   ar
     3     4     3   ar
     4     7     6   ar
     5     3     2   ar
     6     6     5   ar
     7     2     5   ar
     8     2     9    1
     9    10     9    2
    10     9     1    1
