@<TRIPOS>MOLECULE
3hzx_THP_A_1.pdb
 25 26 0 0 0
SMALL
GASTEIGER

@<TRIPOS>ATOM
      1  P2        17.8610   11.2230    4.8340 P.3   151  THP151      0.5327
      2  O4P       16.5570   11.9570    5.1710 O.3   151  THP151     -0.1145
      3  O5P       17.9070    9.7550    5.1480 O.2   151  THP151     -0.2224
      4  O6P       19.0900   11.9680    5.2350 O.3   151  THP151     -0.1145
      5  P1        21.2110   14.7530    0.9370 P.3   151  THP151      0.5326
      6  O1P       22.1360   15.3540   -0.0700 O.2   151  THP151     -0.2224
      7  O2P       21.7900   13.6190    1.7600 O.3   151  THP151     -0.1145
      8  O3P       20.4790   15.7530    1.8110 O.3   151  THP151     -0.1145
      9  O5'       17.9090   11.2150    3.2320 O.3   151  THP151     -0.2675
     10  C5'       17.7980   12.4550    2.5420 C.3   151  THP151      0.1857
     11  C4'       18.8200   12.5140    1.4240 C.3   151  THP151      0.1748
     12  O4'       18.4880   11.4280    0.5720 O.3   151  THP151     -0.3340
     13  C3'       18.7500   13.7750    0.5510 C.3   151  THP151      0.1600
     14  O3'       20.0590   14.0790    0.0040 O.3   151  THP151     -0.2700
     15  C2'       17.8360   13.3580   -0.5840 C.3   151  THP151      0.0847
     16  C1'       18.0680   11.8570   -0.6910 C.3   151  THP151      0.2089
     17  N1        16.9070   11.0110   -1.0320 N.am  151  THP151     -0.1794
     18  C2        16.5510   10.9190   -2.3910 C.1   151  THP151      0.2844
     19  O2        17.4300   11.2080   -3.2270 O.2   151  THP151     -0.1918
     20  N3        15.3840   10.3900   -2.7870 N.2   151  THP151     -0.2455
     21  C4        14.4020   10.1050   -1.9190 C.1   151  THP151      0.2134
     22  O4        13.3210    9.6630   -2.3510 O.2   151  THP151     -0.2088
     23  C5        14.6680   10.2860   -0.4670 C.2   151  THP151      0.0891
     24  C5M       13.6750    9.9660    0.6160 C.3   151  THP151      0.0462
     25  C6        15.9050   10.7920   -0.0890 C.2   151  THP151      0.0877
@<TRIPOS>BOND
     1    19    18    2
     2    20    18    2
     3    20    21    2
     4    18    17   am
     5    22    21    2
     6    21    23    1
     7    17    16    1
     8    17    25    1
     9    16    15    1
    10    16    12    1
    11    15    13    1
    12    23    25    2
    13    23    24    1
    14     6     5    2
    15    14    13    1
    16    14     5    1
    17    13    11    1
    18    12    11    1
    19     5     7    1
    20     5     8    1
    21    11    10    1
    22    10     9    1
    23     9     1    1
    24     1     3    2
    25     1     2    1
    26     1     4    1
