@<TRIPOS>MOLECULE
3hzy_KDA_A_1.pdb
 18 18 0 0 0
SMALL
GASTEIGER

@<TRIPOS>ATOM
      1  C1        -6.3490    7.0370    8.1520 C.2   217  KDA217      0.4274
      2  O1A       -5.3650    7.5870    8.6770 O.co2 217  KDA217     -0.2389
      3  O1B       -7.2590    7.6500    7.5230 O.co2 217  KDA217     -0.2389
      4  C2        -6.4380    5.5040    8.3120 C.3   217  KDA217      0.3243
      5  C3        -5.9680    4.7620    7.0260 C.3   217  KDA217      0.0846
      6  C4        -5.7470    3.2510    7.2740 C.3   217  KDA217      0.0424
      7  C5        -4.8800    3.0180    8.5110 C.3   217  KDA217      0.1819
      8  O5        -3.5620    3.4840    8.1880 O.3   217  KDA217     -0.2204
      9  C6        -5.4140    3.7770    9.7400 C.3   217  KDA217      0.1821
     10  O6        -5.5220    5.1850    9.3920 O.3   217  KDA217     -0.3141
     11  C7        -4.4980    3.5520   10.9520 C.3   217  KDA217      0.2143
     12  O7        -4.1230    2.1770   11.0480 O.3   217  KDA217     -0.2176
     13  C8        -5.1830    3.9550   12.2700 C.3   217  KDA217      0.2174
     14  O8        -5.4000    5.3770   12.3100 O.3   217  KDA217     -0.2175
     15  O2        -7.7300    4.9920    8.7460 O.2   217  KDA217     -0.4462
     16  C9        -8.8940    5.6520    9.0400 C.2   217  KDA217      0.1708
     17  C10       -9.1670    6.5420   10.0840 C.2   217  KDA217      0.0143
     18  C11      -10.4390    7.0930   10.1970 C.3   217  KDA217      0.0341
@<TRIPOS>BOND
     1     5     6    1
     2     5     4    1
     3     6     7    1
     4     3     1   ar
     5     1     4    1
     6     1     2   ar
     7     8     7    1
     8     4    15    1
     9     4    10    1
    10     7     9    1
    11    15    16    1
    12    16    17    2
    13    10     9    1
    14     9    11    1
    15    17    18    1
    16    11    12    1
    17    11    13    1
    18    13    14    1
