@<TRIPOS>MOLECULE
3i02_KDA_A_1.pdb
 18 18 0 0 0
SMALL
GASTEIGER

@<TRIPOS>ATOM
      1  C1        49.4920   24.8080   53.7240 C.2   214  KDA214      0.4274
      2  O1A       50.2600   23.8260   53.7920 O.co2 214  KDA214     -0.2389
      3  O1B       48.9410   25.2080   52.6750 O.co2 214  KDA214     -0.2389
      4  C2        49.0700   25.4790   55.0510 C.3   214  KDA214      0.3243
      5  C3        47.5940   25.1120   55.2190 C.3   214  KDA214      0.0846
      6  C4        47.0450   25.5540   56.5690 C.3   214  KDA214      0.0424
      7  C5        47.9180   24.9970   57.6830 C.3   214  KDA214      0.1819
      8  O5        47.8720   23.5720   57.6200 O.3   214  KDA214     -0.2204
      9  C6        49.3620   25.4980   57.5080 C.3   214  KDA214      0.1821
     10  O6        49.8060   25.0130   56.2000 O.3   214  KDA214     -0.3141
     11  C7        50.4580   25.2460   58.5610 C.3   214  KDA214      0.2143
     12  O7        49.9980   25.6280   59.8620 O.3   214  KDA214     -0.2176
     13  C8        51.7280   26.0420   58.2280 C.3   214  KDA214      0.2174
     14  O8        52.2490   25.6970   56.9420 O.3   214  KDA214     -0.2175
     15  O2        49.2880   26.9200   55.1510 O.2   214  KDA214     -0.4462
     16  C9        49.1370   27.8980   54.2170 C.2   214  KDA214      0.1708
     17  C10       48.7470   27.7460   52.8990 C.2   214  KDA214      0.0143
     18  C11       48.6610   28.8980   52.1220 C.3   214  KDA214      0.0341
@<TRIPOS>BOND
     1    18    17    1
     2     3     1   ar
     3    17    16    2
     4     1     2   ar
     5     1     4    1
     6    16    15    1
     7     4    15    1
     8     4     5    1
     9     4    10    1
    10     5     6    1
    11    10     9    1
    12     6     7    1
    13    14    13    1
    14     9     7    1
    15     9    11    1
    16     8     7    1
    17    13    11    1
    18    11    12    1
