@<TRIPOS>MOLECULE
3i03_PBP_A_1.pdb
 10 10 0 0 0
SMALL
GASTEIGER

@<TRIPOS>ATOM
      1  CH        17.2830    9.7030   31.5390 C.2   201  PBP201      0.0453
      2  CG        19.1270    8.1230   31.9040 C.ar  201  PBP201      0.0390
      3  CD1       20.4990    7.8550   31.9120 C.ar  201  PBP201      0.0037
      4  CE1       20.9420    6.5290   32.0180 C.ar  201  PBP201      0.0068
      5  CD2       18.2000    7.0690   31.8450 C.ar  201  PBP201      0.0037
      6  CE2       18.6430    5.7410   31.9590 C.ar  201  PBP201      0.0068
      7  CZ        20.0200    5.4790   32.0470 C.ar  201  PBP201      0.0346
      8 BR         20.5250    4.0700   32.2210 Br    201  PBP201     -0.0490
      9  CR        18.6240    9.5340   31.6590 C.2   201  PBP201      0.1957
     10  O         19.4350   10.5750   31.5170 O.2   201  PBP201     -0.2866
@<TRIPOS>BOND
     1    10     9    1
     2     1     9    2
     3     9     2    1
     4     5     2   ar
     5     5     6   ar
     6     2     3   ar
     7     3     4   ar
     8     6     7   ar
     9     4     7   ar
    10     7     8    1
