@<TRIPOS>MOLECULE
3i06_QL2_A_1.pdb
 22 24 0 0 0
SMALL
GASTEIGER

@<TRIPOS>ATOM
      1  N1        -5.4360  -35.1470    1.8850 N.2   220  QL2220     -0.3196
      2  C2        -6.4800  -34.2970    1.7580 C.1   220  QL2220      0.1631
      3  N2        -7.0230  -32.0840    0.9880 N.2   220  QL2220     -0.1325
      4  N3        -7.7120  -34.5110    2.1720 N.2   220  QL2220     -0.3214
      5  C4        -7.8550  -35.7160    2.7680 C.2   220  QL2220      0.2186
      6  C5        -6.8820  -36.6780    2.9520 C.2   220  QL2220      0.1692
      7  C6        -5.5900  -36.3140    2.5120 C.2   220  QL2220      0.2371
      8  N6        -4.5510  -37.1740    2.6870 N.pl3 220  QL2220     -0.1813
      9  N7        -7.4020  -37.7750    3.5810 N.2   220  QL2220     -0.2402
     10  C8        -8.6930  -37.4620    3.7570 C.3   220  QL2220      0.2221
     11  N9        -9.0060  -36.2400    3.2720 N.pl3 220  QL2220     -0.2608
     12  CAA      -11.1980  -36.2890    2.3640 C.3   220  QL2220      0.0233
     13  FAE       -1.1410  -35.4060   -0.1660 F     220  QL2220     -0.2041
     14  FAF       -0.0640  -38.6240    3.0450 F     220  QL2220     -0.2041
     15  CAI       -0.5610  -36.9960    1.4400 C.ar  220  QL2220      0.0593
     16  CAJ       -2.8190  -36.2160    1.2210 C.ar  220  QL2220      0.0464
     17  CAK       -2.2730  -37.8560    2.8830 C.ar  220  QL2220      0.0464
     18  CAL      -10.3640  -35.5780    3.3470 C.3   220  QL2220      0.0951
     19  CAS       -6.1790  -33.0410    1.0800 C.2   220  QL2220      0.2184
     20  CAT       -1.5250  -36.2280    0.8130 C.ar  220  QL2220      0.1437
     21  CAU       -0.9740  -37.8040    2.4420 C.ar  220  QL2220      0.1437
     22  CAV       -3.2260  -37.0680    2.2440 C.ar  220  QL2220      0.0776
@<TRIPOS>BOND
     1    13    20    1
     2    20    16   ar
     3    20    15   ar
     4     3    19    2
     5    19     2    1
     6    16    22   ar
     7    15    21   ar
     8     2     1    2
     9     2     4    2
    10     1     7    2
    11     4     5    2
    12    22     8    1
    13    22    17   ar
    14    12    18    1
    15    21    17   ar
    16    21    14    1
    17     7     8    1
    18     7     6    1
    19     5     6    1
    20     5    11    1
    21     6     9    2
    22    11    18    1
    23    11    10    1
    24     9    10    1
