@<TRIPOS>MOLECULE
3i0a_DBH_B_1.pdb
 11 11 0 0 0
SMALL
GASTEIGER

@<TRIPOS>ATOM
      1  O17       53.7530  105.0050   41.8580 O.co2 180  DBH180     -0.2404
      2  C21       53.4160  104.4710   40.7780 C.2   180  DBH180      0.3910
      3  O9        52.2580  104.5730   40.3180 O.co2 180  DBH180     -0.2404
      4  C18       54.4390  103.6870   40.0090 C.ar  180  DBH180      0.1218
      5  C15       54.9230  102.4880   40.5290 C.ar  180  DBH180      0.0100
      6  C12       55.8740  101.7560   39.8220 C.ar  180  DBH180      0.0037
      7  C3        54.9050  104.1550   38.7850 C.ar  180  DBH180      0.2405
      8  O3        54.4320  105.3280   38.2760 O.3   180  DBH180     -0.2829
      9  C6        55.8520  103.4270   38.0780 C.ar  180  DBH180      0.2345
     10  C9        56.3390  102.2260   38.5950 C.ar  180  DBH180      0.0454
     11  O6        56.3090  103.8850   36.8780 O.3   180  DBH180     -0.2831
@<TRIPOS>BOND
     1    11     9    1
     2     9    10   ar
     3     9     7   ar
     4     8     7    1
     5    10     6   ar
     6     7     4   ar
     7     6     5   ar
     8     4     5   ar
     9     4     2    1
    10     3     2   ar
    11     2     1   ar
