@<TRIPOS>MOLECULE
3i0a_2DS_A_1.pdb
 31 32 0 0 0
SMALL
GASTEIGER

@<TRIPOS>ATOM
      1  C1        25.9700   76.8220   66.5210 C.ar  182  2DS182      0.2386
      2  N1        26.3080   78.8820   68.5700 N.am  182  2DS182     -0.1895
      3  O1        26.9290   77.7500   66.2230 O.3   182  2DS182     -0.2830
      4  C3        30.5320   75.7870   65.3390 C.ar  182  2DS182      0.2386
      5  N3        30.7330   76.9570   67.9900 N.am  182  2DS182     -0.1878
      6  O3        29.6230   76.7680   65.6360 O.3   182  2DS182     -0.2830
      7  C4        25.8760   75.7040   65.7040 C.ar  182  2DS182      0.2344
      8  O4        26.7400   75.5800   64.6500 O.3   182  2DS182     -0.2831
      9  C6        30.5690   75.2720   64.0490 C.ar  182  2DS182      0.2344
     10  O6        29.7090   75.7540   63.1030 O.3   182  2DS182     -0.2831
     11  C7        24.9190   74.7210   65.9540 C.ar  182  2DS182      0.0454
     12  O7        24.2340   78.4500   69.2540 O.2   182  2DS182     -0.2682
     13  C9        31.4830   74.2720   63.7180 C.ar  182  2DS182      0.0454
     14  O9        31.9930   75.1850   68.5780 O.2   182  2DS182     -0.2682
     15  C10       24.0550   74.8650   67.0350 C.ar  182  2DS182      0.0036
     16  O10       28.7960   81.0210   69.0850 O.2   182  2DS182     -0.2481
     17  C12       32.3590   73.7870   64.6820 C.ar  182  2DS182      0.0036
     18  O12       30.6680   75.7080   70.7510 O.co2 182  2DS182     -0.2436
     19  C13       24.1530   75.9880   67.8530 C.ar  182  2DS182      0.0080
     20  O14       32.4220   77.0730   70.7590 O.co2 182  2DS182     -0.2436
     21  C15       32.3190   74.3010   65.9760 C.ar  182  2DS182      0.0080
     22  O15       28.8380   78.9930   70.2070 O.3   182  2DS182     -0.4448
     23  C16       25.1050   76.9770   67.6050 C.ar  182  2DS182      0.0971
     24  C18       31.4070   75.3020   66.3080 C.ar  182  2DS182      0.0971
     25  C19       25.1830   78.1690   68.5330 C.2   182  2DS182      0.2685
     26  C21       31.3930   75.8250   67.7190 C.2   182  2DS182      0.2686
     27  C22       26.6390   80.0520   69.3730 C.3   182  2DS182      0.2243
     28  C24       30.6280   77.5860   69.3100 C.3   182  2DS182      0.2414
     29  C25       28.1440   80.0870   69.5290 C.2   182  2DS182      0.3394
     30  C27       31.2780   76.7370   70.3590 C.2   182  2DS182      0.3880
     31  C30       29.1200   77.7620   69.5310 C.3   182  2DS182      0.2416
@<TRIPOS>BOND
     1    10     9    1
     2    13     9   ar
     3    13    17   ar
     4     9     4   ar
     5     8     7    1
     6    17    21   ar
     7     4     6    1
     8     4    24   ar
     9     7    11   ar
    10     7     1   ar
    11    11    15   ar
    12    21    24   ar
    13     3     1    1
    14    24    26    1
    15     1    23   ar
    16    15    19   ar
    17    23    19   ar
    18    23    25    1
    19    26     5   am
    20    26    14    2
    21     5    28    1
    22    25     2   am
    23    25    12    2
    24     2    27    1
    25    16    29    2
    26    28    31    1
    27    28    30    1
    28    27    29    1
    29    29    22    1
    30    31    22    1
    31    30    18   ar
    32    30    20   ar
