@<TRIPOS>MOLECULE
3i0a_MCJ_C_1.pdb
 49 51 0 0 0
SMALL
GASTEIGER

@<TRIPOS>ATOM
      1  C1        48.3300   36.3270   44.3740 C.2   183  MCJ183      0.2349
      2  N1        49.8550   34.4340   42.9000 N.am  183  MCJ183     -0.1882
      3  O1        48.9580   36.8030   43.2670 O.2   183  MCJ183     -0.2833
      4  C3        51.1180   39.7210   43.0360 C.ar  183  MCJ183      0.2386
      5  N3        52.5940   38.3000   41.1900 N.am  183  MCJ183     -0.1878
      6  O3        50.4420   38.7810   42.3240 O.3   183  MCJ183     -0.2830
      7  C4        47.3140   37.1750   45.0390 C.2   183  MCJ183      0.2338
      8  O4        47.0460   38.3040   44.5790 O.2   183  MCJ183     -0.2832
      9  C6        50.4610   40.3620   44.1810 C.ar  183  MCJ183      0.2344
     10  O6        49.1920   39.9850   44.4820 O.3   183  MCJ183     -0.2831
     11  C7        46.6720   36.6940   46.1700 C.2   183  MCJ183      0.0412
     12  O7        50.1910   33.3030   44.8260 O.2   183  MCJ183     -0.2686
     13  C9        51.1530   41.3250   44.9090 C.ar  183  MCJ183      0.0454
     14  O9        54.1080   40.0360   41.0130 O.2   183  MCJ183     -0.2682
     15  C10       46.9910   35.4290   46.6570 C.2   183  MCJ183     -0.0178
     16  O10       51.6120   33.7830   39.8290 O.2   183  MCJ183     -0.2481
     17  C12       52.4580   41.6830   44.5630 C.ar  183  MCJ183      0.0036
     18  O12       54.3440   35.9060   39.4200 O.co2 183  MCJ183     -0.2436
     19  C13       47.9500   34.6290   46.0280 C.3   183  MCJ183      0.0605
     20  O14       55.0710   37.3840   40.8250 O.co2 183  MCJ183     -0.2436
     21  C15       53.1260   41.1010   43.4800 C.ar  183  MCJ183      0.0080
     22  O15       51.1010   35.8920   40.6720 O.3   183  MCJ183     -0.4447
     23  C16       48.6310   35.0780   44.8920 C.2   183  MCJ183      0.0792
     24  C18       52.5020   40.1290   42.7010 C.ar  183  MCJ183      0.0971
     25  C19       49.6390   34.1980   44.2030 C.2   183  MCJ183      0.2649
     26  C21       53.1620   39.4740   41.5320 C.2   183  MCJ183      0.2686
     27  C22       50.7470   33.6860   42.0210 C.3   183  MCJ183      0.2370
     28  C24       52.8820   37.3350   40.3180 C.3   183  MCJ183      0.2414
     29  C25       51.1820   34.4290   40.7780 C.2   183  MCJ183      0.3409
     30  C27       54.1260   36.8550   40.2020 C.2   183  MCJ183      0.3880
     31  C30       51.7050   36.6840   39.6420 C.3   183  MCJ183      0.2416
     32  C32       49.8460   32.5180   41.6210 C.3   183  MCJ183      0.2414
     33  O33       48.5040   33.0100   41.5470 O.3   183  MCJ183     -0.4448
     34  C34       47.5660   32.5990   40.5160 C.2   183  MCJ183      0.3398
     35  O35       46.9700   31.5440   40.6630 O.2   183  MCJ183     -0.2481
     36  C36       47.3170   33.4510   39.3000 C.3   183  MCJ183      0.2264
     37  N37       47.2400   34.8880   39.5910 N.am  183  MCJ183     -0.1891
     38  C38       48.4510   33.2710   38.2830 C.3   183  MCJ183      0.2150
     39  O39       49.2740   34.4440   38.1960 O.3   183  MCJ183     -0.2179
     40  C40       46.2850   35.6660   39.0680 C.2   183  MCJ183      0.2685
     41  O41       45.4300   35.1830   38.3490 O.2   183  MCJ183     -0.2682
     42  C42       46.1990   37.1470   39.3610 C.ar  183  MCJ183      0.0971
     43  C43       47.0780   37.8170   40.3580 C.ar  183  MCJ183      0.2386
     44  C44       46.9010   39.2770   40.5800 C.ar  183  MCJ183      0.2344
     45  C45       45.9320   39.9650   39.8610 C.ar  183  MCJ183      0.0454
     46  C46       45.1290   39.3030   38.9370 C.ar  183  MCJ183      0.0036
     47  C47       45.2540   37.9330   38.6920 C.ar  183  MCJ183      0.0080
     48  O48       48.0210   37.1310   41.0570 O.3   183  MCJ183     -0.2830
     49  O49       47.6780   39.9410   41.4800 O.3   183  MCJ183     -0.2831
@<TRIPOS>BOND
     1    39    38    1
     2    38    36    1
     3    41    40    2
     4    47    46   ar
     5    47    42   ar
     6    46    45   ar
     7    40    42    1
     8    40    37   am
     9    36    37    1
    10    36    34    1
    11    42    43   ar
    12    18    30   ar
    13    31    28    1
    14    31    22    1
    15    16    29    2
    16    45    44   ar
    17    30    28    1
    18    30    20   ar
    19    28     5    1
    20    43    44   ar
    21    43    48    1
    22    34    35    2
    23    34    33    1
    24    44    49    1
    25    22    29    1
    26    29    27    1
    27    14    26    2
    28     5    26   am
    29    26    24    1
    30    33    32    1
    31    32    27    1
    32    27     2    1
    33     6     4    1
    34    24     4   ar
    35    24    21   ar
    36     2    25   am
    37     4     9   ar
    38     3     1    1
    39    21    17   ar
    40     9    10    1
    41     9    13   ar
    42    25    12    2
    43    25    23    1
    44     1    23    2
    45     1     7    1
    46    17    13   ar
    47     8     7    2
    48    23    19    1
    49     7    11    1
    50    19    15    1
    51    11    15    2
