@<TRIPOS>MOLECULE
3i0a_3ET_A_1.pdb
 29 29 0 0 0
SMALL
GASTEIGER

@<TRIPOS>ATOM
      1  O35       33.4470   77.6030   65.6570 O.2   181  3ET181     -0.2484
      2  C34       34.3840   77.5400   64.8760 C.2   181  3ET181      0.3373
      3  C36       35.6540   76.8510   65.2680 C.3   181  3ET181      0.2227
      4  C38       36.8380   77.7970   65.1290 C.3   181  3ET181      0.2124
      5  O39       38.0130   77.1840   65.6790 O.3   181  3ET181     -0.2182
      6  N37       35.5560   76.4110   66.6460 N.3   181  3ET181     -0.1181
      7  O33       34.2570   78.1350   63.5540 O.3   181  3ET181     -0.4452
      8  C32       33.2030   77.7290   62.6810 C.3   181  3ET181      0.2387
      9  C22       32.2550   78.8930   62.4070 C.3   181  3ET181      0.2333
     10  N1        31.0640   78.3860   61.7470 N.3   181  3ET181     -0.1169
     11  C25       31.8900   79.5540   63.7040 C.2   181  3ET181      0.3384
     12  O10       31.1430   78.9710   64.4780 O.2   181  3ET181     -0.2484
     13  O15       32.4330   80.8660   64.0600 O.3   181  3ET181     -0.4449
     14  C30       31.6110   82.0280   64.1970 C.3   181  3ET181      0.2415
     15  C24       30.3900   81.7400   65.0860 C.3   181  3ET181      0.2414
     16  C27       29.7820   82.9730   65.6930 C.2   181  3ET181      0.3880
     17  O14       28.5330   83.0890   65.7180 O.co2 181  3ET181     -0.2436
     18  O12       30.5480   83.8350   66.1700 O.co2 181  3ET181     -0.2436
     19  N3        29.4200   81.0210   64.2640 N.am  181  3ET181     -0.1878
     20  C21       28.9530   81.4390   63.0860 C.2   181  3ET181      0.2686
     21  O9        29.2760   82.4980   62.5650 O.2   181  3ET181     -0.2682
     22  C18       27.9610   80.5800   62.3760 C.ar  181  3ET181      0.0971
     23  C3        27.7140   79.2850   62.7980 C.ar  181  3ET181      0.2386
     24  O3        28.3720   78.7540   63.8690 O.3   181  3ET181     -0.2830
     25  C6        26.7880   78.5120   62.1310 C.ar  181  3ET181      0.2344
     26  O6        26.5630   77.2430   62.5640 O.3   181  3ET181     -0.2831
     27  C9        26.1020   79.0310   61.0390 C.ar  181  3ET181      0.0454
     28  C12       26.3500   80.3310   60.6130 C.ar  181  3ET181      0.0036
     29  C15       27.2820   81.1060   61.2850 C.ar  181  3ET181      0.0080
@<TRIPOS>BOND
     1    28    27   ar
     2    28    29   ar
     3    27    25   ar
     4    29    22   ar
     5    10     9    1
     6    25    26    1
     7    25    23   ar
     8    22    23   ar
     9    22    20    1
    10     9     8    1
    11     9    11    1
    12    21    20    2
    13     8     7    1
    14    23    24    1
    15    20    19   am
    16     7     2    1
    17    11    13    1
    18    11    12    2
    19    13    14    1
    20    14    15    1
    21    19    15    1
    22     2     3    1
    23     2     1    2
    24    15    16    1
    25     4     3    1
    26     4     5    1
    27     3     6    1
    28    16    17   ar
    29    16    18   ar
