@<TRIPOS>MOLECULE
3i0d_UDP_A_1.pdb
 25 26 0 0 0
SMALL
GASTEIGER

@<TRIPOS>ATOM
      1  N1       -16.2070  -23.0180    7.6760 N.am    1  UDP1       -0.1766
      2  C2       -17.4030  -23.7280    7.9630 C.1     1  UDP1        0.2845
      3  N3       -17.8980  -23.6880    9.2920 N.2     1  UDP1       -0.2452
      4  C4       -17.1760  -22.9850   10.3080 C.1     1  UDP1        0.2182
      5  C5       -15.9970  -22.2910    9.9930 C.2     1  UDP1        0.1242
      6  C6       -15.5230  -22.3010    8.6830 C.2     1  UDP1        0.0929
      7  O2       -18.0160  -24.3240    7.0540 O.2     1  UDP1       -0.1918
      8  O4       -17.6010  -22.9830   11.4690 O.2     1  UDP1       -0.2085
      9  C1'      -15.7220  -23.0530    6.2730 C.3     1  UDP1        0.2401
     10  C2'      -16.5790  -22.1530    5.3910 C.3     1  UDP1        0.2319
     11  O2'      -16.5020  -22.6020    4.0560 O.3     1  UDP1       -0.2157
     12  C3'      -15.7720  -20.9130    5.4220 C.3     1  UDP1        0.2158
     13  C4'      -14.3070  -21.3670    5.4730 C.3     1  UDP1        0.1799
     14  O4'      -14.3220  -22.5970    6.2140 O.3     1  UDP1       -0.3320
     15  O3'      -15.9900  -20.1690    4.1840 O.3     1  UDP1       -0.2175
     16  C5'      -13.2860  -20.3600    6.1740 C.3     1  UDP1        0.1813
     17  O5'      -13.9040  -19.5150    7.2320 O.3     1  UDP1       -0.3111
     18  PA       -14.3720  -17.8710    7.0370 P.3     1  UDP1        0.2231
     19  O1A      -15.0160  -18.0900    8.5290 O.3     1  UDP1       -0.4370
     20  O2A      -15.2000  -18.1800    5.7770 O.2     1  UDP1       -0.5169
     21  O3A      -12.7080  -17.8250    6.9710 O.3     1  UDP1       -0.2261
     22  PB       -11.9130  -16.5880    6.1280 P.3     1  UDP1        0.5373
     23  O1B      -10.7420  -17.3530    7.1100 O.3     1  UDP1       -0.1143
     24  O2B      -12.9590  -15.5610    6.5960 O.3     1  UDP1       -0.1143
     25  O3B      -12.2980  -17.5530    4.8520 O.2     1  UDP1       -0.2221
@<TRIPOS>BOND
     1    11    10    1
     2    15    12    1
     3    25    22    2
     4    10    12    1
     5    10     9    1
     6    12    13    1
     7    13    16    1
     8    13    14    1
     9    20    18    2
    10    22    24    1
    11    22    21    1
    12    22    23    1
    13    16    17    1
    14    14     9    1
    15     9     1    1
    16    21    18    1
    17    18    17    1
    18    18    19    1
    19     7     2    2
    20     1     2   am
    21     1     6    1
    22     2     3    2
    23     6     5    2
    24     3     4    2
    25     5     4    1
    26     4     8    2
