@<TRIPOS>MOLECULE
3i0e_FUC_A_1.pdb
 10 10 0 0 0
SMALL
GASTEIGER

@<TRIPOS>ATOM
      1  C1        11.0770   12.4000    5.9350 C.3   356  FUC356      0.1776
      2  C2        12.3880   12.0740    6.6920 C.3   356  FUC356      0.2141
      3  C3        12.6140   10.5480    6.6800 C.3   356  FUC356      0.2172
      4  C4        12.5390    9.9630    5.2590 C.3   356  FUC356      0.2116
      5  C5        11.1760   10.3170    4.6250 C.3   356  FUC356      0.1483
      6  C6        10.9400    9.8910    3.1720 C.3   356  FUC356      0.0349
      7  O2        12.2760   12.5300    8.0420 O.3   356  FUC356     -0.2176
      8  O3        13.8660   10.1900    7.2910 O.3   356  FUC356     -0.2175
      9  O4        13.6210   10.4810    4.4580 O.3   356  FUC356     -0.2177
     10  O5        11.0520   11.7590    4.6330 O.3   356  FUC356     -0.3508
@<TRIPOS>BOND
     1     6     5    1
     2     9     4    1
     3     5    10    1
     4     5     4    1
     5    10     1    1
     6     4     3    1
     7     1     2    1
     8     3     2    1
     9     3     8    1
    10     2     7    1
