@<TRIPOS>MOLECULE
3i0f_UDP_A_1.pdb
 25 26 0 0 0
SMALL
GASTEIGER

@<TRIPOS>ATOM
      1  N1        16.3370   23.0990    7.7410 N.am  357  UDP357     -0.1766
      2  C2        17.5370   23.7620    8.0480 C.1   357  UDP357      0.2845
      3  N3        18.0660   23.6530    9.3570 N.2   357  UDP357     -0.2452
      4  C4        17.3840   22.9050   10.3400 C.1   357  UDP357      0.2182
      5  C5        16.1870   22.2490   10.0200 C.2   357  UDP357      0.1242
      6  C6        15.6670   22.3410    8.7270 C.2   357  UDP357      0.0929
      7  O2        18.1110   24.4150    7.1740 O.2   357  UDP357     -0.1918
      8  O4        17.8540   22.8210   11.4820 O.2   357  UDP357     -0.2085
      9  C1'       15.7850   23.2210    6.3590 C.3   357  UDP357      0.2401
     10  C2'       16.6440   22.3830    5.3900 C.3   357  UDP357      0.2319
     11  O2'       16.5730   22.8950    4.0500 O.3   357  UDP357     -0.2157
     12  C3'       15.9080   21.0670    5.4380 C.3   357  UDP357      0.2158
     13  C4'       14.4430   21.5210    5.4390 C.3   357  UDP357      0.1799
     14  O4'       14.4250   22.6700    6.3470 O.3   357  UDP357     -0.3320
     15  O3'       16.1830   20.3200    4.2650 O.3   357  UDP357     -0.2175
     16  C5'       13.4590   20.4350    5.9450 C.3   357  UDP357      0.1813
     17  O5'       13.9360   19.7760    7.1570 O.3   357  UDP357     -0.3111
     18  PA        14.4250   18.2100    7.1590 P.3   357  UDP357      0.2231
     19  O1A       15.0160   18.6070    8.5950 O.3   357  UDP357     -0.4370
     20  O2A       15.1510   18.3560    5.8640 O.2   357  UDP357     -0.5169
     21  O3A       12.9320   17.6160    7.1350 O.3   357  UDP357     -0.2261
     22  PB        12.5680   16.0260    6.6620 P.3   357  UDP357      0.5373
     23  O1B       11.1630   16.4590    7.2050 O.3   357  UDP357     -0.1143
     24  O2B       13.4460   15.1150    7.5610 O.3   357  UDP357     -0.1143
     25  O3B       13.0210   16.4880    5.2160 O.2   357  UDP357     -0.2221
@<TRIPOS>BOND
     1    11    10    1
     2    15    12    1
     3    25    22    2
     4    10    12    1
     5    10     9    1
     6    12    13    1
     7    13    16    1
     8    13    14    1
     9    20    18    2
    10    16    17    1
    11    14     9    1
    12     9     1    1
    13    22    21    1
    14    22    23    1
    15    22    24    1
    16    21    18    1
    17    17    18    1
    18    18    19    1
    19     7     2    2
    20     1     2   am
    21     1     6    1
    22     2     3    2
    23     6     5    2
    24     3     4    2
    25     5     4    1
    26     4     8    2
