@<TRIPOS>MOLECULE
3i0f_FUC_A_1.pdb
 10 10 0 0 0
SMALL
GASTEIGER

@<TRIPOS>ATOM
      1  C1        11.2020   12.5610    5.7190 C.3   356  FUC356      0.1776
      2  C2        12.5430   12.2050    6.4080 C.3   356  FUC356      0.2141
      3  C3        12.7490   10.6760    6.4100 C.3   356  FUC356      0.2172
      4  C4        12.6110   10.1340    4.9880 C.3   356  FUC356      0.2116
      5  C5        11.2580   10.5310    4.3460 C.3   356  FUC356      0.1483
      6  C6        11.1110   10.0800    2.8820 C.3   356  FUC356      0.0349
      7  O2        12.5340   12.6980    7.7380 O.3   356  FUC356     -0.2176
      8  O3        14.0550   10.3740    6.9530 O.3   356  FUC356     -0.2175
      9  O4        13.6840   10.6220    4.1850 O.3   356  FUC356     -0.2177
     10  O5        11.1500   11.9910    4.4110 O.3   356  FUC356     -0.3508
@<TRIPOS>BOND
     1     6     5    1
     2     9     4    1
     3     5    10    1
     4     5     4    1
     5    10     1    1
     6     4     3    1
     7     1     2    1
     8     2     3    1
     9     2     7    1
    10     3     8    1
