@<TRIPOS>MOLECULE
3i0f_U_A_1.pdb
 17 18 0 0 0
SMALL
GASTEIGER

@<TRIPOS>ATOM
      1  O5'       12.4800    7.5240  -28.2540 O.3     1  U1         -0.2176
      2  C5'       13.6230    7.9190  -27.4900 C.3     1  U1          0.2142
      3  C4'       13.2120    8.9900  -26.4800 C.3     1  U1          0.1829
      4  O4'       11.7480    9.1420  -26.4120 O.3     1  U1         -0.3318
      5  C3'       13.6760    8.5590  -25.0820 C.3     1  U1          0.2159
      6  O3'       14.1050    9.7320  -24.3850 O.3     1  U1         -0.2175
      7  C2'       12.4080    7.9910  -24.4540 C.3     1  U1          0.2319
      8  O2'       12.4040    8.1470  -23.0340 O.3     1  U1         -0.2157
      9  C1'       11.3390    8.9030  -25.0520 C.3     1  U1          0.2401
     10  N1         9.9910    8.2830  -25.0220 N.am    1  U1         -0.1766
     11  C2         8.9070    9.0760  -24.6320 C.1     1  U1          0.2845
     12  O2         9.0940   10.2510  -24.3280 O.2     1  U1         -0.1918
     13  N3         7.6150    8.5310  -24.5900 N.2     1  U1         -0.2452
     14  C4         7.4150    7.1840  -24.9400 C.1     1  U1          0.2182
     15  O4         6.2800    6.7120  -24.8960 O.2     1  U1         -0.2085
     16  C5         8.4960    6.3870  -25.3320 C.2     1  U1          0.1242
     17  C6         9.7790    6.9300  -25.3760 C.2     1  U1          0.0929
@<TRIPOS>BOND
     1     1     2    1
     2     2     3    1
     3     3     4    1
     4     3     5    1
     5     4     9    1
     6    17    16    2
     7    17    10    1
     8    16    14    1
     9     5     7    1
    10     5     6    1
    11     9    10    1
    12     9     7    1
    13    10    11   am
    14    14    15    2
    15    14    13    2
    16    11    13    2
    17    11    12    2
    18     7     8    1
