@<TRIPOS>MOLECULE
3i0g_FUC_A_1.pdb
 10 10 0 0 0
SMALL
GASTEIGER

@<TRIPOS>ATOM
      1  C1        11.1870   12.4110    5.9770 C.3   356  FUC356      0.1776
      2  C2        12.5000   12.0760    6.7080 C.3   356  FUC356      0.2141
      3  C3        12.7460   10.5520    6.6460 C.3   356  FUC356      0.2172
      4  C4        12.6460   10.0540    5.1880 C.3   356  FUC356      0.2116
      5  C5        11.2720   10.4570    4.5670 C.3   356  FUC356      0.1483
      6  C6        11.0670   10.0120    3.1050 C.3   356  FUC356      0.0349
      7  O2        12.4580   12.5310    8.0710 O.3   356  FUC356     -0.2176
      8  O3        14.0390   10.2350    7.1840 O.3   356  FUC356     -0.2175
      9  O4        13.7030   10.6070    4.3820 O.3   356  FUC356     -0.2177
     10  O5        11.1610   11.9030    4.6170 O.3   356  FUC356     -0.3508
@<TRIPOS>BOND
     1     6     5    1
     2     9     4    1
     3     5    10    1
     4     5     4    1
     5    10     1    1
     6     4     3    1
     7     1     2    1
     8     3     2    1
     9     3     8    1
    10     2     7    1
