@<TRIPOS>MOLECULE
3i0g_GAL_A_1.pdb
 12 12 0 0 0
SMALL
GASTEIGER

@<TRIPOS>ATOM
      1  C1         8.9200   17.5410    6.2330 C.3   359  GAL359      0.3024
      2  C2         7.7670   18.4540    5.7410 C.3   359  GAL359      0.2434
      3  C3         7.7710   19.7960    6.5330 C.3   359  GAL359      0.2199
      4  C4         7.7470   19.5520    8.0570 C.3   359  GAL359      0.2144
      5  C5         8.8370   18.5400    8.4650 C.3   359  GAL359      0.1836
      6  C6         8.7110   18.0610    9.9360 C.3   359  GAL359      0.2142
      7  O1        10.3180   18.0290    5.8770 O.3   359  GAL359     -0.1869
      8  O2         7.9250   18.7030    4.3280 O.3   359  GAL359     -0.2148
      9  O3         6.6430   20.6100    6.1990 O.3   359  GAL359     -0.2174
     10  O4         6.4750   19.0670    8.4530 O.3   359  GAL359     -0.2176
     11  O5         8.7860   17.3570    7.6560 O.3   359  GAL359     -0.3236
     12  O6         9.9740   17.4970   10.3200 O.3   359  GAL359     -0.2176
@<TRIPOS>BOND
     1     8     2    1
     2     2     1    1
     3     2     3    1
     4     7     1    1
     5     9     3    1
     6     1    11    1
     7     3     4    1
     8    11     5    1
     9     4    10    1
    10     4     5    1
    11     5     6    1
    12     6    12    1
