@<TRIPOS>MOLECULE
3i0g_UDP_A_1.pdb
 25 26 0 0 0
SMALL
GASTEIGER

@<TRIPOS>ATOM
      1  N1        10.0140    8.3080  -24.9660 N.am  357  UDP357     -0.1766
      2  C2         8.9100    9.0840  -24.5520 C.1   357  UDP357      0.2845
      3  N3         7.6300    8.5180  -24.5040 N.2   357  UDP357     -0.2452
      4  C4         7.4480    7.1710  -24.8420 C.1   357  UDP357      0.2182
      5  C5         8.5460    6.3840  -25.2510 C.2   357  UDP357      0.1242
      6  C6         9.8210    6.9450  -25.3160 C.2   357  UDP357      0.0929
      7  O2         9.0460   10.2650  -24.2400 O.2   357  UDP357     -0.1918
      8  O4         6.3060    6.7160  -24.7460 O.2   357  UDP357     -0.2085
      9  C1'       11.3480    8.9380  -25.0060 C.3   357  UDP357      0.2401
     10  C2'       12.4090    8.0230  -24.3840 C.3   357  UDP357      0.2319
     11  O2'       12.3890    8.1570  -22.9510 O.3   357  UDP357     -0.2157
     12  C3'       13.6910    8.5580  -25.0600 C.3   357  UDP357      0.2158
     13  C4'       13.2120    8.9130  -26.4800 C.3   357  UDP357      0.1799
     14  O4'       11.7620    9.2010  -26.3580 O.3   357  UDP357     -0.3320
     15  O3'       14.1570    9.7770  -24.4650 O.3   357  UDP357     -0.2175
     16  C5'       13.4210    7.7200  -27.4290 C.3   357  UDP357      0.1813
     17  O5'       12.5260    6.6710  -27.1000 O.3   357  UDP357     -0.3112
     18  PA        12.8430    5.1910  -27.6290 P.3   357  UDP357      0.2199
     19  O1A       11.9350    4.1950  -26.7440 O.co2 357  UDP357     -0.4371
     20  O2A       12.6330    5.0550  -29.0890 O.2   357  UDP357     -0.5170
     21  O3A       14.3740    4.8830  -27.1390 O.3   357  UDP357     -0.2588
     22  PB        15.5260    4.2820  -28.0740 P.3   357  UDP357      0.3052
     23  O1B       15.2230    2.6590  -28.1670 O.3   357  UDP357     -0.1531
     24  O2B       16.9090    4.4260  -27.2280 O.co2 357  UDP357     -0.7576
     25  O3B       15.6590    4.9090  -29.4160 O.2   357  UDP357     -0.2719
@<TRIPOS>UNITY_ATOM_ATTR
19 1
charge -1
24 1
charge -1
@<TRIPOS>BOND
     1    25    22    2
     2    20    18    2
     3    23    22    1
     4    22    24    1
     5    22    21    1
     6    18    21    1
     7    18    17    1
     8    18    19    1
     9    16    17    1
    10    16    13    1
    11    13    14    1
    12    13    12    1
    13    14     9    1
    14     6     5    2
    15     6     1    1
    16     5     4    1
    17    12    15    1
    18    12    10    1
    19     9     1    1
    20     9    10    1
    21     1     2   am
    22     4     8    2
    23     4     3    2
    24     2     3    2
    25     2     7    2
    26    10    11    1
