@<TRIPOS>MOLECULE
3i0i_UDP_X_1.pdb
 25 26 0 0 0
SMALL
GASTEIGER

@<TRIPOS>ATOM
      1  N1        16.2400  -23.1230   -7.6220 N.am    1  UDP1       -0.1766
      2  C2        17.4040  -23.8650   -7.8990 C.1     1  UDP1        0.2845
      3  N3        17.8500  -23.9530   -9.2380 N.2     1  UDP1       -0.2452
      4  C4        17.1310  -23.3230  -10.2790 C.1     1  UDP1        0.2182
      5  C5        15.9750  -22.6010   -9.9880 C.2     1  UDP1        0.1242
      6  C6        15.5270  -22.5040   -8.6710 C.2     1  UDP1        0.0929
      7  O2        18.0310  -24.4060   -6.9820 O.2     1  UDP1       -0.1918
      8  O4        17.5390  -23.4090  -11.4400 O.2     1  UDP1       -0.2085
      9  C1'       15.7830  -23.0600   -6.1980 C.3     1  UDP1        0.2401
     10  C2'       16.6670  -22.0960   -5.4420 C.3     1  UDP1        0.2319
     11  O2'       16.7120  -22.4610   -4.0740 O.3     1  UDP1       -0.2157
     12  C3'       15.8850  -20.8150   -5.5550 C.3     1  UDP1        0.2158
     13  C4'       14.4140  -21.2340   -5.4510 C.3     1  UDP1        0.1799
     14  O4'       14.3840  -22.6130   -5.9670 O.3     1  UDP1       -0.3320
     15  O3'       16.2050  -20.0420   -4.4110 O.3     1  UDP1       -0.2175
     16  C5'       13.4630  -20.2590   -6.2210 C.3     1  UDP1        0.1813
     17  O5'       14.1590  -19.6150   -7.3110 O.3     1  UDP1       -0.3111
     18  PA        13.9950  -18.0680   -7.7340 P.3     1  UDP1        0.2231
     19  O1A       15.4400  -17.3540   -7.6730 O.3     1  UDP1       -0.4370
     20  O2A       13.4370  -17.9460   -9.1110 O.2     1  UDP1       -0.5169
     21  O3A       13.0740  -17.3520   -6.6230 O.3     1  UDP1       -0.2261
     22  PB        12.9420  -15.7500   -6.5070 P.3     1  UDP1        0.5373
     23  O1B       13.7920  -15.0790   -7.7070 O.2     1  UDP1       -0.2221
     24  O2B       13.7370  -15.3080   -5.1710 O.3     1  UDP1       -0.1143
     25  O3B       11.5170  -15.3110   -6.5140 O.3     1  UDP1       -0.1143
@<TRIPOS>BOND
     1     8     4    2
     2     4     5    1
     3     4     3    2
     4     5     6    2
     5     3     2    2
     6    20    18    2
     7     6     1    1
     8     2     1   am
     9     2     7    2
    10    18    19    1
    11    18    17    1
    12    18    21    1
    13    23    22    2
    14     1     9    1
    15    17    16    1
    16    21    22    1
    17    25    22    1
    18    22    24    1
    19    16    13    1
    20     9    14    1
    21     9    10    1
    22    14    13    1
    23    12    13    1
    24    12    10    1
    25    12    15    1
    26    10    11    1
