@<TRIPOS>MOLECULE
3i0j_FUC_A_1.pdb
 10 10 0 0 0
SMALL
GASTEIGER

@<TRIPOS>ATOM
      1  C1       -11.1690   12.4720   -5.9060 C.3   356  FUC356      0.1776
      2  C2       -12.4640   12.1230   -6.6750 C.3   356  FUC356      0.2141
      3  C3       -12.6960   10.6050   -6.6700 C.3   356  FUC356      0.2172
      4  C4       -12.5810   10.0360   -5.2470 C.3   356  FUC356      0.2116
      5  C5       -11.2320   10.3950   -4.6140 C.3   356  FUC356      0.1483
      6  C6       -11.1000    9.8390   -3.1870 C.3   356  FUC356      0.0349
      7  O2       -12.3770   12.5930   -8.0290 O.3   356  FUC356     -0.2176
      8  O3       -13.9940   10.2930   -7.2110 O.3   356  FUC356     -0.2175
      9  O4       -13.6440   10.5300   -4.4200 O.3   356  FUC356     -0.2177
     10  O5       -11.1250   11.8360   -4.5840 O.3   356  FUC356     -0.3508
@<TRIPOS>BOND
     1     7     2    1
     2     8     3    1
     3     2     3    1
     4     2     1    1
     5     3     4    1
     6     1    10    1
     7     4     5    1
     8     4     9    1
     9     5    10    1
    10     5     6    1
