@<TRIPOS>MOLECULE
3i0k_FUC_A_1.pdb
 10 10 0 0 0
SMALL
GASTEIGER

@<TRIPOS>ATOM
      1  C1       -11.3180   12.4080   -5.6830 C.3   356  FUC356      0.1776
      2  C2       -12.6750   12.1580   -6.4170 C.3   356  FUC356      0.2141
      3  C3       -12.9050   10.6170   -6.5440 C.3   356  FUC356      0.2172
      4  C4       -12.8750    9.9790   -5.1590 C.3   356  FUC356      0.2116
      5  C5       -11.4780   10.2010   -4.5220 C.3   356  FUC356      0.1483
      6  C6       -11.2540    9.6300   -3.1310 C.3   356  FUC356      0.0349
      7  O2       -12.6760   12.7620   -7.7260 O.3   356  FUC356     -0.2176
      8  O3       -14.1480   10.2970   -7.1890 O.3   356  FUC356     -0.2175
      9  O4       -13.9290   10.5180   -4.3410 O.3   356  FUC356     -0.2177
     10  O5       -11.1450   11.6240   -4.4710 O.3   356  FUC356     -0.3508
@<TRIPOS>BOND
     1     7     2    1
     2     8     3    1
     3     3     2    1
     4     3     4    1
     5     2     1    1
     6     1    10    1
     7     4     5    1
     8     4     9    1
     9     5    10    1
    10     5     6    1
