@<TRIPOS>MOLECULE
3i0k_UDP_A_1.pdb
 25 26 0 0 0
SMALL
GASTEIGER

@<TRIPOS>ATOM
      1  N1       -16.2030   23.4600   -7.8170 N.am    1  UDP1       -0.1766
      2  C2       -17.3830   24.1540   -8.1110 C.1     1  UDP1        0.2845
      3  N3       -17.8000   24.2040   -9.4850 N.2     1  UDP1       -0.2452
      4  C4       -17.0310   23.5780  -10.5490 C.1     1  UDP1        0.2182
      5  C5       -15.8460   22.9050  -10.2130 C.2     1  UDP1        0.1242
      6  C6       -15.4520   22.8430   -8.8700 C.2     1  UDP1        0.0929
      7  O2       -18.0210   24.6770   -7.1910 O.2     1  UDP1       -0.1918
      8  O4       -17.3830   23.6260  -11.7430 O.2     1  UDP1       -0.2085
      9  C1'      -15.7430   23.3950   -6.3970 C.3     1  UDP1        0.2401
     10  C2'      -16.6570   22.4580   -5.6420 C.3     1  UDP1        0.2319
     11  O2'      -16.6120   22.8070   -4.2790 O.3     1  UDP1       -0.2157
     12  C3'      -15.9400   21.1550   -5.8050 C.3     1  UDP1        0.2158
     13  C4'      -14.4470   21.5060   -5.6500 C.3     1  UDP1        0.1799
     14  O4'      -14.3500   22.8850   -6.1920 O.3     1  UDP1       -0.3320
     15  O3'      -16.3220   20.3880   -4.6860 O.3     1  UDP1       -0.2175
     16  C5'      -13.3400   20.4730   -6.1410 C.3     1  UDP1        0.1813
     17  O5'      -13.6490   19.6650   -7.3200 O.3     1  UDP1       -0.3111
     18  PA       -14.5340   18.1880   -7.4450 P.3     1  UDP1        0.2231
     19  O1A      -14.9170   19.1230   -8.7560 O.2     1  UDP1       -0.5169
     20  O2A      -15.1950   18.4390   -6.0970 O.3     1  UDP1       -0.4370
     21  O3A      -12.9830   17.4380   -7.4240 O.3     1  UDP1       -0.2261
     22  PB       -12.5920   15.9110   -6.7540 P.3     1  UDP1        0.5373
     23  O1B      -11.1820   16.2340   -7.5830 O.2     1  UDP1       -0.2221
     24  O2B      -13.7610   15.2650   -7.4910 O.3     1  UDP1       -0.1143
     25  O3B      -12.8070   16.7340   -5.3340 O.3     1  UDP1       -0.1143
@<TRIPOS>BOND
     1     8     4    2
     2     4     5    1
     3     4     3    2
     4     5     6    2
     5     3     2    2
     6     6     1    1
     7    19    18    2
     8     2     1   am
     9     2     7    2
    10     1     9    1
    11    23    22    2
    12    24    22    1
    13    18    21    1
    14    18    17    1
    15    18    20    1
    16    21    22    1
    17    17    16    1
    18    22    25    1
    19     9    14    1
    20     9    10    1
    21    14    13    1
    22    16    13    1
    23    12    13    1
    24    12    10    1
    25    12    15    1
    26    10    11    1
