@<TRIPOS>MOLECULE
3i0l_FUC_A_1.pdb
 10 10 0 0 0
SMALL
GASTEIGER

@<TRIPOS>ATOM
      1  C1        15.0360  -12.3590    5.9490 C.3   356  FUC356      0.1776
      2  C2        13.7220  -12.0240    6.6780 C.3   356  FUC356      0.2141
      3  C3        13.4760  -10.5000    6.6140 C.3   356  FUC356      0.2172
      4  C4        13.5780  -10.0030    5.1560 C.3   356  FUC356      0.2116
      5  C5        14.9530  -10.4070    4.5370 C.3   356  FUC356      0.1483
      6  C6        15.1590   -9.9630    3.0750 C.3   356  FUC356      0.0349
      7  O2        13.7630  -12.4780    8.0410 O.3   356  FUC356     -0.2176
      8  O3        12.1830  -10.1830    7.1510 O.3   356  FUC356     -0.2175
      9  O4        12.5220  -10.5570    4.3490 O.3   356  FUC356     -0.2177
     10  O5        15.0640  -11.8530    4.5880 O.3   356  FUC356     -0.3508
@<TRIPOS>BOND
     1     6     5    1
     2     9     4    1
     3     5    10    1
     4     5     4    1
     5    10     1    1
     6     4     3    1
     7     1     2    1
     8     3     2    1
     9     3     8    1
    10     2     7    1
