@<TRIPOS>MOLECULE
3i0l_UDP_A_1.pdb
 25 26 0 0 0
SMALL
GASTEIGER

@<TRIPOS>ATOM
      1  N1        16.2430   -8.2820  -24.9970 N.am  357  UDP357     -0.1766
      2  C2        17.3470   -9.0580  -24.5810 C.1   357  UDP357      0.2845
      3  N3        18.6270   -8.4920  -24.5320 N.2   357  UDP357     -0.2452
      4  C4        18.8090   -7.1450  -24.8710 C.1   357  UDP357      0.2182
      5  C5        17.7110   -6.3580  -25.2820 C.2   357  UDP357      0.1242
      6  C6        16.4360   -6.9200  -25.3470 C.2   357  UDP357      0.0929
      7  O2        17.2110  -10.2390  -24.2680 O.2   357  UDP357     -0.1918
      8  O4        19.9500   -6.6900  -24.7740 O.2   357  UDP357     -0.2085
      9  C1'       14.9090   -8.9130  -25.0370 C.3   357  UDP357      0.2401
     10  C2'       13.8470   -7.9970  -24.4170 C.3   357  UDP357      0.2319
     11  O2'       13.8660   -8.1300  -22.9840 O.3   357  UDP357     -0.2157
     12  C3'       12.5660   -8.5330  -25.0940 C.3   357  UDP357      0.2158
     13  C4'       13.0470   -8.8890  -26.5140 C.3   357  UDP357      0.1799
     14  O4'       14.4970   -9.1770  -26.3900 O.3   357  UDP357     -0.3320
     15  O3'       12.1000   -9.7520  -24.4990 O.3   357  UDP357     -0.2175
     16  C5'       12.8390   -7.6970  -27.4640 C.3   357  UDP357      0.1813
     17  O5'       13.7330   -6.6480  -27.1350 O.3   357  UDP357     -0.3111
     18  PA        13.4160   -5.1680  -27.6650 P.3   357  UDP357      0.2231
     19  O1A       14.3230   -4.1710  -26.7800 O.3   357  UDP357     -0.4370
     20  O2A       13.6280   -5.0330  -29.1250 O.2   357  UDP357     -0.5169
     21  O3A       11.8850   -4.8600  -27.1770 O.3   357  UDP357     -0.2261
     22  PB        10.7340   -4.2600  -28.1140 P.3   357  UDP357      0.5373
     23  O1B       11.0370   -2.6370  -28.2080 O.3   357  UDP357     -0.1143
     24  O2B        9.3500   -4.4040  -27.2690 O.3   357  UDP357     -0.1143
     25  O3B       10.6020   -4.8880  -29.4560 O.2   357  UDP357     -0.2221
@<TRIPOS>BOND
     1    25    22    2
     2    20    18    2
     3    23    22    1
     4    22    24    1
     5    22    21    1
     6    18    21    1
     7    18    17    1
     8    18    19    1
     9    16    17    1
    10    16    13    1
    11    13    14    1
    12    13    12    1
    13    14     9    1
    14     6     5    2
    15     6     1    1
    16     5     4    1
    17    12    15    1
    18    12    10    1
    19     9     1    1
    20     9    10    1
    21     1     2   am
    22     4     8    2
    23     4     3    2
    24     2     3    2
    25     2     7    2
    26    10    11    1
