@<TRIPOS>MOLECULE
3i0l_GAL_A_1.pdb
 12 12 0 0 0
SMALL
GASTEIGER

@<TRIPOS>ATOM
      1  C1        17.3040  -17.4890    6.2110 C.3   359  GAL359      0.3024
      2  C2        18.4580  -18.4020    5.7220 C.3   359  GAL359      0.2434
      3  C3        18.4530  -19.7430    6.5150 C.3   359  GAL359      0.2199
      4  C4        18.4750  -19.4980    8.0380 C.3   359  GAL359      0.2144
      5  C5        17.3850  -18.4860    8.4440 C.3   359  GAL359      0.1836
      6  C6        17.5090  -18.0060    9.9150 C.3   359  GAL359      0.2142
      7  O1        15.9060  -17.9770    5.8540 O.3   359  GAL359     -0.1869
      8  O2        18.3010  -18.6520    4.3090 O.3   359  GAL359     -0.2148
      9  O3        19.5820  -20.5570    6.1830 O.3   359  GAL359     -0.2174
     10  O4        19.7470  -19.0120    8.4350 O.3   359  GAL359     -0.2176
     11  O5        17.4360  -17.3040    7.6340 O.3   359  GAL359     -0.3236
     12  O6        16.2450  -17.4420   10.2970 O.3   359  GAL359     -0.2176
@<TRIPOS>BOND
     1     8     2    1
     2     2     1    1
     3     2     3    1
     4     7     1    1
     5     9     3    1
     6     1    11    1
     7     3     4    1
     8    11     5    1
     9     4    10    1
    10     4     5    1
    11     5     6    1
    12     6    12    1
