@<TRIPOS>MOLECULE
3i0o_SMI_A_1.pdb
 24 26 0 0 0
SMALL
GASTEIGER

@<TRIPOS>ATOM
      1  O1        34.5610   -6.9110   15.7310 O.3   340  SMI340     -0.3289
      2  C2        34.7050   -5.8120   14.7930 C.3   340  SMI340      0.1258
      3  C2M       34.1330   -6.2410   13.4470 C.3   340  SMI340      0.0324
      4  C3        36.2210   -5.4130   14.6520 C.3   340  SMI340      0.1267
      5  C4        36.6760   -5.0340   16.0390 C.3   340  SMI340      0.4067
      6  C5        36.5440   -6.3170   16.8330 C.3   340  SMI340      0.3487
      7  O5        37.0090   -6.0070   18.1500 O.3   340  SMI340     -0.1815
      8  C6        35.0810   -6.5960   17.0540 C.3   340  SMI340      0.2995
      9  O1B       37.3060   -7.4050   16.3250 O.3   340  SMI340     -0.3214
     10  O2B       34.8290   -7.8520   17.7130 O.3   340  SMI340     -0.3239
     11  C7        37.1400   -8.5190   17.1680 C.3   340  SMI340      0.1661
     12  C8        38.0130   -9.6720   16.6400 C.3   340  SMI340      0.1342
     13  N8        39.4060   -9.1730   16.6350 N.3   340  SMI340     -0.2127
     14  C8M       40.3300  -10.1940   16.1300 C.3   340  SMI340      0.1076
     15  C9        37.8470  -10.8860   17.6110 C.3   340  SMI340      0.1887
     16  O9        38.2680  -10.5000   18.9310 O.3   340  SMI340     -0.2200
     17  C10       36.3490  -11.3240   17.6610 C.3   340  SMI340      0.1374
     18  N10       36.1450  -12.3640   18.5340 N.3   340  SMI340     -0.2126
     19  C1M       36.8950  -13.5770   18.1810 C.3   340  SMI340      0.1076
     20  C11       35.5010  -10.1400   18.1210 C.3   340  SMI340      0.1998
     21  O11       34.1510  -10.5420   18.1350 O.3   340  SMI340     -0.2189
     22  C12       35.6580   -8.9400   17.2040 C.3   340  SMI340      0.1781
     23  O4A       38.0340   -4.5870   16.1250 O.2   340  SMI340     -0.2697
     24  O4B       35.8470   -3.9560   16.2310 O.2   340  SMI340     -0.2697
@<TRIPOS>BOND
     1     3     2    1
     2     4     2    1
     3     4     5    1
     4     2     1    1
     5     1     8    1
     6     5    23    1
     7     5    24    1
     8     5     6    1
     9    14    13    1
    10     9     6    1
    11     9    11    1
    12    13    12    1
    13    12    11    1
    14    12    15    1
    15     6     8    1
    16     6     7    1
    17     8    10    1
    18    11    22    1
    19    22    10    1
    20    22    20    1
    21    15    17    1
    22    15    16    1
    23    17    20    1
    24    17    18    1
    25    20    21    1
    26    19    18    1
