@<TRIPOS>MOLECULE
3i0o_ADP_A_1.pdb
 27 29 0 0 0
SMALL
GASTEIGER

@<TRIPOS>ATOM
      1  PB        31.3620  -15.0220   14.2310 P.3   500  ADP500      0.5373
      2  O1B       31.8610  -15.4490   15.5580 O.3   500  ADP500     -0.1143
      3  O2B       32.0050  -15.5480   13.0050 O.2   500  ADP500     -0.2221
      4  O3B       31.4000  -13.4050   14.1690 O.3   500  ADP500     -0.1143
      5  PA        28.5910  -14.6070   14.9300 P.3   500  ADP500      0.2231
      6  O1A       27.8630  -15.6180   15.7260 O.3   500  ADP500     -0.4370
      7  O2A       29.1130  -13.3990   15.6050 O.2   500  ADP500     -0.5169
      8  O3A       29.7860  -15.3710   14.1390 O.3   500  ADP500     -0.2261
      9  O5'       27.6410  -14.1330   13.7110 O.3   500  ADP500     -0.3111
     10  C5'       28.1340  -13.2260   12.7010 C.3   500  ADP500      0.1813
     11  C4'       26.9950  -12.7000   11.8150 C.3   500  ADP500      0.1821
     12  O4'       26.2340  -13.7800   11.2490 O.3   500  ADP500     -0.3135
     13  C3'       25.9430  -11.8520   12.5500 C.3   500  ADP500      0.2184
     14  O3'       26.2850  -10.4610   12.4400 O.3   500  ADP500     -0.2174
     15  C2'       24.6850  -12.1270   11.7120 C.3   500  ADP500      0.2570
     16  O2'       24.6700  -11.2450   10.5710 O.3   500  ADP500     -0.2130
     17  C1'       24.8100  -13.5800   11.2120 C.3   500  ADP500      0.3186
     18  N9        23.9860  -14.5690   11.9820 N.pl3 500  ADP500     -0.1439
     19  C8        24.3200  -15.2710   13.1200 C.3   500  ADP500      0.3377
     20  N7        23.3810  -16.0580   13.5580 N.2   500  ADP500     -0.2095
     21  C5        22.3410  -15.8760   12.6550 C.2   500  ADP500      0.2526
     22  C6        21.0130  -16.4370   12.5480 C.2   500  ADP500      0.4393
     23  N6        20.5320  -17.3240   13.4130 N.pl3 500  ADP500      0.2180
     24  N1        20.2250  -16.0270   11.5060 N.2   500  ADP500      0.0021
     25  C2        20.7100  -15.1270   10.6270 C.3   500  ADP500      0.5254
     26  N3        21.9200  -14.5410   10.6250 N.2   500  ADP500     -0.0055
     27  C4        22.6950  -14.9680   11.6820 C.2   500  ADP500      0.3518
@<TRIPOS>BOND
     1    16    15    1
     2    26    25    1
     3    26    27    2
     4    25    24    1
     5    17    12    1
     6    17    15    1
     7    17    18    1
     8    12    11    1
     9    24    22    2
    10    27    18    1
    11    27    21    1
    12    15    13    1
    13    11    13    1
    14    11    10    1
    15    18    19    1
    16    14    13    1
    17    22    21    1
    18    22    23    1
    19    21    20    2
    20    10     9    1
    21     3     1    2
    22    19    20    1
    23     9     5    1
    24     8     1    1
    25     8     5    1
    26     4     1    1
    27     1     2    1
    28     5     7    2
    29     5     6    1
