@<TRIPOS>MOLECULE
3i0p_NAD_A_1.pdb
 44 48 0 0 0
SMALL
GASTEIGER

@<TRIPOS>ATOM
      1  PA        25.6570   26.1990   28.6970 P.3   401  NAD401      0.2189
      2  O1A       26.6130   25.3640   27.8800 O.2   401  NAD401     -0.5170
      3  O2A       24.3720   25.5800   29.1440 O.3   401  NAD401     -0.4371
      4  O5B       26.4860   26.7040   29.9790 O.3   401  NAD401     -0.3112
      5  C5B       27.7760   27.3170   29.8050 C.3   401  NAD401      0.1813
      6  C4B       28.2570   28.0410   31.0700 C.3   401  NAD401      0.1821
      7  O4B       27.9200   27.3190   32.2620 O.3   401  NAD401     -0.3135
      8  C3B       29.7640   28.1890   31.1140 C.3   401  NAD401      0.2184
      9  O3B       30.0800   29.3940   31.8310 O.3   401  NAD401     -0.2174
     10  C2B       30.2230   26.9790   31.8980 C.3   401  NAD401      0.2570
     11  O2B       31.4750   27.2130   32.5430 O.3   401  NAD401     -0.2130
     12  C1B       29.1060   26.8370   32.9120 C.3   401  NAD401      0.3186
     13  N9A       28.8830   25.4490   33.4120 N.pl3 401  NAD401     -0.1439
     14  C8A       28.5060   24.3800   32.6950 C.3   401  NAD401      0.3377
     15  N7A       28.3850   23.3270   33.5320 N.2   401  NAD401     -0.2095
     16  C5A       28.6800   23.7480   34.7840 C.2   401  NAD401      0.2526
     17  C6A       28.7280   23.1360   36.0410 C.2   401  NAD401      0.4393
     18  N6A       28.4430   21.8200   36.1920 N.pl3 401  NAD401      0.2180
     19  N1A       29.0780   23.8640   37.1290 N.2   401  NAD401      0.0021
     20  C2A       29.3730   25.1660   37.0150 C.3   401  NAD401      0.5254
     21  N3A       29.3290   25.7780   35.8240 N.2   401  NAD401     -0.0055
     22  C4A       28.9890   25.0910   34.6970 C.2   401  NAD401      0.3518
     23  O3        25.3530   27.6180   27.9620 O.3   401  NAD401     -0.2703
     24  PN        24.5020   27.8980   26.6020 P.3   401  NAD401      0.2189
     25  O1N       23.2850   28.7000   26.9960 O.3   401  NAD401     -0.4371
     26  O2N       24.3560   26.6290   25.7990 O.2   401  NAD401     -0.5170
     27  O5D       25.4590   28.8660   25.7570 O.3   401  NAD401     -0.3112
     28  C5D       26.5480   28.3420   24.9910 C.3   401  NAD401      0.1813
     29  C4D       27.1950   29.4480   24.1610 C.3   401  NAD401      0.1799
     30  O4D       26.2650   29.9670   23.2060 O.3   401  NAD401     -0.3327
     31  C3D       27.6360   30.6290   25.0160 C.3   401  NAD401      0.2158
     32  O3D       29.0300   30.8570   24.7660 O.3   401  NAD401     -0.2175
     33  C2D       26.7530   31.7990   24.5820 C.3   401  NAD401      0.2309
     34  O2D       27.3920   33.0880   24.5600 O.3   401  NAD401     -0.2158
     35  C1D       26.3790   31.3940   23.1740 C.3   401  NAD401      0.2263
     36  N1N       25.1550   32.0510   22.7210 N.pl3 401  NAD401     -0.2787
     37  C2N       25.2690   33.1000   21.8760 C.3   401  NAD401      0.1244
     38  C3N       24.1260   33.7590   21.4150 C.2   401  NAD401      0.0544
     39  C7N       24.2320   34.9290   20.4770 C.2   401  NAD401      0.2818
     40  O7N       23.2050   35.4750   20.0940 O.2   401  NAD401     -0.2670
     41  N7N       25.4340   35.3440   20.0840 N.am  401  NAD401     -0.0839
     42  C4N       22.8690   33.3180   21.8380 C.2   401  NAD401      0.0033
     43  C5N       22.7810   32.2360   22.7200 C.2   401  NAD401      0.0157
     44  C6N       23.9520   31.6120   23.1480 C.2   401  NAD401      0.0633
@<TRIPOS>BOND
     1    41    39   am
     2    40    39    2
     3    39    38    1
     4    38    42    2
     5    38    37    1
     6    42    43    1
     7    37    36    1
     8    43    44    2
     9    36    44    1
    10    36    35    1
    11    35    30    1
    12    35    33    1
    13    30    29    1
    14    29    28    1
    15    29    31    1
    16    34    33    1
    17    33    31    1
    18    32    31    1
    19    28    27    1
    20    27    24    1
    21    26    24    2
    22    24    25    1
    23    24    23    1
    24     2     1    2
    25    23     1    1
    26     1     3    1
    27     1     4    1
    28     5     4    1
    29     5     6    1
    30     6     8    1
    31     6     7    1
    32     8     9    1
    33     8    10    1
    34    10    11    1
    35    10    12    1
    36     7    12    1
    37    14    13    1
    38    14    15    1
    39    12    13    1
    40    13    22    1
    41    15    16    2
    42    22    16    1
    43    22    21    2
    44    16    17    1
    45    21    20    1
    46    17    18    1
    47    17    19    2
    48    20    19    1
