@<TRIPOS>MOLECULE
3i0q_AMP_A_1.pdb
 23 25 0 0 0
SMALL
GASTEIGER

@<TRIPOS>ATOM
      1  P         28.3790  -14.9460   14.4450 P.3   400  AMP400      0.5327
      2  O1P       29.8240  -14.6560   14.6680 O.3   400  AMP400     -0.1145
      3  O2P       28.2440  -15.9090   13.1530 O.2   400  AMP400     -0.2224
      4  O3P       27.5580  -15.5450   15.5400 O.3   400  AMP400     -0.1145
      5  O5'       27.6630  -13.5910   13.9330 O.3   400  AMP400     -0.2675
      6  C5'       28.2670  -12.7650   12.9250 C.3   400  AMP400      0.1860
      7  C4'       27.2330  -12.3080   11.8880 C.3   400  AMP400      0.1823
      8  O4'       26.4950  -13.4090   11.3590 O.3   400  AMP400     -0.3135
      9  C3'       26.1560  -11.3710   12.4240 C.3   400  AMP400      0.2184
     10  O3'       26.5800  -10.0130   12.2110 O.3   400  AMP400     -0.2174
     11  C2'       24.9650  -11.6920   11.4950 C.3   400  AMP400      0.2570
     12  O2'       25.0680  -10.8740   10.3160 O.3   400  AMP400     -0.2130
     13  C1'       25.1110  -13.1630   11.0800 C.3   400  AMP400      0.3186
     14  N9        24.1730  -14.1330   11.7250 N.pl3 400  AMP400     -0.1439
     15  C8        24.4030  -14.9340   12.8220 C.3   400  AMP400      0.3377
     16  N7        23.3960  -15.6880   13.1590 N.2   400  AMP400     -0.2095
     17  C5        22.4160  -15.3790   12.2310 C.2   400  AMP400      0.2526
     18  C6        21.0670  -15.8470   12.0340 C.2   400  AMP400      0.4393
     19  N6        20.4960  -16.7620   12.8200 N.pl3 400  AMP400      0.2180
     20  N1        20.3510  -15.3210   10.9940 N.2   400  AMP400      0.0021
     21  C2        20.9300  -14.3960   10.1990 C.3   400  AMP400      0.5254
     22  N3        22.1760  -13.8850   10.2840 N.2   400  AMP400     -0.0055
     23  C4        22.8730  -14.4270   11.3390 C.2   400  AMP400      0.3518
@<TRIPOS>BOND
     1    21    22    1
     2    21    20    1
     3    22    23    2
     4    12    11    1
     5    20    18    2
     6    13     8    1
     7    13    11    1
     8    13    14    1
     9    23    14    1
    10    23    17    1
    11     8     7    1
    12    11     9    1
    13    14    15    1
    14     7     9    1
    15     7     6    1
    16    18    17    1
    17    18    19    1
    18    10     9    1
    19    17    16    2
    20    15    16    1
    21     6     5    1
    22     3     1    2
    23     5     1    1
    24     1     2    1
    25     1     4    1
