@<TRIPOS>MOLECULE
3i0r_RT3_A_1.pdb
 29 31 0 0 0
SMALL
GASTEIGER

@<TRIPOS>ATOM
      1  O30        8.2530    4.7270   14.0780 O.2   601  RT3601     -0.1503
      2  S23        6.8620    4.9410   13.7840 S.O2  601  RT3601      0.0935
      3  O26        6.0660    4.2760   14.7800 O.2   601  RT3601     -0.1503
      4  N29        6.5360    4.3900   12.3100 N.3   601  RT3601      0.0392
      5  C19        6.6060    6.5250   13.8310 C.ar  601  RT3601      0.1260
      6  C20        6.4210    7.1350   15.0630 C.ar  601  RT3601      0.0327
      7  C21        6.2070    8.4990   15.1400 C.ar  601  RT3601      0.0743
      8 CL22        5.9710    9.2100   16.7590 Cl    601  RT3601     -0.0808
      9  C18        6.5820    7.2970   12.6630 C.ar  601  RT3601      0.0214
     10  C17        6.3690    8.6770   12.6920 C.ar  601  RT3601      0.0188
     11  C16        6.1780    9.3280   13.9050 C.ar  601  RT3601      0.0840
     12  N15        5.9700   10.6740   13.9580 N.am  601  RT3601     -0.1776
     13  C14        6.5300   11.5190   13.0840 C.2   601  RT3601      0.2571
     14  O29        5.9060   12.1290   12.2340 O.2   601  RT3601     -0.2720
     15  C13        8.0190   11.7290   13.1630 C.3   601  RT3601      0.1534
     16  S12        8.3700   13.1350   14.1740 S.3   601  RT3601     -0.0469
     17  C11        9.3080   12.6630   15.4720 C.2   601  RT3601      0.2804
     18  O28        8.8640   11.8220   16.2320 O.2   601  RT3601     -0.2624
     19  N2        10.4570   13.2820   15.6930 N.am  601  RT3601     -0.2505
     20  C1        11.4260   13.6800   14.6800 C.3   601  RT3601      0.0993
     21  C3        10.6450   13.6160   17.0300 C.ar  601  RT3601      0.0505
     22  C7         9.6870   13.2440   17.9570 C.ar  601  RT3601      0.0143
     23  C4        11.8230   14.3560   17.4820 C.ar  601  RT3601     -0.0087
     24  C5        12.8510   14.7580   16.4590 C.3   601  RT3601      0.0294
     25  C6        12.7920   13.7110   15.3570 C.3   601  RT3601      0.0266
     26  C10       11.9320   14.6460   18.8350 C.ar  601  RT3601     -0.0073
     27  C9        10.9430   14.2490   19.7280 C.ar  601  RT3601     -0.0221
     28  C27       11.0550   14.5570   21.1910 C.3   601  RT3601      0.0310
     29  C8         9.8360   13.5550   19.2960 C.ar  601  RT3601     -0.0030
@<TRIPOS>BOND
     1    14    13    2
     2     4     2    1
     3     9    10   ar
     4     9     5   ar
     5    10    11   ar
     6    13    15    1
     7    13    12   am
     8    15    16    1
     9     2     5    1
    10     2     1    2
    11     2     3    2
    12     5     6   ar
    13    11    12    1
    14    11     7   ar
    15    16    17    1
    16    20    25    1
    17    20    19    1
    18     6     7   ar
    19     7     8    1
    20    25    24    1
    21    17    19   am
    22    17    18    2
    23    19    21    1
    24    24    23    1
    25    21    23   ar
    26    21    22   ar
    27    23    26   ar
    28    22    29   ar
    29    26    27   ar
    30    29    27   ar
    31    27    28    1
