@<TRIPOS>MOLECULE
3i0s_RT7_A_1.pdb
 30 32 0 0 0
SMALL
GASTEIGER

@<TRIPOS>ATOM
      1 CL30       10.5160   15.3650   21.2760 Cl    601  RT7601     -0.0822
      2  C4        10.6470   14.6320   19.6740 C.ar  601  RT7601      0.0583
      3  C3         9.8870   13.5080   19.4560 C.ar  601  RT7601      0.0240
      4  C2         9.9180   12.8690   18.2410 C.ar  601  RT7601      0.0719
      5 CL29        8.8740   11.4100   18.0630 Cl    601  RT7601     -0.0809
      6  C5        11.4710   15.2130   18.7330 C.ar  601  RT7601      0.0084
      7  C6        11.5770   14.6570   17.4780 C.ar  601  RT7601     -0.0067
      8  C10       12.4950   15.3050   16.4620 C.3   601  RT7601      0.0294
      9  C9        12.5600   14.4690   15.1860 C.3   601  RT7601      0.0266
     10  C8        12.2690   12.9810   15.3960 C.3   601  RT7601      0.0994
     11  N7        10.9150   12.9020   15.9160 N.am  601  RT7601     -0.2497
     12  C1        10.7830   13.4430   17.1810 C.ar  601  RT7601      0.0611
     13  C11        9.8720   12.3890   15.2450 C.2   601  RT7601      0.2804
     14  O22       10.0720   11.4910   14.4430 O.2   601  RT7601     -0.2624
     15  S12        8.2880   12.9400   15.4580 S.3   601  RT7601     -0.0469
     16  C13        7.1410   12.7580   14.1170 C.3   601  RT7601      0.1534
     17  C14        6.7370   11.3340   13.8050 C.2   601  RT7601      0.2571
     18  O23        6.8040   10.9770   12.6450 O.2   601  RT7601     -0.2720
     19  N15        6.3000   10.5430   14.7950 N.am  601  RT7601     -0.1776
     20  C16        6.3580    9.1860   14.7200 C.ar  601  RT7601      0.0840
     21  C17        6.1570    8.3410   15.9200 C.ar  601  RT7601      0.0743
     22 CL24        5.8130    9.1040   17.5030 Cl    601  RT7601     -0.0808
     23  C18        6.2290    6.9550   15.8080 C.ar  601  RT7601      0.0327
     24  C19        6.4840    6.3500   14.5720 C.ar  601  RT7601      0.1260
     25  S25        6.5950    4.7310   14.4300 S.O2  601  RT7601      0.0935
     26  N28        8.0940    4.3270   14.8360 N.3   601  RT7601      0.0392
     27  O27        5.6300    4.1020   15.2970 O.2   601  RT7601     -0.1503
     28  O26        6.3960    4.3210   13.0560 O.2   601  RT7601     -0.1503
     29  C20        6.6740    7.1640   13.4520 C.ar  601  RT7601      0.0214
     30  C21        6.6120    8.5490   13.5180 C.ar  601  RT7601      0.0188
@<TRIPOS>BOND
     1    18    17    2
     2    28    25    2
     3    29    30   ar
     4    29    24   ar
     5    30    20   ar
     6    17    16    1
     7    17    19   am
     8    16    15    1
     9    25    24    1
    10    25    26    1
    11    25    27    2
    12    14    13    2
    13    24    23   ar
    14    20    19    1
    15    20    21   ar
    16     9    10    1
    17     9     8    1
    18    13    15    1
    19    13    11   am
    20    10    11    1
    21    23    21   ar
    22    11    12    1
    23    21    22    1
    24     8     7    1
    25    12     7   ar
    26    12     4   ar
    27     7     6   ar
    28     5     4    1
    29     4     3   ar
    30     6     2   ar
    31     3     2   ar
    32     2     1    1
