@<TRIPOS>MOLECULE
3i12_ADP_A_1.pdb
 27 29 0 0 0
SMALL
GASTEIGER

@<TRIPOS>ATOM
      1  PB        49.1220   17.8130   49.9030 P.3   365  ADP365      0.5373
      2  O1B       47.9400   17.8320   50.9060 O.3   365  ADP365     -0.1143
      3  O2B       48.9740   17.0680   48.6100 O.2   365  ADP365     -0.2221
      4  O3B       49.7460   19.2040   49.7600 O.3   365  ADP365     -0.1143
      5  PA        50.9080   17.0830   52.0370 P.3   365  ADP365      0.2231
      6  O1A       49.7910   17.6620   52.8950 O.3   365  ADP365     -0.4370
      7  O2A       52.3520   17.5670   52.0660 O.2   365  ADP365     -0.5169
      8  O3A       50.4230   17.0420   50.4910 O.3   365  ADP365     -0.2261
      9  O5'       50.9580   15.4700   52.3020 O.3   365  ADP365     -0.3111
     10  C5'       49.7800   14.6540   52.1440 C.3   365  ADP365      0.1813
     11  C4'       49.7060   13.7520   53.3950 C.3   365  ADP365      0.1821
     12  O4'       50.8830   12.9560   53.4930 O.3   365  ADP365     -0.3135
     13  C3'       49.6910   14.5420   54.7160 C.3   365  ADP365      0.2184
     14  O3'       48.3960   14.9890   55.0230 O.3   365  ADP365     -0.2174
     15  C2'       50.2800   13.5690   55.7370 C.3   365  ADP365      0.2570
     16  O2'       49.3780   12.5700   56.2820 O.3   365  ADP365     -0.2130
     17  C1'       51.3090   12.8550   54.8780 C.3   365  ADP365      0.3186
     18  N9        52.6350   13.4870   55.0830 N.pl3 365  ADP365     -0.1439
     19  C8        53.2620   14.3080   54.2160 C.3   365  ADP365      0.3377
     20  N7        54.4800   14.6730   54.6820 N.2   365  ADP365     -0.2095
     21  C5        54.6530   14.0430   55.8590 C.2   365  ADP365      0.2526
     22  C6        55.6930   14.0020   56.8610 C.2   365  ADP365      0.4393
     23  N6        56.8100   14.7530   56.6650 N.pl3 365  ADP365      0.2180
     24  N1        55.4690   13.2240   57.9820 N.2   365  ADP365      0.0021
     25  C2        54.3400   12.5290   58.1490 C.3   365  ADP365      0.5254
     26  N3        53.3480   12.5440   57.2540 N.2   365  ADP365     -0.0055
     27  C4        53.4270   13.2830   56.1390 C.2   365  ADP365      0.3518
@<TRIPOS>BOND
     1     3     1    2
     2     4     1    1
     3     1     8    1
     4     1     2    1
     5     8     5    1
     6     5     7    2
     7     5     9    1
     8     5     6    1
     9    10     9    1
    10    10    11    1
    11    11    12    1
    12    11    13    1
    13    12    17    1
    14    19    20    1
    15    19    18    1
    16    20    21    2
    17    13    14    1
    18    13    15    1
    19    17    18    1
    20    17    15    1
    21    18    27    1
    22    15    16    1
    23    21    27    1
    24    21    22    1
    25    27    26    2
    26    23    22    1
    27    22    24    2
    28    26    25    1
    29    24    25    1
