@<TRIPOS>MOLECULE
3i16_PLP_B_1.pdb
 14 14 0 0 0
SMALL
GASTEIGER

@<TRIPOS>ATOM
      1  N1        26.0660   46.5180   52.1880 N.ar  427  PLP427     -0.2452
      2  C2        25.3000   45.8660   51.2690 C.ar  427  PLP427      0.0981
      3  C2A       25.9550   45.1020   50.1600 C.3   427  PLP427      0.0555
      4  C3        23.9130   45.9230   51.3960 C.ar  427  PLP427      0.2089
      5  O3        23.1400   45.2560   50.4780 O.3   427  PLP427     -0.2853
      6  C4        23.3190   46.6470   52.4400 C.ar  427  PLP427      0.0430
      7  C5        24.1160   47.3120   53.3660 C.ar  427  PLP427      0.0302
      8  C6        25.4860   47.2210   53.2280 C.ar  427  PLP427      0.0968
      9  C5A       23.5640   48.0900   54.5460 C.3   427  PLP427      0.1818
     10  O4P       22.4860   48.8930   54.1940 O.3   427  PLP427     -0.2653
     11  P         21.5130   49.6820   55.2450 P.3   427  PLP427      0.5329
     12  O1P       20.9700   48.8200   56.3750 O.3   427  PLP427     -0.1145
     13  O2P       20.3470   50.0710   54.3680 O.2   427  PLP427     -0.2224
     14  O3P       22.2790   50.8590   55.8290 O.3   427  PLP427     -0.1145
@<TRIPOS>BOND
     1     3     2    1
     2     5     4    1
     3     2     4   ar
     4     2     1   ar
     5     4     6   ar
     6     1     8   ar
     7     6     7   ar
     8     8     7   ar
     9     7     9    1
    10    10     9    1
    11    10    11    1
    12    13    11    2
    13    11    14    1
    14    11    12    1
