@<TRIPOS>MOLECULE
3i1f_GCP_A_1.pdb
 32 34 0 0 0
SMALL
GASTEIGER

@<TRIPOS>ATOM
      1  PG        31.8300  -48.1290   -6.8010 P.3   416  GCP416      0.1295
      2  O1G       31.5390  -46.7320   -6.3080 O.3   416  GCP416     -0.3567
      3  O2G       30.9580  -48.4220   -7.9980 O.2   416  GCP416     -0.4595
      4  O3G       31.5310  -49.1210   -5.7040 O.3   416  GCP416     -0.3567
      5  C3B       33.3860  -48.2100   -7.2240 C.3   416  GCP416      0.1768
      6  PB        34.5820  -48.0730   -6.1480 P.3   416  GCP416      0.3815
      7  O1B       35.7420  -47.3270   -6.7630 O.2   416  GCP416     -0.2547
      8  O2B       34.1010  -47.3800   -4.8940 O.3   416  GCP416     -0.1391
      9  O3A       35.0430  -49.5830   -5.8250 O.3   416  GCP416     -0.2483
     10  PA        35.5830  -50.5600   -6.9880 P.3   416  GCP416      0.2209
     11  O1A       35.6950  -51.9640   -6.4420 O.3   416  GCP416     -0.4371
     12  O2A       34.6730  -50.5250   -8.1920 O.2   416  GCP416     -0.5170
     13  O5'       37.0530  -50.0120   -7.3650 O.3   416  GCP416     -0.3111
     14  C5'       38.2090  -50.7580   -7.0460 C.3   416  GCP416      0.1813
     15  C4'       39.0840  -49.9880   -6.0660 C.3   416  GCP416      0.1799
     16  O4'       39.6430  -50.8720   -5.1170 O.3   416  GCP416     -0.3326
     17  C3'       40.2690  -49.3200   -6.7460 C.3   416  GCP416      0.2158
     18  O3'       40.0010  -47.9570   -6.9840 O.3   416  GCP416     -0.2175
     19  C2'       41.4210  -49.4780   -5.7680 C.3   416  GCP416      0.2310
     20  O2'       41.8020  -48.2230   -5.2510 O.3   416  GCP416     -0.2158
     21  C1'       40.8860  -50.3740   -4.6570 C.3   416  GCP416      0.2293
     22  N9        41.8110  -51.4890   -4.3630 N.pl3 416  GCP416     -0.2354
     23  C8        41.4510  -52.7910   -4.1350 C.3   416  GCP416      0.2246
     24  N7        42.5650  -53.5140   -3.8820 N.2   416  GCP416     -0.2322
     25  C5        43.6330  -52.6920   -3.9250 C.2   416  GCP416      0.2182
     26  C6        44.9890  -52.9190   -3.7350 C.1   416  GCP416      0.2372
     27  O6        45.4010  -54.0480   -3.4750 O.2   416  GCP416     -0.2069
     28  N1        45.8720  -51.8670   -3.8410 N.2   416  GCP416     -0.2485
     29  C2        45.4040  -50.6030   -4.1340 C.1   416  GCP416      0.2531
     30  N2        46.2570  -49.5890   -4.2370 N.pl3 416  GCP416     -0.0226
     31  N3        44.0530  -50.3870   -4.3200 N.2   416  GCP416     -0.3074
     32  C4        43.1760  -51.4140   -4.2180 C.2   416  GCP416      0.2300
@<TRIPOS>BOND
     1    12    10    2
     2     3     1    2
     3    13    14    1
     4    13    10    1
     5     5     1    1
     6     5     6    1
     7    14    15    1
     8    10    11    1
     9    10     9    1
    10    18    17    1
    11     1     2    1
    12     1     4    1
    13     7     6    2
    14    17    15    1
    15    17    19    1
    16     6     9    1
    17     6     8    1
    18    15    16    1
    19    19    20    1
    20    19    21    1
    21    16    21    1
    22    21    22    1
    23    22    32    1
    24    22    23    1
    25    31    32    2
    26    31    29    2
    27    30    29    1
    28    32    25    1
    29    23    24    1
    30    29    28    2
    31    25    24    2
    32    25    26    1
    33    28    26    2
    34    26    27    2
