@<TRIPOS>MOLECULE
3i1l_SIO_A_1.pdb
 28 28 0 0 0
SMALL
GASTEIGER

@<TRIPOS>ATOM
      1  OA4      -10.4810  -13.2150   18.8230 O.2   1001  SIO1001    -0.2501
      2  CA4      -11.6170  -13.1140   19.2550 C.2   1001  SIO1001     0.3175
      3  CM4      -12.1360  -13.9920   20.3620 C.3   1001  SIO1001     0.1212
      4  O4       -12.4840  -12.0910   18.6870 O.3   1001  SIO1001    -0.4502
      5  C4       -12.9340  -12.3280   17.3560 C.3   1001  SIO1001     0.1965
      6  C5       -13.1100  -10.9600   16.6740 C.3   1001  SIO1001     0.1650
      7  N5       -11.7700  -10.5420   16.2410 N.am  1001  SIO1001    -0.2009
      8  C10      -10.9950   -9.6240   16.8430 C.2   1001  SIO1001     0.2420
      9  O10      -11.3030   -8.9960   17.8470 O.2   1001  SIO1001    -0.2733
     10  C11       -9.6660   -9.3910   16.1900 C.3   1001  SIO1001     0.0964
     11  C3       -14.2050  -13.1760   17.4470 C.3   1001  SIO1001     0.1135
     12  C2       -15.1890  -13.0610   16.2720 C.3   1001  SIO1001     0.2874
     13  O2       -16.4950  -13.2990   16.7770 O.3   1001  SIO1001    -0.3232
     14  CM2      -17.5170  -12.8920   15.8800 C.3   1001  SIO1001     0.1772
     15  C1       -14.8680  -14.1370   15.2480 C.2   1001  SIO1001     0.4152
     16  O1       -14.4180  -15.2200   15.6780 O.co2 1001  SIO1001    -0.2402
     17  O3       -15.0720  -13.9380   14.0250 O.co2 1001  SIO1001    -0.2402
     18  O6       -15.1900  -11.7420   15.6970 O.3   1001  SIO1001    -0.3238
     19  C6       -13.9390  -11.1190   15.3970 C.3   1001  SIO1001     0.1744
     20  C7       -14.2970   -9.8210   14.6720 C.3   1001  SIO1001     0.2147
     21  O7       -14.6840   -8.7780   15.5760 O.3   1001  SIO1001    -0.2176
     22  C8       -15.4620  -10.0490   13.7130 C.3   1001  SIO1001     0.2280
     23  O8       -15.2400  -11.2510   12.9690 O.3   1001  SIO1001    -0.2163
     24  C9       -15.6020   -8.8870   12.7420 C.3   1001  SIO1001     0.2438
     25  O9       -14.3540   -8.6710   12.0850 O.3   1001  SIO1001    -0.4456
     26  CA9      -14.2150   -7.5880   11.1300 C.2   1001  SIO1001     0.3176
     27  OA9      -15.0730   -6.7170   11.1130 O.2   1001  SIO1001    -0.2501
     28  CM9      -13.0340   -7.5820   10.2050 C.3   1001  SIO1001     0.1212
@<TRIPOS>BOND
     1    28    26    1
     2    27    26    2
     3    26    25    1
     4    25    24    1
     5    24    22    1
     6    23    22    1
     7    22    20    1
     8    17    15   ar
     9    20    19    1
    10    20    21    1
    11    15    16   ar
    12    15    12    1
    13    19    18    1
    14    19     6    1
    15    18    12    1
    16    14    13    1
    17    10     8    1
    18     7     6    1
    19     7     8   am
    20    12    13    1
    21    12    11    1
    22     6     5    1
    23     8     9    2
    24     5    11    1
    25     5     4    1
    26     4     2    1
    27     1     2    2
    28     2     3    1
