@<TRIPOS>MOLECULE
3i1u_BTW_A_1.pdb
 14 14 0 0 0
SMALL
GASTEIGER

@<TRIPOS>ATOM
      1  C1         7.6460    2.9530    5.9200 C.3   402  BTW402      0.0385
      2  O1         7.3890    5.3840    3.5870 O.co2 402  BTW402     -0.2456
      3  C2         6.6000    3.9550    5.3540 C.3   402  BTW402      0.1184
      4  C3         5.1380    3.4670    5.4910 C.3   402  BTW402      0.0690
      5  C4         4.5430    3.7840    6.8220 C.3   402  BTW402      0.0131
      6  C5         9.0560    3.5670    5.9050 C.ar  402  BTW402     -0.0216
      7  C6         9.8210    3.5470    4.7340 C.ar  402  BTW402     -0.0043
      8  C7        11.0920    4.1260    4.6920 C.ar  402  BTW402     -0.0003
      9  C8        11.5900    4.7460    5.8410 C.ar  402  BTW402     -0.0000
     10  C10        9.5700    4.1830    7.0480 C.ar  402  BTW402     -0.0043
     11  C9        10.8340    4.7690    7.0170 C.ar  402  BTW402     -0.0003
     12  C11        6.9310    4.2520    3.8700 C.2   402  BTW402      0.3655
     13  O2         6.7260    3.3270    3.0460 O.co2 402  BTW402     -0.2456
     14  S1         4.0300    4.3830    4.3900 S.3   402  BTW402     -0.0825
@<TRIPOS>BOND
     1    13    12   ar
     2     2    12   ar
     3    12     3    1
     4    14     4    1
     5     8     7   ar
     6     8     9   ar
     7     7     6   ar
     8     3     4    1
     9     3     1    1
    10     4     5    1
    11     9    11   ar
    12     6     1    1
    13     6    10   ar
    14    11    10   ar
