@<TRIPOS>MOLECULE
3i1y_33N_A_1.pdb
 24 26 0 0 0
SMALL
GASTEIGER

@<TRIPOS>ATOM
      1  C4        74.7820   -9.0290   67.9830 C.3   999  33N999      0.0322
      2  C5        76.2290  -11.6530   68.5250 C.ar  999  33N999     -0.0040
      3  C6        73.9780  -12.4210   68.8370 C.ar  999  33N999     -0.0040
      4  C7        74.9010  -10.1690   71.5910 C.ar  999  33N999     -0.0040
      5  C8        75.8460   -8.3240   70.3830 C.ar  999  33N999     -0.0040
      6  C10       76.6310  -12.9470   68.2430 C.ar  999  33N999     -0.0003
      7  C13       76.4250   -7.8590   71.5520 C.ar  999  33N999     -0.0003
      8  C15       75.7060  -13.9770   68.2580 C.ar  999  33N999     -0.0000
      9  C17       75.1510   -8.7410   64.5260 C.2   999  33N999      0.2663
     10  C20       75.8790   -7.8160   62.3210 C.ar  999  33N999      0.0077
     11  C21       74.2510   -6.5970   63.6110 C.ar  999  33N999      0.1034
     12  C22       75.7870   -6.8220   61.3640 C.ar  999  33N999      0.0208
     13  C24       74.9290   -5.7580   61.5770 C.ar  999  33N999      0.0989
     14  O19       75.9010   -9.6880   64.4060 O.2   999  33N999     -0.2683
     15  C18       75.0940   -7.7010   63.4750 C.ar  999  33N999      0.0742
     16  N23       74.1970   -5.6750   62.6720 N.ar  999  33N999     -0.2422
     17  N14       74.3740   -8.6440   65.6180 N.am  999  33N999     -0.2016
     18  C9        74.4340   -9.6820   66.6460 C.3   999  33N999      0.1161
     19  C1        74.4450   -9.9840   69.1310 C.3   999  33N999      0.0463
     20  C3        75.0790   -9.4780   70.4040 C.ar  999  33N999     -0.0184
     21  C16       76.2470   -8.5480   72.7390 C.ar  999  33N999     -0.0000
     22  C12       75.4820   -9.7030   72.7580 C.ar  999  33N999     -0.0003
     23  C2        74.9020  -11.3890   68.8200 C.ar  999  33N999     -0.0184
     24  C11       74.3800  -13.7140   68.5570 C.ar  999  33N999     -0.0003
@<TRIPOS>BOND
     1    12    13   ar
     2    12    10   ar
     3    13    16   ar
     4    10    15   ar
     5    16    11   ar
     6    15    11   ar
     7    15     9    1
     8    14     9    2
     9     9    17   am
    10    17    18    1
    11    18     1    1
    12     1    19    1
    13     6     8   ar
    14     6     2   ar
    15     8    24   ar
    16     2    23   ar
    17    24     3   ar
    18    23     3   ar
    19    23    19    1
    20    19    20    1
    21     5    20   ar
    22     5     7   ar
    23    20     4   ar
    24     7    21   ar
    25     4    22   ar
    26    21    22   ar
