@<TRIPOS>MOLECULE
3i26_MAN_D_1.pdb
 11 11 0 0 0
SMALL
GASTEIGER

@<TRIPOS>ATOM
      1  C1        28.6410   63.3890  -27.4060 C.3   5162  MAN5162     0.1777
      2  C2        27.5850   62.5300  -26.7100 C.3   5162  MAN5162     0.2141
      3  C3        28.2420   61.5520  -25.7260 C.3   5162  MAN5162     0.2173
      4  C4        29.2490   60.6900  -26.5030 C.3   5162  MAN5162     0.2142
      5  C5        30.2100   61.5940  -27.2910 C.3   5162  MAN5162     0.1810
      6  C6        31.1610   60.7760  -28.1550 C.3   5162  MAN5162     0.2141
      7  O2        26.8720   61.8100  -27.6980 O.3   5162  MAN5162    -0.2176
      8  O3        27.2670   60.7860  -25.0420 O.3   5162  MAN5162    -0.2175
      9  O4        29.9750   59.8380  -25.6380 O.3   5162  MAN5162    -0.2176
     10  O5        29.5070   62.5210  -28.1190 O.3   5162  MAN5162    -0.3481
     11  O6        30.8140   60.9720  -29.5060 O.3   5162  MAN5162    -0.2176
@<TRIPOS>BOND
     1    11     6    1
     2     6     5    1
     3    10     1    1
     4    10     5    1
     5     7     2    1
     6     1     2    1
     7     5     4    1
     8     2     3    1
     9     4     3    1
    10     4     9    1
    11     3     8    1
