@<TRIPOS>MOLECULE
3i27_MAN_D_1.pdb
 11 11 0 0 0
SMALL
GASTEIGER

@<TRIPOS>ATOM
      1  C1        28.1780   63.2230  -27.0800 C.3   5162  MAN5162     0.1777
      2  C2        27.2140   62.3950  -26.2370 C.3   5162  MAN5162     0.2141
      3  C3        27.9600   61.3190  -25.4390 C.3   5162  MAN5162     0.2173
      4  C4        28.8990   60.5080  -26.3430 C.3   5162  MAN5162     0.2142
      5  C5        29.7670   61.4720  -27.1610 C.3   5162  MAN5162     0.1810
      6  C6        30.7130   60.7600  -28.1220 C.3   5162  MAN5162     0.2141
      7  O2        26.2180   61.8030  -27.0490 O.3   5162  MAN5162    -0.2176
      8  O3        26.9930   60.5220  -24.8110 O.3   5162  MAN5162    -0.2175
      9  O4        29.7140   59.6410  -25.5730 O.3   5162  MAN5162    -0.2176
     10  O5        28.9260   62.3490  -27.9030 O.3   5162  MAN5162    -0.3481
     11  O6        30.0460   60.6150  -29.3600 O.3   5162  MAN5162    -0.2176
@<TRIPOS>BOND
     1    11     6    1
     2     6     5    1
     3    10     5    1
     4    10     1    1
     5     5     4    1
     6     1     2    1
     7     7     2    1
     8     4     9    1
     9     4     3    1
    10     2     3    1
    11     3     8    1
