@<TRIPOS>MOLECULE
3i27_SID_D_1.pdb
 25 25 0 0 0
SMALL
GASTEIGER

@<TRIPOS>ATOM
      1  C1        40.3910   26.6710  -31.8800 C.2   1001  SID1001     0.4152
      2  O1        39.2320   26.5630  -32.3530 O.co2 1001  SID1001    -0.2402
      3  C2        40.6280   27.7460  -30.7980 C.3   1001  SID1001     0.2863
      4  O2        40.5180   27.1370  -29.4710 O.3   1001  SID1001    -0.3233
      5  C3        42.0360   28.3830  -30.9710 C.3   1001  SID1001     0.1028
      6  O3        41.3720   25.9660  -32.2070 O.co2 1001  SID1001    -0.2402
      7  C4        42.1110   29.3770  -32.1710 C.3   1001  SID1001     0.1797
      8  O4        43.3460   30.1110  -32.1560 O.3   1001  SID1001    -0.2210
      9  C5        40.9340   30.3630  -32.2030 C.3   1001  SID1001     0.1554
     10  N5        40.9160   31.1430  -33.4610 N.am  1001  SID1001    -0.2020
     11  C6        39.6690   29.5360  -32.1190 C.3   1001  SID1001     0.1732
     12  O6        39.6070   28.7840  -30.8830 O.3   1001  SID1001    -0.3239
     13  C7        38.4440   30.4240  -32.1080 C.3   1001  SID1001     0.2117
     14  O7        38.4960   31.3780  -31.0260 O.3   1001  SID1001    -0.2177
     15  C8        37.2510   29.5200  -31.9190 C.3   1001  SID1001     0.1958
     16  O8        37.0130   28.7940  -33.1420 O.3   1001  SID1001    -0.2194
     17  C9        36.0690   30.3890  -31.5330 C.3   1001  SID1001     0.1005
     18  S9        34.5290   29.6980  -32.1930 S.3   1001  SID1001    -0.0744
     19  C10       41.0370   32.4720  -33.5120 C.2   1001  SID1001     0.2420
     20  O10       41.1630   33.1930  -32.5280 O.2   1001  SID1001    -0.2733
     21  C11       41.0020   33.0750  -34.9140 C.3   1001  SID1001     0.0964
     22  CA9       34.1020   30.8800  -33.3960 C.2   1001  SID1001     0.1993
     23  OA9       33.3800   31.8200  -33.0760 O.2   1001  SID1001    -0.2845
     24  CM2       39.2620   26.4790  -29.2140 C.3   1001  SID1001     0.1772
     25  CM9       34.5880   30.6970  -34.8380 C.3   1001  SID1001     0.0845
@<TRIPOS>BOND
     1    21    19    1
     2    25    22    1
     3    19    10   am
     4    19    20    2
     5    10     9    1
     6    22    23    2
     7    22    18    1
     8    16    15    1
     9     2     1   ar
    10     6     1   ar
    11     9     7    1
    12     9    11    1
    13    18    17    1
    14     7     8    1
    15     7     5    1
    16    11    13    1
    17    11    12    1
    18    13    15    1
    19    13    14    1
    20    15    17    1
    21     1     3    1
    22     5     3    1
    23    12     3    1
    24     3     4    1
    25     4    24    1
