@<TRIPOS>MOLECULE
3i28_34N_A_1.pdb
 31 33 0 0 0
SMALL
GASTEIGER

@<TRIPOS>ATOM
      1  C5        76.5500   -8.5710   72.6420 C.ar  999  34N999      0.1057
      2  C6        76.6930   -7.8800   71.4490 C.ar  999  34N999      0.0180
      3  C7        76.0050   -8.3230   70.3220 C.ar  999  34N999     -0.0026
      4  C8        75.1870   -9.4530   70.3820 C.ar  999  34N999     -0.0183
      5  C10       75.7320   -9.6900   72.7060 C.ar  999  34N999      0.0180
      6  C13       73.9330   -9.7370   66.7590 C.3   999  34N999      0.1161
      7  C15       74.9540   -8.8750   64.7200 C.2   999  34N999      0.2648
      8  C17       75.0330   -7.8340   63.6640 C.ar  999  34N999      0.0551
      9  C20       75.1940   -5.8980   61.6940 C.ar  999  34N999      0.0685
     10  C21       76.1900   -6.8620   61.8210 C.ar  999  34N999      0.0104
     11  C22       76.1140   -7.8180   62.7930 C.ar  999  34N999      0.0053
     12  C26       75.7920  -12.0230   68.7710 C.ar  999  34N999     -0.0017
     13  C28       74.7470  -14.1770   68.7210 C.ar  999  34N999      0.1401
     14  F29       74.8200  -15.5240   68.5920 F     999  34N999     -0.2042
     15  C27       75.8900  -13.3950   68.6360 C.ar  999  34N999      0.0293
     16  C30       73.5130  -13.5840   68.9290 C.ar  999  34N999      0.0293
     17  C31       73.4130  -12.2210   69.0740 C.ar  999  34N999     -0.0017
     18  C25       74.5550  -11.4390   68.9890 C.ar  999  34N999     -0.0182
     19  C11       74.4000   -9.9500   69.1710 C.3   999  34N999      0.0463
     20  C9        75.0480  -10.1260   71.5820 C.ar  999  34N999     -0.0026
     21  S2        77.4080   -8.0520   74.0940 S.O2  999  34N999      0.0104
     22  O3        76.5430   -8.3950   75.1650 O.2   999  34N999     -0.1686
     23  O4        77.7600   -6.6840   73.8950 O.2   999  34N999     -0.1686
     24  C1        78.8760   -9.1170   74.0300 C.3   999  34N999      0.1816
     25  C12       74.7890   -9.1980   67.9040 C.3   999  34N999      0.0322
     26  N14       74.0290   -8.7360   65.6970 N.am  999  34N999     -0.2016
     27  O16       75.7140   -9.8260   64.7080 O.2   999  34N999     -0.2684
     28  C23       75.3380   -4.9110   60.6680 C.1   999  34N999      0.1004
     29  N24       75.4190   -4.1130   59.8640 N.1   999  34N999     -0.1908
     30  C19       74.0990   -5.8850   62.5700 C.ar  999  34N999      0.0104
     31  C18       74.0230   -6.8640   63.5540 C.ar  999  34N999      0.0053
@<TRIPOS>BOND
     1    29    28    3
     2    28     9    1
     3     9    10   ar
     4     9    30   ar
     5    10    11   ar
     6    30    31   ar
     7    11     8   ar
     8    31     8   ar
     9     8     7    1
    10    27     7    2
    11     7    26   am
    12    26     6    1
    13     6    25    1
    14    25    19    1
    15    14    13    1
    16    15    13   ar
    17    15    12   ar
    18    13    16   ar
    19    12    18   ar
    20    16    17   ar
    21    18    17   ar
    22    18    19    1
    23    19     4    1
    24     3     4   ar
    25     3     2   ar
    26     4    20   ar
    27     2     1   ar
    28    20     5   ar
    29     1     5   ar
    30     1    21    1
    31    23    21    2
    32    24    21    1
    33    21    22    2
