@<TRIPOS>MOLECULE
3i2f_DBC_A_1.pdb
 10 10 0 0 0
SMALL
GASTEIGER

@<TRIPOS>ATOM
      1  O4         5.8960   66.7690   -3.8990 O.3   592  DBC592     -0.1561
      2  C5         7.2120   66.9550   -3.2870 C.3   592  DBC592      0.4023
      3  O3         7.9380   68.2380   -3.5930 O.3   592  DBC592     -0.3044
      4  O2         7.1110   66.9330   -1.8320 O.3   592  DBC592     -0.3044
      5  C2         8.0200   67.8680   -1.2710 C.3   592  DBC592      0.1599
      6  C1         7.4200   68.4630    0.0000 C.3   592  DBC592      0.1008
      7  S1         7.1440   67.2490    1.3250 S.3   592  DBC592     -0.0794
      8  C3         8.2430   68.8920   -2.3680 C.3   592  DBC592      0.1599
      9  C4         9.6720   69.3940   -2.4100 C.3   592  DBC592      0.1008
     10  S4        10.0040   70.4650   -0.9940 S.3   592  DBC592     -0.0794
@<TRIPOS>BOND
     1     1     2    1
     2     3     2    1
     3     3     8    1
     4     2     4    1
     5     9     8    1
     6     9    10    1
     7     8     5    1
     8     4     5    1
     9     5     6    1
    10     6     7    1
