@<TRIPOS>MOLECULE
3i2g_DBC_A_1.pdb
 10 10 0 0 0
SMALL
GASTEIGER

@<TRIPOS>ATOM
      1  O4         5.8250   66.6400   -4.0670 O.3   592  DBC592     -0.1561
      2  C5         7.1530   66.8370   -3.4790 C.3   592  DBC592      0.4023
      3  O3         7.8710   68.1450   -3.7230 O.3   592  DBC592     -0.3044
      4  O2         7.0590   66.7340   -1.9790 O.3   592  DBC592     -0.3044
      5  C2         7.9740   67.6450   -1.3950 C.3   592  DBC592      0.1599
      6  C1         7.3540   68.2250   -0.1340 C.3   592  DBC592      0.1008
      7  S1         7.1730   67.0180    1.2030 S.3   592  DBC592     -0.0794
      8  C3         8.2330   68.7040   -2.4590 C.3   592  DBC592      0.1599
      9  C4         9.6830   69.1560   -2.4580 C.3   592  DBC592      0.1008
     10  S4        10.0170   70.2190   -1.0260 S.3   592  DBC592     -0.0794
@<TRIPOS>BOND
     1     1     2    1
     2     3     2    1
     3     3     8    1
     4     2     4    1
     5     8     9    1
     6     8     5    1
     7     9    10    1
     8     4     5    1
     9     5     6    1
    10     6     7    1
