@<TRIPOS>MOLECULE
3i2h_DBC_A_1.pdb
 10 10 0 0 0
SMALL
GASTEIGER

@<TRIPOS>ATOM
      1  O4         5.8420   66.3770   -4.0830 O.3   592  DBC592     -0.1561
      2  C5         7.1120   66.5280   -3.4080 C.3   592  DBC592      0.4023
      3  O3         7.8300   67.7890   -3.7240 O.3   592  DBC592     -0.3044
      4  O2         6.9260   66.5490   -1.9900 O.3   592  DBC592     -0.3044
      5  C2         7.8190   67.4830   -1.4030 C.3   592  DBC592      0.1599
      6  C1         7.1400   68.0400   -0.1540 C.3   592  DBC592      0.1008
      7  S1         7.0410   66.7950    1.1620 S.3   592  DBC592     -0.0794
      8  C3         8.0780   68.4970   -2.5120 C.3   592  DBC592      0.1599
      9  C4         9.5160   68.9940   -2.5750 C.3   592  DBC592      0.1008
     10  S4        10.0090   70.0020   -1.1570 S.3   592  DBC592     -0.0794
@<TRIPOS>BOND
     1     1     2    1
     2     3     2    1
     3     3     8    1
     4     2     4    1
     5     9     8    1
     6     9    10    1
     7     8     5    1
     8     4     5    1
     9     5     6    1
    10     6     7    1
