@<TRIPOS>MOLECULE
3i2i_DBC_A_1.pdb
 10 10 0 0 0
SMALL
GASTEIGER

@<TRIPOS>ATOM
      1  O4         6.0720   66.7900   -3.8640 O.3   591  DBC591     -0.1561
      2  C5         7.3890   66.9670   -3.2620 C.3   591  DBC591      0.4023
      3  O3         8.1350   68.2740   -3.4890 O.3   591  DBC591     -0.3044
      4  O2         7.3110   66.8320   -1.7550 O.3   591  DBC591     -0.3044
      5  C2         8.1230   67.8290   -1.1510 C.3   591  DBC591      0.1599
      6  C1         7.3590   68.3280    0.0820 C.3   591  DBC591      0.1008
      7  S1         7.3500   67.0840    1.4210 S.3   591  DBC591     -0.0794
      8  C3         8.3880   68.8850   -2.2250 C.3   591  DBC591      0.1599
      9  C4         9.8290   69.3780   -2.2550 C.3   591  DBC591      0.1008
     10  S4        10.2530   70.3890   -0.8030 S.3   591  DBC591     -0.0794
@<TRIPOS>BOND
     1     1     2    1
     2     3     2    1
     3     3     8    1
     4     2     4    1
     5     9     8    1
     6     9    10    1
     7     8     5    1
     8     4     5    1
     9     5     6    1
    10     6     7    1
