@<TRIPOS>MOLECULE
3i2k_DBC_A_1.pdb
 10 10 0 0 0
SMALL
GASTEIGER

@<TRIPOS>ATOM
      1  O4         5.9940   66.3940   -4.0650 O.3   591  DBC591     -0.1561
      2  C5         7.2710   66.5290   -3.3910 C.3   591  DBC591      0.4023
      3  O3         7.9850   67.7760   -3.6980 O.3   591  DBC591     -0.3044
      4  O2         7.0810   66.5150   -1.9450 O.3   591  DBC591     -0.3044
      5  C2         7.9660   67.4550   -1.3640 C.3   591  DBC591      0.1599
      6  C1         7.3300   68.0270   -0.0990 C.3   591  DBC591      0.1008
      7  S1         7.1670   66.7860    1.2090 S.3   591  DBC591     -0.0794
      8  C3         8.2370   68.4650   -2.4740 C.3   591  DBC591      0.1599
      9  C4         9.6600   69.0150   -2.5200 C.3   591  DBC591      0.1008
     10  S4        10.1140   70.0460   -1.0910 S.3   591  DBC591     -0.0794
@<TRIPOS>BOND
     1     1     2    1
     2     3     2    1
     3     3     8    1
     4     2     4    1
     5     9     8    1
     6     9    10    1
     7     8     5    1
     8     4     5    1
     9     5     6    1
    10     6     7    1
