@<TRIPOS>MOLECULE
3i2o_AKG_A_1.pdb
 10 9 0 0 0
SMALL
GASTEIGER

@<TRIPOS>ATOM
      1  C1        36.4860   16.6540   -3.9120 C.2   400  AKG400      0.4219
      2  O1        35.6630   15.7510   -3.9720 O.co2 400  AKG400     -0.2373
      3  O2        36.1100   17.9210   -4.1230 O.co2 400  AKG400     -0.2373
      4  C2        37.9360   16.3480   -3.7930 C.2   400  AKG400      0.2526
      5  O5        38.7440   17.1980   -4.0950 O.2   400  AKG400     -0.2843
      6  C3        38.3890   15.0030   -3.2580 C.3   400  AKG400      0.0881
      7  C4        39.9070   14.9900   -3.0530 C.3   400  AKG400      0.1224
      8  C5        40.3560   13.6400   -2.5600 C.2   400  AKG400      0.3653
      9  O3        39.8650   12.6260   -3.0050 O.co2 400  AKG400     -0.2456
     10  O4        41.3740   13.5550   -1.7060 O.co2 400  AKG400     -0.2456
@<TRIPOS>BOND
     1     3     1   ar
     2     5     4    2
     3     2     1   ar
     4     1     4    1
     5     4     6    1
     6     6     7    1
     7     7     8    1
     8     9     8   ar
     9     8    10   ar
