@<TRIPOS>MOLECULE
3i33_ADP_A_1.pdb
 27 29 0 0 0
SMALL
GASTEIGER

@<TRIPOS>ATOM
      1  PB       -13.6160   -2.6110    4.9160 P.3   388  ADP388      0.5373
      2  O1B      -14.2820   -1.6310    4.0170 O.2   388  ADP388     -0.2221
      3  O2B      -12.4300   -3.2580    4.2740 O.3   388  ADP388     -0.1143
      4  O3B      -13.4500   -2.0670    6.3240 O.3   388  ADP388     -0.1143
      5  PA       -16.0380   -3.9810    5.7900 P.3   388  ADP388      0.2231
      6  O1A      -16.7340   -2.6680    5.8870 O.3   388  ADP388     -0.4370
      7  O2A      -16.7670   -5.1190    5.1630 O.2   388  ADP388     -0.5169
      8  O3A      -14.6350   -3.8570    5.0440 O.3   388  ADP388     -0.2261
      9  O5'      -15.6730   -4.3480    7.2980 O.3   388  ADP388     -0.3111
     10  C5'      -15.0250   -5.5690    7.6340 C.3   388  ADP388      0.1813
     11  C4'      -15.2060   -5.7980    9.1280 C.3   388  ADP388      0.1821
     12  O4'      -16.6050   -5.9740    9.4110 O.3   388  ADP388     -0.3135
     13  C3'      -14.4500   -7.0010    9.6550 C.3   388  ADP388      0.2184
     14  O3'      -13.7770   -6.6280   10.8470 O.3   388  ADP388     -0.2174
     15  C2'      -15.5810   -7.9590    9.9530 C.3   388  ADP388      0.2570
     16  O2'      -15.3040   -8.9210   10.9710 O.3   388  ADP388     -0.2130
     17  C1'      -16.6710   -6.9890   10.3660 C.3   388  ADP388      0.3186
     18  N9       -18.0080   -7.5780   10.3400 N.pl3 388  ADP388     -0.1439
     19  C8       -18.6260   -8.0980    9.2640 C.3   388  ADP388      0.3377
     20  N7       -19.8340   -8.5820    9.5990 N.2   388  ADP388     -0.2095
     21  C5       -19.9800   -8.3760   10.9140 C.2   388  ADP388      0.2526
     22  C6       -21.0100   -8.6830   11.8880 C.2   388  ADP388      0.4393
     23  N6       -22.1330   -9.3090   11.4910 N.pl3 388  ADP388      0.2180
     24  N1       -20.7890   -8.2960   13.1460 N.2   388  ADP388      0.0021
     25  C2       -19.6610   -7.6790   13.5300 C.3   388  ADP388      0.5254
     26  N3       -18.6540   -7.3730   12.6970 N.2   388  ADP388     -0.0055
     27  C4       -18.7910   -7.7130   11.4080 C.2   388  ADP388      0.3518
@<TRIPOS>BOND
     1     2     1    2
     2     3     1    1
     3     1     8    1
     4     1     4    1
     5     8     5    1
     6     7     5    2
     7     5     6    1
     8     5     9    1
     9     9    10    1
    10    10    11    1
    11    11    12    1
    12    11    13    1
    13    19    20    1
    14    19    18    1
    15    12    17    1
    16    20    21    2
    17    13    15    1
    18    13    14    1
    19    15    17    1
    20    15    16    1
    21    18    17    1
    22    18    27    1
    23    21    27    1
    24    21    22    1
    25    27    26    2
    26    23    22    1
    27    22    24    2
    28    26    25    1
    29    24    25    1
