@<TRIPOS>MOLECULE
3i3a_S2N_A_1.pdb
 37 36 0 0 0
SMALL
GASTEIGER

@<TRIPOS>ATOM
      1  CAA      -60.3320   17.5780    1.4360 C.2   260  S2N260      0.2013
      2  CAB      -59.8940   17.9270    2.8600 C.3   260  S2N260      0.1086
      3  CAC      -58.6790   18.8570    2.8470 C.3   260  S2N260      0.1602
      4  CAD      -59.0240   20.1380    2.0850 C.3   260  S2N260      0.0334
      5  CAE      -57.7700   20.9730    1.8200 C.3   260  S2N260      0.0026
      6  CAF      -57.9700   21.8940    0.6140 C.3   260  S2N260      0.0001
      7  CAG      -57.2090   21.3720   -0.6060 C.3   260  S2N260      0.0000
      8  CAH      -57.8440   21.8740   -1.9050 C.3   260  S2N260      0.0000
      9  CAI      -57.2770   21.1300   -3.1160 C.3   260  S2N260      0.0000
     10  CAJ      -57.7430   21.7750   -4.4230 C.3   260  S2N260      0.0000
     11  CAK      -57.6970   20.7720   -5.5760 C.3   260  S2N260      0.0000
     12  CAL      -57.8060   21.4830   -6.9270 C.3   260  S2N260      0.0000
     13  CAP      -61.4300   18.1570   -1.0100 C.3   260  S2N260      0.0883
     14  CAQ      -60.7790   19.4160   -1.5860 C.3   260  S2N260      0.1272
     15  CAS      -61.3120   20.1820   -3.8520 C.2   260  S2N260      0.2432
     16  CAT      -61.1370   19.9160   -5.3480 C.3   260  S2N260      0.1102
     17  CAU      -62.4940   19.7850   -6.0440 C.3   260  S2N260      0.1248
     18  NAR      -60.7110   19.3070   -3.0510 N.am  260  S2N260     -0.2044
     19  OAM      -59.6720   16.8010    0.7480 O.2   260  S2N260     -0.2844
     20  OAN      -58.3140   19.1840    4.1900 O.3   260  S2N260     -0.2227
     21  OAY      -61.9670   21.1430   -3.4510 O.2   260  S2N260     -0.2733
     22  SAO      -61.7880   18.2920    0.7790 S.3   260  S2N260     -0.0752
     23  CAW      -63.5060   17.5800   -5.7060 C.2   260  S2N260      0.2719
     24  CAX      -62.6180   17.0220   -6.8200 C.3   260  S2N260      0.2312
     25  NAV      -63.1140   18.7480   -5.2060 N.am  260  S2N260     -0.2028
     26  OAZ      -64.4650   16.9380   -5.2800 O.2   260  S2N260     -0.2706
     27  CBA      -63.4660   16.7570   -8.0650 C.3   260  S2N260      0.0645
     28  CBB      -62.6240   17.0100   -9.3180 C.3   260  S2N260      0.1519
     29  CBF      -60.7280   16.6390  -12.7820 C.3   260  S2N260      0.1815
     30  CBG      -64.6760   17.6930   -8.0670 C.3   260  S2N260      0.0056
     31  CBH      -63.9440   15.3050   -8.0570 C.3   260  S2N260      0.0056
     32  OBC      -62.9680   16.0930  -10.3600 O.3   260  S2N260     -0.3140
     33  OBE      -60.6150   15.9660  -11.5260 O.3   260  S2N260     -0.3114
     34  OBI      -61.5930   17.9690   -7.1320 O.3   260  S2N260     -0.2131
     35  OBJ      -61.3290   14.1150   -9.8020 O.3   260  S2N260     -0.4373
     36  OBK      -62.4900   14.2360  -12.1580 O.2   260  S2N260     -0.5172
     37  PBD      -61.8510   15.1030  -10.9610 P.3   260  S2N260      0.2141
@<TRIPOS>BOND
     1    29    33    1
     2    36    37    2
     3    33    37    1
     4    37    32    1
     5    37    35    1
     6    32    28    1
     7    28    27    1
     8    30    27    1
     9    27    31    1
    10    27    24    1
    11    34    24    1
    12    12    11    1
    13    24    23    1
    14    17    16    1
    15    17    25    1
    16    23    26    2
    17    23    25   am
    18    11    10    1
    19    16    15    1
    20    10     9    1
    21    15    21    2
    22    15    18   am
    23     9     8    1
    24    18    14    1
    25     8     7    1
    26    14    13    1
    27    13    22    1
    28     7     6    1
    29     6     5    1
    30    19     1    2
    31    22     1    1
    32     1     2    1
    33     5     4    1
    34     4     3    1
    35     3     2    1
    36     3    20    1
