@<TRIPOS>MOLECULE
3i3b_149_A_1.pdb
 12 12 0 0 0
SMALL
GASTEIGER

@<TRIPOS>ATOM
      1  C1       -10.6480  -27.9420  -26.4260 C.2   2001  1492001     0.3505
      2  C2        -9.6960  -29.0080  -25.8620 C.3   2001  1492001     0.2823
      3  C3        -8.8230  -29.5690  -26.9840 C.3   2001  1492001     0.2270
      4  C4        -9.6910  -30.0360  -28.1500 C.3   2001  1492001     0.2276
      5  C5       -10.3280  -28.7930  -28.8000 C.3   2001  1492001     0.2344
      6  C6       -11.4440  -29.2070  -29.7590 C.3   2001  1492001     0.2281
      7  O1       -11.1720  -27.1520  -25.6830 O.2   2001  1492001    -0.2472
      8  O2        -8.8370  -28.4270  -24.8670 O.3   2001  1492001    -0.2082
      9  O3        -8.0720  -30.6540  -26.4770 O.3   2001  1492001    -0.2169
     10  O4       -10.7200  -30.9140  -27.6720 O.3   2001  1492001    -0.2163
     11  O5       -10.9130  -27.8800  -27.7850 O.3   2001  1492001    -0.4450
     12  O6       -10.9030  -29.9280  -30.8640 O.3   2001  1492001    -0.2163
@<TRIPOS>BOND
     1    12     6    1
     2     6     5    1
     3     5     4    1
     4     5    11    1
     5     4    10    1
     6     4     3    1
     7    11     1    1
     8     3     9    1
     9     3     2    1
    10     1     2    1
    11     1     7    2
    12     2     8    1
