@<TRIPOS>MOLECULE
3i3d_IPT_A_1.pdb
 15 15 0 0 0
SMALL
GASTEIGER

@<TRIPOS>ATOM
      1  C1        14.7370   27.6950   75.4600 C.3   2001  IPT2001     0.1955
      2  C2        13.4200   27.5970   76.2620 C.3   2001  IPT2001     0.2219
      3  O2        13.5440   26.6020   77.2710 O.3   2001  IPT2001    -0.2167
      4  C3        12.2750   27.2380   75.3080 C.3   2001  IPT2001     0.2181
      5  O3        11.0490   27.1300   76.0250 O.3   2001  IPT2001    -0.2175
      6  C4        12.1710   28.3290   74.2270 C.3   2001  IPT2001     0.2143
      7  O4        11.8140   29.5930   74.8100 O.3   2001  IPT2001    -0.2176
      8  C5        13.5390   28.4120   73.4900 C.3   2001  IPT2001     0.1820
      9  O5        14.6180   28.7030   74.4140 O.3   2001  IPT2001    -0.3398
     10  C6        13.4890   29.5040   72.4100 C.3   2001  IPT2001     0.2142
     11  O6        12.4940   29.1830   71.4410 O.3   2001  IPT2001    -0.2176
     12  S1        16.1140   28.1260   76.5650 S.3   2001  IPT2001    -0.1102
     13  C1'       17.5220   28.1000   75.4020 C.3   2001  IPT2001     0.0500
     14  C2'       18.8090   27.8670   76.1930 C.3   2001  IPT2001     0.0117
     15  C3'       17.6330   29.4170   74.6320 C.3   2001  IPT2001     0.0117
@<TRIPOS>BOND
     1    11    10    1
     2    10     8    1
     3     8     6    1
     4     8     9    1
     5     6     7    1
     6     6     4    1
     7     9     1    1
     8    15    13    1
     9     4     5    1
    10     4     2    1
    11    13    14    1
    12    13    12    1
    13     1     2    1
    14     1    12    1
    15     2     3    1
