@<TRIPOS>MOLECULE
3i3m_AKG_A_1.pdb
 10 9 0 0 0
SMALL
GASTEIGER

@<TRIPOS>ATOM
      1  C1         5.4570   16.6600    2.9620 C.2   400  AKG400      0.4219
      2  O1         6.2460   15.9980    2.3120 O.co2 400  AKG400     -0.2373
      3  O2         5.8210   17.8710    3.4120 O.co2 400  AKG400     -0.2373
      4  C2         4.0240   16.2450    3.0630 C.2   400  AKG400      0.2526
      5  O5         3.2260   16.9980    3.5860 O.2   400  AKG400     -0.2843
      6  C3         3.5850   14.8860    2.5520 C.3   400  AKG400      0.0881
      7  C4         2.0550   14.8090    2.4310 C.3   400  AKG400      0.1224
      8  C5         1.6300   13.5120    1.7830 C.2   400  AKG400      0.3653
      9  O3         2.2020   12.4790    2.0380 O.co2 400  AKG400     -0.2456
     10  O4         0.5130   13.4820    1.0580 O.co2 400  AKG400     -0.2456
@<TRIPOS>BOND
     1    10     8   ar
     2     8     9   ar
     3     8     7    1
     4     2     1   ar
     5     7     6    1
     6     6     4    1
     7     1     4    1
     8     1     3   ar
     9     4     5    2
