@<TRIPOS>MOLECULE
3i3o_NAE_A_1.pdb
 48 52 0 0 0
SMALL
GASTEIGER

@<TRIPOS>ATOM
      1  PA       107.4280   43.2390   62.8750 P.3   311  NAE311      0.2189
      2  O1A      108.8960   42.8880   62.6610 O.2   311  NAE311     -0.5170
      3  O2A      106.6510   42.5040   63.9370 O.3   311  NAE311     -0.4371
      4  O5'      106.6910   43.0090   61.4350 O.3   311  NAE311     -0.3112
      5  C5'      107.4520   43.2810   60.2460 C.3   311  NAE311      0.1813
      6  C4'      107.4280   42.0220   59.4230 C.3   311  NAE311      0.1821
      7  O4'      107.9460   42.2340   58.1150 O.3   311  NAE311     -0.3135
      8  C3'      108.1990   40.8470   60.0360 C.3   311  NAE311      0.2184
      9  O3'      107.4050   40.1190   60.9900 O.3   311  NAE311     -0.2174
     10  C2'      108.6120   40.0210   58.8170 C.3   311  NAE311      0.2570
     11  O2'      108.0070   38.7430   58.6350 O.3   311  NAE311     -0.2130
     12  C1'      108.2270   40.8890   57.6360 C.3   311  NAE311      0.3186
     13  N9A      109.3880   40.8230   56.7270 N.pl3 311  NAE311     -0.1439
     14  C8A      110.5340   41.5080   56.8740 C.3   311  NAE311      0.3377
     15  N7A      111.3440   41.1700   55.8460 N.2   311  NAE311     -0.2095
     16  C5A      110.7240   40.2730   55.0630 C.2   311  NAE311      0.2526
     17  C6A      111.0640   39.6190   53.8890 C.2   311  NAE311      0.4393
     18  N6A      112.2860   39.8210   53.3090 N.pl3 311  NAE311      0.2180
     19  N1A      110.1590   38.7520   53.3410 N.2   311  NAE311      0.0021
     20  C2A      108.9660   38.5330   53.8910 C.3   311  NAE311      0.5254
     21  N3A      108.6000   39.1780   55.0310 N.2   311  NAE311     -0.0055
     22  C4A      109.4720   40.0470   55.6250 C.2   311  NAE311      0.3518
     23  OPP      107.4180   44.8500   63.0840 O.3   311  NAE311     -0.2703
     24  PN       106.2280   45.9610   63.1310 P.3   311  NAE311      0.2189
     25  O1N      106.8100   47.2630   63.6520 O.2   311  NAE311     -0.5170
     26  O2N      104.9940   45.4420   63.8490 O.3   311  NAE311     -0.4371
     27  O5B      105.3620   46.1800   61.7900 O.3   311  NAE311     -0.3112
     28  C5B      105.7390   46.1810   60.4710 C.3   311  NAE311      0.1813
     29  C4B      105.0860   47.4290   59.9160 C.3   311  NAE311      0.1799
     30  O4B      104.8790   48.4770   60.8940 O.3   311  NAE311     -0.3327
     31  C3B      106.1120   47.9160   58.9000 C.3   311  NAE311      0.2158
     32  O3B      105.4970   48.3150   57.6950 O.3   311  NAE311     -0.2175
     33  C2B      106.7800   49.0530   59.6380 C.3   311  NAE311      0.2309
     34  O2B      107.4560   49.9880   58.8000 O.3   311  NAE311     -0.2158
     35  C1B      105.5820   49.6360   60.3880 C.3   311  NAE311      0.2263
     36  N1N      106.1740   50.5950   61.3110 N.pl3 311  NAE311     -0.2787
     37  C2N      106.3460   50.2100   62.7130 C.3   311  NAE311      0.1241
     38  C3N      106.6520   51.1310   63.6550 C.2   311  NAE311      0.0508
     39  C7N      107.1540   50.7480   65.0040 C.2   311  NAE311      0.2815
     40  O7N      107.6350   51.5980   65.7700 O.2   311  NAE311     -0.2670
     41  N7N      107.1140   49.4420   65.3440 N.am  311  NAE311     -0.0839
     42  C4N      106.5300   52.6010   63.3260 C.2   311  NAE311     -0.0114
     43  C5N      106.0440   52.8940   61.9080 C.2   311  NAE311      0.0119
     44  C6N      105.8190   51.9350   61.0010 C.2   311  NAE311      0.0630
     45  C4P      107.7920   53.4100   63.6480 C.3   311  NAE311      0.0907
     46  C3P      108.9670   53.2220   62.7330 C.2   311  NAE311      0.1554
     47  OP       109.3490   54.2120   62.1500 O.2   311  NAE311     -0.2957
     48  C2P      109.6610   51.9080   62.6190 C.3   311  NAE311      0.0726
@<TRIPOS>BOND
     1    18    17    1
     2    19    17    2
     3    19    20    1
     4    17    16    1
     5    20    21    1
     6    21    22    2
     7    16    22    1
     8    16    15    2
     9    22    13    1
    10    15    14    1
    11    13    14    1
    12    13    12    1
    13    12     7    1
    14    12    10    1
    15    32    31    1
    16     7     6    1
    17    11    10    1
    18    34    33    1
    19    10     8    1
    20    31    33    1
    21    31    29    1
    22     6     8    1
    23     6     5    1
    24    33    35    1
    25    29    28    1
    26    29    30    1
    27     8     9    1
    28     5     4    1
    29    35    30    1
    30    35    36    1
    31    28    27    1
    32    44    36    1
    33    44    43    2
    34    36    37    1
    35     4     1    1
    36    27    24    1
    37    43    42    1
    38    47    46    2
    39    48    46    1
    40     2     1    2
    41    37    38    1
    42    46    45    1
    43     1    23    1
    44     1     3    1
    45    23    24    1
    46    24    25    2
    47    24    26    1
    48    42    45    1
    49    42    38    2
    50    38    39    1
    51    39    41   am
    52    39    40    2
