@<TRIPOS>MOLECULE
3i3q_AKG_A_1.pdb
 10 9 0 0 0
SMALL
GASTEIGER

@<TRIPOS>ATOM
      1  C1        17.1450    7.9560   37.6400 C.2   401  AKG401      0.4219
      2  O1        17.4570    7.0900   36.8300 O.co2 401  AKG401     -0.2373
      3  O2        17.3940    7.7980   38.9160 O.co2 401  AKG401     -0.2373
      4  C2        16.3560    9.1440   37.2460 C.2   401  AKG401      0.2526
      5  O5        15.9470    9.8980   38.1560 O.2   401  AKG401     -0.2843
      6  C3        16.0430    9.4180   35.7950 C.3   401  AKG401      0.0881
      7  C4        15.2660   10.7350   35.6520 C.3   401  AKG401      0.1224
      8  C5        14.9930   11.0220   34.2040 C.2   401  AKG401      0.3653
      9  O3        14.7000   10.1190   33.4110 O.co2 401  AKG401     -0.2456
     10  O4        15.0060   12.2510   33.7970 O.co2 401  AKG401     -0.2456
@<TRIPOS>BOND
     1     9     8   ar
     2    10     8   ar
     3     8     7    1
     4     7     6    1
     5     6     4    1
     6     2     1   ar
     7     4     1    1
     8     4     5    2
     9     1     3   ar
