@<TRIPOS>MOLECULE
3i3s_GNP_R_1.pdb
 32 34 0 0 0
SMALL
GASTEIGER

@<TRIPOS>ATOM
      1  PG        -6.7230  -15.4700  -22.2160 P.3   167  GNP167      0.4884
      2  O1G       -6.9010  -14.4880  -21.0850 O.3   167  GNP167     -0.1240
      3  O2G       -7.2140  -16.8690  -21.8450 O.3   167  GNP167     -0.1240
      4  O3G       -5.2990  -15.4550  -22.7000 O.2   167  GNP167     -0.2331
      5  N3B       -7.6600  -14.9790  -23.4970 N.3   167  GNP167     -0.0163
      6  PB        -7.9470  -15.7540  -24.9140 P.3   167  GNP167      0.4669
      7  O1B       -6.8450  -15.5320  -25.8690 O.2   167  GNP167     -0.2351
      8  O2B       -8.2840  -17.1860  -24.6580 O.3   167  GNP167     -0.1253
      9  O3A       -9.2210  -15.0330  -25.5310 O.3   167  GNP167     -0.2360
     10  PA       -10.7470  -15.5550  -25.5390 P.3   167  GNP167      0.2220
     11  O1A      -10.8830  -16.7070  -26.4340 O.2   167  GNP167     -0.5170
     12  O2A      -11.2120  -15.6290  -24.1350 O.3   167  GNP167     -0.4370
     13  O5'      -11.4720  -14.3520  -26.2700 O.3   167  GNP167     -0.3111
     14  C5'      -11.4220  -13.0370  -25.7340 C.3   167  GNP167      0.1813
     15  C4'      -12.5980  -12.2420  -26.2510 C.3   167  GNP167      0.1799
     16  O4'      -12.4550  -12.0730  -27.6800 O.3   167  GNP167     -0.3326
     17  C3'      -13.9690  -12.8950  -26.0380 C.3   167  GNP167      0.2158
     18  O3'      -14.9320  -11.8720  -25.7620 O.3   167  GNP167     -0.2175
     19  C2'      -14.2520  -13.5550  -27.3830 C.3   167  GNP167      0.2310
     20  O2'      -15.6260  -13.6660  -27.7040 O.3   167  GNP167     -0.2158
     21  C1'      -13.5750  -12.6030  -28.3570 C.3   167  GNP167      0.2293
     22  N9       -13.1390  -13.2600  -29.5790 N.pl3 167  GNP167     -0.2354
     23  C8       -12.3060  -14.3480  -29.6810 C.3   167  GNP167      0.2246
     24  N7       -12.0990  -14.7380  -30.9140 N.2   167  GNP167     -0.2322
     25  C5       -12.8670  -13.8660  -31.6720 C.2   167  GNP167      0.2182
     26  C6       -13.0290  -13.7700  -33.0770 C.1   167  GNP167      0.2372
     27  O6       -12.5100  -14.4940  -33.9500 O.2   167  GNP167     -0.2069
     28  N1       -13.8720  -12.7220  -33.4460 N.2   167  GNP167     -0.2485
     29  C2       -14.4760  -11.8480  -32.5640 C.1   167  GNP167      0.2531
     30  N2       -15.2790  -10.9190  -33.1080 N.pl3 167  GNP167     -0.0226
     31  N3       -14.3120  -11.9220  -31.2530 N.2   167  GNP167     -0.3074
     32  C4       -13.4950  -12.9350  -30.8690 C.2   167  GNP167      0.2300
@<TRIPOS>BOND
     1    27    26    2
     2    28    26    2
     3    28    29    2
     4    30    29    1
     5    26    25    1
     6    29    31    2
     7    25    24    2
     8    25    32    1
     9    31    32    2
    10    24    23    1
    11    32    22    1
    12    23    22    1
    13    22    21    1
    14    21    16    1
    15    21    19    1
    16    20    19    1
    17    16    15    1
    18    19    17    1
    19    11    10    2
    20    13    14    1
    21    13    10    1
    22    15    17    1
    23    15    14    1
    24    17    18    1
    25     7     6    2
    26    10     9    1
    27    10    12    1
    28     9     6    1
    29     6     8    1
    30     6     5    1
    31     5     1    1
    32     4     1    2
    33     1     3    1
    34     1     2    1
