@<TRIPOS>MOLECULE
3i3y_RIB_D_1.pdb
 10 10 0 0 0
SMALL
GASTEIGER

@<TRIPOS>ATOM
      1  O5'       -1.9780   49.0570   63.0690 O.3   311  RIB311     -0.2176
      2  C5'       -1.6870   48.3310   64.2840 C.3   311  RIB311      0.2142
      3  C4'       -2.8240   47.3740   64.4840 C.3   311  RIB311      0.1837
      4  O4'       -2.9040   46.5280   63.3390 O.3   311  RIB311     -0.3236
      5  C3'       -2.6090   46.5540   65.7280 C.3   311  RIB311      0.2169
      6  O3'       -3.6710   46.8280   66.6680 O.3   311  RIB311     -0.2175
      7  C2'       -2.5880   45.0670   65.2290 C.3   311  RIB311      0.2433
      8  O2'       -3.6360   44.2990   65.8270 O.3   311  RIB311     -0.2148
      9  C1'       -2.7800   45.1250   63.7030 C.3   311  RIB311      0.3024
     10  O1'       -4.0060   44.4000   63.3510 O.3   311  RIB311     -0.1869
@<TRIPOS>BOND
     1     1     2    1
     2     4     9    1
     3     4     3    1
     4    10     9    1
     5     9     7    1
     6     2     3    1
     7     3     5    1
     8     7     5    1
     9     7     8    1
    10     5     6    1
