@<TRIPOS>MOLECULE
3i49_AKG_A_1.pdb
 10 9 0 0 0
SMALL
GASTEIGER

@<TRIPOS>ATOM
      1  C1        16.3360    5.5570   -3.1150 C.2   400  AKG400      0.4219
      2  O1        15.5770    6.3760   -2.6260 O.co2 400  AKG400     -0.2373
      3  O2        17.5590    5.9350   -3.5140 O.co2 400  AKG400     -0.2373
      4  C2        15.9420    4.1160   -3.1880 C.2   400  AKG400      0.2526
      5  O5        16.6970    3.3200   -3.7070 O.2   400  AKG400     -0.2843
      6  C3        14.5770    3.6820   -2.6830 C.3   400  AKG400      0.0881
      7  C4        14.4530    2.1510   -2.6560 C.3   400  AKG400      0.1224
      8  C5        13.1570    1.7330   -1.9960 C.2   400  AKG400      0.3653
      9  O3        12.1250    2.3370   -2.2080 O.co2 400  AKG400     -0.2456
     10  O4        13.1340    0.6370   -1.2360 O.co2 400  AKG400     -0.2456
@<TRIPOS>BOND
     1     5     4    2
     2     3     1   ar
     3     4     1    1
     4     4     6    1
     5     1     2   ar
     6     6     7    1
     7     7     8    1
     8     9     8   ar
     9     8    10   ar
