@<TRIPOS>MOLECULE
3i4a_LN5_A_1.pdb
 13 12 0 0 0
SMALL
GASTEIGER

@<TRIPOS>ATOM
      1  CT1        2.3860  -22.0780  -14.3500 C.3   500  LN5500      0.0031
      2  CH1        1.5290  -21.9290  -15.5970 C.3   500  LN5500      0.0369
      3  CZ         1.1390  -20.4980  -15.9080 C.3   500  LN5500      0.1639
      4  NH2        1.4420  -19.6690  -14.7960 N.3   500  LN5500     -0.1137
      5  NE         2.0190  -19.8850  -16.8990 N.3   500  LN5500     -0.2009
      6  CD         2.0480  -20.4620  -18.2570 C.3   500  LN5500      0.0903
      7  CG         2.8750  -19.5520  -19.1900 C.3   500  LN5500      0.0209
      8  CB         2.8780  -20.0750  -20.6560 C.3   500  LN5500      0.0321
      9  CA         3.6250  -19.1460  -21.6260 C.3   500  LN5500      0.1944
     10  C          5.1280  -19.1450  -21.3400 C.2   500  LN5500      0.3819
     11  OA2        5.8340  -19.9250  -22.0180 O.co2 500  LN5500     -0.2441
     12  OA1        5.5410  -18.3460  -20.4710 O.co2 500  LN5500     -0.2441
     13  N          3.4170  -19.5880  -23.0140 N.3   500  LN5500     -0.1208
@<TRIPOS>BOND
     1    13     9    1
     2    11    10   ar
     3     9    10    1
     4     9     8    1
     5    10    12   ar
     6     8     7    1
     7     7     6    1
     8     6     5    1
     9     5     3    1
    10     3     2    1
    11     3     4    1
    12     2     1    1
