@<TRIPOS>MOLECULE
3i4b_Z48_A_1.pdb
 31 34 0 0 0
SMALL
GASTEIGER

@<TRIPOS>ATOM
      1  C1        38.4000   33.0030   52.0490 C.3   501  Z48501      0.0354
      2  C2        38.9580   34.3780   52.0940 C.2   501  Z48501      0.0284
      3  C3        39.7460   34.7770   51.0680 C.2   501  Z48501      0.1100
      4  N4        40.2290   35.9720   51.0760 N.2   501  Z48501     -0.1687
      5  C5        40.0020   36.8110   52.0320 C.1   501  Z48501      0.1696
      6  N6        40.6060   38.0220   51.8940 N.pl3 501  Z48501     -0.1358
      7  C7        40.7210   39.1250   52.7260 C.ar  501  Z48501      0.0826
      8  C8        41.1950   40.2830   52.1490 C.ar  501  Z48501      0.0173
      9  C9        41.3600   41.4220   52.8790 C.ar  501  Z48501      0.0014
     10  C10       41.0540   41.4160   54.2080 C.ar  501  Z48501      0.0001
     11  C11       40.5800   40.2710   54.7960 C.ar  501  Z48501      0.0014
     12  C12       40.4160   39.1320   54.0640 C.ar  501  Z48501      0.0173
     13  N13       39.2650   36.4810   53.0390 N.2   501  Z48501     -0.3367
     14  C14       38.7440   35.3020   53.1210 C.2   501  Z48501      0.1395
     15  C15       37.8900   35.1510   54.2880 C.2   501  Z48501      0.0333
     16  C16       37.4650   36.2350   54.9500 C.2   501  Z48501      0.0973
     17  N17       36.6760   35.8230   55.9020 N.2   501  Z48501     -0.2434
     18  C19       36.5470   34.4770   55.8990 C.2   501  Z48501      0.1183
     19  C20       37.2980   34.0350   54.8750 C.3   501  Z48501      0.0810
     20  C21       35.7410   33.7050   56.8630 C.2   501  Z48501      0.2791
     21  O22       35.2910   32.6460   56.6180 O.2   501  Z48501     -0.2670
     22  N23       35.5180   34.2260   58.0590 N.am  501  Z48501     -0.1952
     23  C24       34.7490   33.6710   59.1420 C.3   501  Z48501      0.1507
     24  C26       34.3460   34.8700   59.9520 C.3   501  Z48501      0.2081
     25  O27       33.4180   35.5590   59.1980 O.3   501  Z48501     -0.2181
     26  C28       35.5000   32.7840   60.0650 C.ar  501  Z48501      0.0000
     27  C29       34.7950   31.9220   60.8430 C.ar  501  Z48501     -0.0025
     28  C30       35.4210   31.1050   61.7080 C.ar  501  Z48501     -0.0003
     29  C31       36.7760   31.1540   61.7850 C.ar  501  Z48501     -0.0000
     30  C32       37.4840   32.0180   61.0100 C.ar  501  Z48501     -0.0003
     31  C33       36.8430   32.8400   60.1420 C.ar  501  Z48501     -0.0025
@<TRIPOS>BOND
     1     3     4    1
     2     3     2    2
     3     4     5    2
     4     6     5    1
     5     6     7    1
     6     5    13    2
     7     1     2    1
     8     2    14    1
     9     8     7   ar
    10     8     9   ar
    11     7    12   ar
    12     9    10   ar
    13    13    14    2
    14    14    15    1
    15    12    11   ar
    16    10    11   ar
    17    15    19    1
    18    15    16    2
    19    19    18    1
    20    16    17    1
    21    18    17    2
    22    18    20    1
    23    21    20    2
    24    20    22   am
    25    22    23    1
    26    23    24    1
    27    23    26    1
    28    25    24    1
    29    26    31   ar
    30    26    27   ar
    31    31    30   ar
    32    27    28   ar
    33    30    29   ar
    34    28    29   ar
