@<TRIPOS>MOLECULE
3i4d_UQ1_L_1.pdb
 18 18 0 0 0
SMALL
GASTEIGER

@<TRIPOS>ATOM
      1  C1       -11.4870  -53.2360   37.0760 C.2   503  UQ1503      0.2285
      2  O1       -12.1120  -54.2600   37.3760 O.2   503  UQ1503     -0.2835
      3  C2       -10.1180  -53.3100   36.7210 C.2   503  UQ1503      0.2140
      4  O2        -9.4450  -54.5060   36.6720 O.2   503  UQ1503     -0.4652
      5  CM2      -10.0550  -55.6640   37.3280 C.3   503  UQ1503      0.2528
      6  C3        -9.4000  -52.1470   36.3790 C.2   503  UQ1503      0.2140
      7  O3        -8.0670  -52.2250   36.0200 O.2   503  UQ1503     -0.4652
      8  CM3       -7.2320  -51.1530   35.5230 C.3   503  UQ1503      0.2528
      9  C4       -10.0700  -50.9310   36.4010 C.2   503  UQ1503      0.2282
     10  O4        -9.4330  -49.9170   36.1150 O.2   503  UQ1503     -0.2836
     11  C5       -11.4320  -50.8740   36.7570 C.2   503  UQ1503      0.0198
     12  CM5      -12.1730  -49.5490   36.7730 C.3   503  UQ1503      0.0343
     13  C6       -12.1630  -52.0070   37.1010 C.2   503  UQ1503      0.0235
     14  C7       -13.6580  -51.8620   37.4730 C.3   503  UQ1503      0.0548
     15  C8       -13.8700  -51.2180   38.7060 C.2   503  UQ1503     -0.0298
     16  C9       -14.9870  -50.4650   39.1330 C.2   503  UQ1503     -0.0475
     17  C10      -16.1930  -50.2290   38.2250 C.3   503  UQ1503      0.0260
     18  C11      -15.0340  -49.8570   40.5430 C.3   503  UQ1503      0.0260
@<TRIPOS>BOND
     1     8     7    1
     2     7     6    1
     3    10     9    2
     4     6     9    1
     5     6     3    2
     6     9    11    1
     7     4     3    1
     8     4     5    1
     9     3     1    1
    10    11    12    1
    11    11    13    2
    12     1    13    1
    13     1     2    2
    14    13    14    1
    15    14    15    1
    16    17    16    1
    17    15    16    2
    18    16    18    1
