@<TRIPOS>MOLECULE
3i4d_SPO_M_1.pdb
 42 41 0 0 0
SMALL
GASTEIGER

@<TRIPOS>ATOM
      1  CM1      -19.5660  -41.4860   36.7160 C.3   600  SPO600      0.1739
      2  O1       -18.7360  -40.4080   37.2320 O.3   600  SPO600     -0.3555
      3  C1       -19.1350  -39.4720   38.2540 C.3   600  SPO600      0.0970
      4  C2       -18.3720  -38.1670   38.1780 C.3   600  SPO600      0.0300
      5  C3       -20.6280  -39.1460   38.1810 C.3   600  SPO600      0.0300
      6  C4       -18.7880  -40.0610   39.5710 C.3   600  SPO600      0.0532
      7  C5       -17.3580  -40.6010   39.6790 C.2   600  SPO600     -0.0240
      8  C6       -16.5980  -40.2150   40.7340 C.2   600  SPO600     -0.0088
      9  C7       -15.2640  -40.8080   40.9570 C.2   600  SPO600     -0.0222
     10  C8       -14.6920  -41.6580   39.8460 C.3   600  SPO600      0.0310
     11  C9       -14.6880  -40.6210   42.1640 C.2   600  SPO600     -0.0043
     12  C10      -13.4190  -41.2250   42.5910 C.2   600  SPO600     -0.0006
     13  C11      -12.9860  -41.0570   43.8790 C.2   600  SPO600     -0.0043
     14  C12      -11.7560  -41.6980   44.4150 C.2   600  SPO600     -0.0218
     15  C13      -11.0770  -42.7480   43.5780 C.3   600  SPO600      0.0310
     16  C14      -11.3560  -41.3960   45.6600 C.2   600  SPO600     -0.0043
     17  C15      -10.2280  -42.0060   46.3570 C.2   600  SPO600     -0.0006
     18  C16       -9.8720  -41.5200   47.5470 C.2   600  SPO600     -0.0043
     19  C17       -8.7850  -42.0150   48.3900 C.2   600  SPO600     -0.0218
     20  C18       -8.1500  -43.3370   48.0370 C.3   600  SPO600      0.0310
     21  C19       -8.4420  -41.2030   49.4250 C.2   600  SPO600     -0.0043
     22  C20       -7.3730  -41.5570   50.3780 C.2   600  SPO600     -0.0003
     23  C21       -6.8540  -40.8420   51.3960 C.2   600  SPO600     -0.0003
     24  C22       -7.2710  -39.4110   51.7640 C.2   600  SPO600     -0.0043
     25  C23       -6.8940  -38.7470   52.8720 C.2   600  SPO600     -0.0218
     26  C24       -5.9970  -39.2620   53.9590 C.3   600  SPO600      0.0310
     27  C25       -7.4280  -37.3990   52.9820 C.2   600  SPO600     -0.0043
     28  C26       -7.3640  -36.6060   54.0930 C.2   600  SPO600     -0.0010
     29  C27       -7.9510  -35.2640   53.9690 C.2   600  SPO600     -0.0085
     30  C28       -8.1060  -34.3940   54.9870 C.2   600  SPO600     -0.0436
     31  C29       -7.6470  -34.6750   56.3880 C.3   600  SPO600      0.0264
     32  C30       -8.7170  -33.0500   54.6950 C.3   600  SPO600      0.0267
     33  C31       -7.8090  -31.8980   55.0950 C.3   600  SPO600      0.0297
     34  C32       -8.3900  -30.5830   54.6350 C.2   600  SPO600     -0.0342
     35  C33       -7.7930  -29.6430   53.8570 C.2   600  SPO600     -0.0478
     36  C34       -6.4050  -29.8120   53.3290 C.3   600  SPO600      0.0260
     37  C35       -8.5530  -28.3970   53.5080 C.3   600  SPO600      0.0263
     38  C36       -8.1450  -27.3030   54.4550 C.3   600  SPO600      0.0297
     39  C37       -9.0770  -26.1280   54.4400 C.2   600  SPO600     -0.0342
     40  C38       -9.8070  -25.7750   55.5440 C.2   600  SPO600     -0.0478
     41  C39       -9.7690  -26.5490   56.8440 C.3   600  SPO600      0.0260
     42  C40      -10.7160  -24.5720   55.4780 C.3   600  SPO600      0.0260
@<TRIPOS>BOND
     1     1     2    1
     2     2     3    1
     3     4     3    1
     4     5     3    1
     5     3     6    1
     6     6     7    1
     7     7     8    2
     8    10     9    1
     9     8     9    1
    10     9    11    2
    11    11    12    1
    12    12    13    2
    13    15    14    1
    14    13    14    1
    15    14    16    2
    16    16    17    1
    17    17    18    2
    18    18    19    1
    19    20    19    1
    20    19    21    2
    21    21    22    1
    22    22    23    2
    23    23    24    1
    24    24    25    2
    25    25    27    1
    26    25    26    1
    27    27    28    2
    28    36    35    1
    29    37    35    1
    30    37    38    1
    31    35    34    2
    32    29    28    1
    33    29    30    2
    34    39    38    1
    35    39    40    2
    36    34    33    1
    37    32    30    1
    38    32    33    1
    39    30    31    1
    40    42    40    1
    41    40    41    1
