@<TRIPOS>MOLECULE
3i4l_ANP_A_1.pdb
 31 33 0 0 0
SMALL
GASTEIGER

@<TRIPOS>ATOM
      1  PG        39.4090    8.8420   27.8350 P.3   589  ANP589      0.4884
      2  O1G       38.7140    8.6040   29.1600 O.3   589  ANP589     -0.1240
      3  O2G       38.8980   10.0470   27.0740 O.2   589  ANP589     -0.2331
      4  O3G       40.9120    8.8010   27.9450 O.3   589  ANP589     -0.1240
      5  PB        40.2100    6.5660   25.9970 P.3   589  ANP589      0.4669
      6  O1B       39.4800    5.7790   24.9310 O.2   589  ANP589     -0.2351
      7  O2B       41.0870    5.8010   26.9620 O.3   589  ANP589     -0.1253
      8  N3B       38.9790    7.4250   26.8980 N.3   589  ANP589     -0.0163
      9  PA        42.6860    7.3970   24.9300 P.3   589  ANP589      0.2220
     10  O1A       42.7180    6.5830   23.6620 O.2   589  ANP589     -0.5170
     11  O2A       43.3420    6.8430   26.1720 O.3   589  ANP589     -0.4370
     12  O3A       41.1320    7.6780   25.2660 O.3   589  ANP589     -0.2360
     13  O5'       43.3420    8.8530   24.6140 O.3   589  ANP589     -0.3111
     14  C5'       44.7110    9.0410   24.2210 C.3   589  ANP589      0.1813
     15  C4'       44.9830   10.5450   24.0710 C.3   589  ANP589      0.1821
     16  O4'       46.2950   11.0310   24.4450 O.3   589  ANP589     -0.3135
     17  C3'       44.7490   11.1050   22.6890 C.3   589  ANP589      0.2184
     18  O3'       43.4330   11.5990   22.5530 O.3   589  ANP589     -0.2174
     19  C2'       45.6280   12.3130   22.6450 C.3   589  ANP589      0.2570
     20  O2'       46.5200   12.0730   21.5820 O.3   589  ANP589     -0.2130
     21  C1'       46.4260   12.3620   23.9210 C.3   589  ANP589      0.3186
     22  N9        47.8250   12.7170   23.6200 N.pl3 589  ANP589     -0.1439
     23  C8        48.9010   12.2940   24.3050 C.3   589  ANP589      0.3377
     24  N7        50.0560   12.7690   23.7950 N.2   589  ANP589     -0.2095
     25  C5        49.7240   13.5240   22.7430 C.2   589  ANP589      0.2526
     26  C6        50.4490   14.3170   21.7430 C.2   589  ANP589      0.4393
     27  N6        51.7800   14.3820   21.8020 N.pl3 589  ANP589      0.2180
     28  N1        49.7440   14.9750   20.7960 N.2   589  ANP589      0.0021
     29  C2        48.3990   14.9250   20.7440 C.3   589  ANP589      0.5254
     30  N3        47.6620   14.2180   21.6170 N.2   589  ANP589     -0.0055
     31  C4        48.2530   13.5030   22.6210 C.2   589  ANP589      0.3518
@<TRIPOS>BOND
     1    29    28    1
     2    29    30    1
     3    28    26    2
     4    20    19    1
     5    30    31    2
     6    26    27    1
     7    26    25    1
     8    18    17    1
     9    31    25    1
    10    31    22    1
    11    19    17    1
    12    19    21    1
    13    17    15    1
    14    25    24    2
    15    22    21    1
    16    22    23    1
    17    10     9    2
    18    24    23    1
    19    21    16    1
    20    15    14    1
    21    15    16    1
    22    14    13    1
    23    13     9    1
    24     9    12    1
    25     9    11    1
    26     6     5    2
    27    12     5    1
    28     5     8    1
    29     5     7    1
    30     8     1    1
    31     3     1    2
    32     1     4    1
    33     1     2    1
