@<TRIPOS>MOLECULE
3i4x_TRP_A_1.pdb
 15 16 0 0 0
SMALL
GASTEIGER

@<TRIPOS>ATOM
      1  N         27.8570   79.0740   16.6560 N.3   461  TRP461     -0.1205
      2  CA        27.8520   77.9410   15.7270 C.3   461  TRP461      0.1984
      3  C         27.1290   76.7100   16.3030 C.2   461  TRP461      0.3822
      4  O         26.9000   76.6870   17.5010 O.co2 461  TRP461     -0.2440
      5  CB        29.2920   77.5720   15.3790 C.3   461  TRP461      0.0549
      6  CG        29.9810   78.6340   14.5730 C.2   461  TRP461     -0.0138
      7  CD1       30.8200   79.6430   15.0370 C.2   461  TRP461      0.0907
      8  CD2       29.9100   78.7940   13.1520 C.3   461  TRP461      0.0819
      9  NE1       31.2790   80.4080   13.9760 N.2   461  TRP461     -0.2482
     10  CE2       30.7350   79.9180   12.8100 C.2   461  TRP461      0.0665
     11  CE3       29.2440   78.0920   12.1260 C.2   461  TRP461     -0.0164
     12  CZ2       30.8800   80.3710   11.4740 C.2   461  TRP461      0.0153
     13  CZ3       29.3820   78.5450   10.8140 C.2   461  TRP461     -0.0038
     14  CH2       30.1970   79.6760   10.4970 C.2   461  TRP461      0.0009
     15  OXT       26.7890   75.7160   15.6290 O.co2 461  TRP461     -0.2440
@<TRIPOS>BOND
     1    14    13    1
     2    14    12    2
     3    13    11    2
     4    12    10    1
     5    11     8    1
     6    10     8    1
     7    10     9    2
     8     8     6    1
     9     9     7    1
    10     6     7    2
    11     6     5    1
    12     5     2    1
    13    15     3   ar
    14     2     3    1
    15     2     1    1
    16     3     4   ar
