@<TRIPOS>MOLECULE
3i4x_DST_A_1.pdb
 14 13 0 0 0
SMALL
GASTEIGER

@<TRIPOS>ATOM
      1  O4        37.9980   76.7600    7.1340 O.3   460  DST460     -0.1143
      2  P1        36.6380   76.7690    6.5150 P.3   460  DST460      0.5394
      3  O6        36.4690   75.7090    5.3630 O.2   460  DST460     -0.2220
      4  O5        36.1510   78.0790    5.7630 O.3   460  DST460     -0.1143
      5  O2        35.6170   76.3790    7.7770 O.3   460  DST460     -0.1955
      6  P3        34.3410   77.2960    8.1780 P.3   460  DST460      0.4273
      7  O8        34.6370   78.6750    8.6110 O.3   460  DST460     -0.1309
      8  O7        33.4040   77.0890    7.0400 O.2   460  DST460     -0.2431
      9  S9        33.9370   76.2730    9.7880 S.3   460  DST460     -0.0237
     10  C10       32.6960   77.3500   10.6740 C.3   460  DST460      0.0942
     11  C11       32.2470   76.6470   11.8100 C.2   460  DST460     -0.0224
     12  C12       32.6150   76.7400   13.1720 C.2   460  DST460     -0.0470
     13  C13       33.5840   77.8090   13.7530 C.3   460  DST460      0.0261
     14  C14       31.9600   75.7480   14.1410 C.3   460  DST460      0.0261
@<TRIPOS>BOND
     1     3     2    2
     2     4     2    1
     3     2     1    1
     4     2     5    1
     5     8     6    2
     6     5     6    1
     7     6     7    1
     8     6     9    1
     9     9    10    1
    10    10    11    1
    11    11    12    2
    12    12    13    1
    13    12    14    1
