@<TRIPOS>MOLECULE
3i4y_35C_A_1.pdb
 10 10 0 0 0
SMALL
GASTEIGER

@<TRIPOS>ATOM
      1  C1         2.9630   -2.8590   18.8800 C.ar    1  35C1        0.2360
      2  C2         3.5640   -1.6650   19.2320 C.ar    1  35C1        0.2447
      3  C3         3.0350   -0.8680   20.2370 C.ar    1  35C1        0.1006
      4  C4         1.8910   -1.2670   20.8990 C.ar    1  35C1        0.0262
      5  C5         1.3010   -2.4640   20.5310 C.ar    1  35C1        0.0619
      6  C6         1.8150   -3.2670   19.5290 C.ar    1  35C1        0.0568
      7  O7         3.4880   -3.6370   17.8990 O.3     1  35C1       -0.2831
      8  O8         4.6770   -1.2600   18.5690 O.3     1  35C1       -0.2822
      9 CL9         3.8000    0.6870   20.6870 Cl      1  35C1       -0.0788
     10 CL10       -0.1770   -2.9770   21.3740 Cl      1  35C1       -0.0821
@<TRIPOS>BOND
     1     7     1    1
     2     8     2    1
     3     1     2   ar
     4     1     6   ar
     5     2     3   ar
     6     6     5   ar
     7     3     9    1
     8     3     4   ar
     9     5     4   ar
    10     5    10    1
