@<TRIPOS>MOLECULE
3i51_45C_A_1.pdb
 10 10 0 0 0
SMALL
GASTEIGER

@<TRIPOS>ATOM
      1  C1         2.9560   -2.5180   18.5610 C.ar    1  45C1        0.2352
      2  C2         3.9300   -1.8860   19.2740 C.ar    1  45C1        0.2352
      3  C3         3.6510   -1.0860   20.3830 C.ar    1  45C1        0.0576
      4  C4         2.3200   -1.0300   20.7510 C.ar    1  45C1        0.0716
      5  C5         1.3260   -1.6600   20.0040 C.ar    1  45C1        0.0716
      6  C6         1.6230   -2.4310   18.9110 C.ar    1  45C1        0.0576
      7  O7         3.2780   -3.2430   17.4740 O.3     1  45C1       -0.2831
      8  O8         5.1820   -2.0390   18.8190 O.3     1  45C1       -0.2831
      9 CL9         1.9660   -0.0300   22.1450 Cl      1  45C1       -0.0813
     10 CL10       -0.4070   -1.5600   20.4440 Cl      1  45C1       -0.0813
@<TRIPOS>BOND
     1     7     1    1
     2     1     6   ar
     3     1     2   ar
     4     8     2    1
     5     6     5   ar
     6     2     3   ar
     7     5    10    1
     8     5     4   ar
     9     3     4   ar
    10     4     9    1
