@<TRIPOS>MOLECULE
3i52_NAP_A_1.pdb
 48 52 0 0 0
SMALL
GASTEIGER

@<TRIPOS>ATOM
      1  PA         1.0890    7.7390   20.5950 P.3   401  NAP401      0.2189
      2  O1A        0.0630    8.6920   20.1190 O.2   401  NAP401     -0.5170
      3  O2A        0.6610    6.5520   21.3980 O.3   401  NAP401     -0.4371
      4  O5B        2.3200    8.5050   21.2510 O.3   401  NAP401     -0.3112
      5  C5B        2.9230    9.5280   20.5130 C.3   401  NAP401      0.1813
      6  C4B        3.9790   10.1080   21.4240 C.3   401  NAP401      0.1820
      7  O4B        4.6570   11.1530   20.7490 O.3   401  NAP401     -0.3136
      8  C3B        3.3440   10.7080   22.6750 C.3   401  NAP401      0.2157
      9  O3B        4.0920   10.3510   23.8100 O.3   401  NAP401     -0.2175
     10  C2B        3.4190   12.1910   22.4080 C.3   401  NAP401      0.2314
     11  O2B        3.5230   12.8790   23.6160 O.3   401  NAP401     -0.2630
     12  C1B        4.6530   12.3390   21.5170 C.3   401  NAP401      0.3158
     13  N9A        4.6750   13.4950   20.5990 N.pl3 401  NAP401     -0.1439
     14  C8A        3.7750   13.7870   19.6060 C.3   401  NAP401      0.3377
     15  N7A        4.0730   15.0110   19.0780 N.2   401  NAP401     -0.2095
     16  C5A        5.2090   15.4500   19.6750 C.2   401  NAP401      0.2526
     17  C6A        6.0620   16.5150   19.3930 C.2   401  NAP401      0.4393
     18  N6A        5.8120   17.3230   18.3530 N.pl3 401  NAP401      0.2180
     19  N1A        7.0700   16.8000   20.2980 N.2   401  NAP401      0.0021
     20  C2A        7.5110   15.8100   21.1510 C.3   401  NAP401      0.5254
     21  N3A        6.7370   14.6720   21.3440 N.2   401  NAP401     -0.0055
     22  C4A        5.5750   14.5260   20.6570 C.2   401  NAP401      0.3518
     23  O3         1.7560    7.1830   19.2240 O.3   401  NAP401     -0.2703
     24  PN         1.8620    5.6490   18.7790 P.3   401  NAP401      0.2189
     25  O1N        0.4900    5.1290   18.5040 O.2   401  NAP401     -0.5170
     26  O2N        2.6800    4.9500   19.7950 O.3   401  NAP401     -0.4371
     27  O5D        2.6010    5.7510   17.3270 O.3   401  NAP401     -0.3112
     28  C5D        3.9980    5.5780   17.1180 C.3   401  NAP401      0.1813
     29  C4D        4.2750    5.0090   15.7210 C.3   401  NAP401      0.1799
     30  O4D        3.9390    3.6310   15.7790 O.3   401  NAP401     -0.3327
     31  C3D        3.4210    5.6390   14.6260 C.3   401  NAP401      0.2158
     32  O3D        4.1520    6.0020   13.4910 O.3   401  NAP401     -0.2175
     33  C2D        2.4180    4.5680   14.2610 C.3   401  NAP401      0.2309
     34  O2D        2.0410    4.6220   12.8840 O.3   401  NAP401     -0.2158
     35  C1D        3.0600    3.2610   14.7340 C.3   401  NAP401      0.2263
     36  N1N        2.1620    2.2260   15.3090 N.pl3 401  NAP401     -0.2787
     37  C2N        2.1640    0.9250   14.8380 C.3   401  NAP401      0.1244
     38  C3N        1.4000   -0.0780   15.4710 C.2   401  NAP401      0.0544
     39  C7N        1.4270   -1.5100   14.9890 C.2   401  NAP401      0.2818
     40  O7N        0.5860   -2.4710   15.5640 O.2   401  NAP401     -0.2670
     41  N7N        2.2530   -1.8770   14.0100 N.am  401  NAP401     -0.0839
     42  C4N        0.4980    0.2900   16.4890 C.2   401  NAP401      0.0033
     43  C5N        0.6050    1.5610   17.0680 C.2   401  NAP401      0.0157
     44  C6N        1.3270    2.5550   16.3780 C.2   401  NAP401      0.0633
     45  P2B        2.3370   13.8560   24.1330 P.3   401  NAP401      0.5328
     46  O1X        1.3890   12.8610   24.7600 O.3   401  NAP401     -0.1145
     47  O2X        2.9440   14.8390   25.0910 O.3   401  NAP401     -0.1145
     48  O3X        1.7000   14.6390   22.9970 O.2   401  NAP401     -0.2224
@<TRIPOS>BOND
     1    34    33    1
     2    32    31    1
     3    41    39   am
     4    33    31    1
     5    33    35    1
     6    31    29    1
     7    35    36    1
     8    35    30    1
     9    37    36    1
    10    37    38    1
    11    39    38    1
    12    39    40    2
    13    36    44    1
    14    38    42    2
    15    29    30    1
    16    29    28    1
    17    44    43    2
    18    42    43    1
    19    28    27    1
    20    27    24    1
    21    18    17    1
    22    25    24    2
    23    24    23    1
    24    24    26    1
    25    15    14    1
    26    15    16    2
    27    23     1    1
    28    17    16    1
    29    17    19    2
    30    14    13    1
    31    16    22    1
    32     2     1    2
    33    19    20    1
    34     5     4    1
    35     5     6    1
    36     1     4    1
    37     1     3    1
    38    13    22    1
    39    13    12    1
    40    22    21    2
    41     7     6    1
    42     7    12    1
    43    20    21    1
    44     6     8    1
    45    12    10    1
    46    10     8    1
    47    10    11    1
    48     8     9    1
    49    48    45    2
    50    11    45    1
    51    45    46    1
    52    45    47    1
