@<TRIPOS>MOLECULE
3i52_KXN_A_1.pdb
 21 23 0 0 0
SMALL
GASTEIGER

@<TRIPOS>ATOM
      1  O94       -2.4010    8.3870   15.4150 O.3   501  KXN501     -0.2831
      2  C94       -2.2520    7.1460   14.9030 C.ar  501  KXN501      0.2342
      3  C93       -1.4060    6.1740   15.6250 C.ar  501  KXN501      0.2341
      4  O93       -0.8220    6.5180   16.7940 O.3   501  KXN501     -0.2832
      5  C92       -1.2380    4.8990   15.1050 C.ar  501  KXN501      0.0447
      6  C95       -2.8430    6.7670   13.7020 C.ar  501  KXN501      0.0452
      7  C96       -2.6280    5.4720   13.2160 C.ar  501  KXN501      0.0028
      8  C91       -1.8460    4.5340   13.9050 C.ar  501  KXN501      0.0231
      9  C2        -1.6320    3.1670   13.3320 C.3   501  KXN501      0.2186
     10  O1        -0.3080    3.1090   12.7700 O.3   501  KXN501     -0.4722
     11  C3        -1.7380    1.9960   14.3310 C.3   501  KXN501      0.2004
     12  O3        -2.9870    2.0220   15.0440 O.3   501  KXN501     -0.2185
     13  C4        -1.5580    0.6260   13.6480 C.3   501  KXN501      0.0697
     14  C10       -0.5690    0.6750   12.4850 C.ar  501  KXN501      0.0535
     15  C9         0.0470    1.9750   12.0880 C.ar  501  KXN501      0.1413
     16  C8         0.9330    2.0200   11.0190 C.ar  501  KXN501      0.0788
     17  C5        -0.1780   -0.5440   11.6900 C.ar  501  KXN501      0.1979
     18  O51       -0.6760   -1.7860   11.9860 O.3   501  KXN501     -0.2867
     19  C6         0.7280   -0.3940   10.6290 C.ar  501  KXN501      0.0839
     20  C7         1.2710    0.8610   10.3050 C.ar  501  KXN501      0.2019
     21  O71        2.1260    0.9620    9.2420 O.3   501  KXN501     -0.2864
@<TRIPOS>BOND
     1    21    20    1
     2    20    19   ar
     3    20    16   ar
     4    19    17   ar
     5    16    15   ar
     6    17    18    1
     7    17    14   ar
     8    15    14   ar
     9    15    10    1
    10    14    13    1
    11    10     9    1
    12     7     6   ar
    13     7     8   ar
    14     9     8    1
    15     9    11    1
    16    13    11    1
    17     6     2   ar
    18     8     5   ar
    19    11    12    1
    20     2     1    1
    21     2     3   ar
    22     5     3   ar
    23     3     4    1
