@<TRIPOS>MOLECULE
3i53_SAH_A_1.pdb
 26 28 0 0 0
SMALL
GASTEIGER

@<TRIPOS>ATOM
      1  N         16.2010   25.6220  -28.0650 N.3   401  SAH401     -0.1208
      2  CA        15.5540   25.7800  -26.7550 C.3   401  SAH401      0.1952
      3  CB        15.8840   24.5440  -25.9150 C.3   401  SAH401      0.0422
      4  CG        15.0280   24.4660  -24.6520 C.3   401  SAH401      0.0597
      5  SD        15.5580   23.1270  -23.5240 S.3   401  SAH401     -0.1375
      6  C         16.0870   27.0410  -26.0700 C.2   401  SAH401      0.3819
      7  O         17.2000   27.4620  -26.4490 O.co2 401  SAH401     -0.2441
      8  OXT       15.3760   27.5670  -25.1850 O.co2 401  SAH401     -0.2441
      9  C5'       15.4590   21.6150  -24.5520 C.3   401  SAH401      0.0899
     10  C4'       14.1990   21.4840  -25.4130 C.3   401  SAH401      0.1630
     11  O4'       14.1660   20.1410  -25.9260 O.3   401  SAH401     -0.3153
     12  C3'       12.9130   21.6700  -24.6010 C.3   401  SAH401      0.2168
     13  O3'       12.0410   22.5760  -25.2840 O.3   401  SAH401     -0.2175
     14  C2'       12.3050   20.2670  -24.5760 C.3   401  SAH401      0.2569
     15  O2'       10.8790   20.3630  -24.6070 O.3   401  SAH401     -0.2130
     16  C1'       12.7820   19.7660  -25.9370 C.3   401  SAH401      0.3185
     17  N9        12.6200   18.3010  -26.0710 N.pl3 401  SAH401     -0.1439
     18  C8        12.8780   17.3830  -25.1400 C.3   401  SAH401      0.3377
     19  N7        12.6740   16.1690  -25.6460 N.2   401  SAH401     -0.2095
     20  C5        12.2830   16.3090  -26.9100 C.2   401  SAH401      0.2526
     21  C6        11.9830   15.4270  -27.9410 C.2   401  SAH401      0.4393
     22  N6        12.0980   14.1130  -27.7730 N.pl3 401  SAH401      0.2180
     23  N1        11.6490   15.9210  -29.1410 N.2   401  SAH401      0.0021
     24  C2        11.6090   17.2230  -29.3560 C.3   401  SAH401      0.5254
     25  N3        11.8970   18.0900  -28.4020 N.2   401  SAH401     -0.0055
     26  C4        12.2380   17.6690  -27.1760 C.2   401  SAH401      0.3518
@<TRIPOS>BOND
     1    24    23    1
     2    24    25    1
     3    23    21    2
     4    25    26    2
     5     1     2    1
     6    21    22    1
     7    21    20    1
     8    26    20    1
     9    26    17    1
    10    20    19    2
    11     2     6    1
    12     2     3    1
    13     7     6   ar
    14    17    16    1
    15    17    18    1
    16     6     8   ar
    17    16    11    1
    18    16    14    1
    19    11    10    1
    20     3     4    1
    21    19    18    1
    22    10    12    1
    23    10     9    1
    24    13    12    1
    25     4     5    1
    26    15    14    1
    27    12    14    1
    28     9     5    1
