@<TRIPOS>MOLECULE
3i54_CMP_A_1.pdb
 22 25 0 0 0
SMALL
GASTEIGER

@<TRIPOS>ATOM
      1  P         -5.9410   19.6300    8.8300 P.3   301  CMP301      0.2141
      2  O1P       -7.2150   19.2290    8.2030 O.3   301  CMP301     -0.4373
      3  O2P       -4.7470   19.8820    7.9510 O.2   301  CMP301     -0.5172
      4  O5'       -6.3520   20.9320    9.6290 O.3   301  CMP301     -0.3114
      5  C5'       -7.3450   20.8010   10.6820 C.3   301  CMP301      0.1812
      6  C4'       -6.8200   19.7990   11.6970 C.3   301  CMP301      0.1793
      7  O4'       -7.7250   19.4690   12.7580 O.3   301  CMP301     -0.3136
      8  C3'       -6.5770   18.4520   11.0220 C.3   301  CMP301      0.1884
      9  O3'       -5.5420   18.5850   10.0360 O.3   301  CMP301     -0.3111
     10  C2'       -6.4490   17.5590   12.2500 C.3   301  CMP301      0.2541
     11  O2'       -5.1180   17.5600   12.7420 O.3   301  CMP301     -0.2131
     12  C1'       -7.4330   18.1740   13.2360 C.3   301  CMP301      0.3185
     13  N9        -8.6930   17.3750   13.2690 N.pl3 301  CMP301     -0.1439
     14  C8        -9.7100   17.4400   12.3730 C.3   301  CMP301      0.3377
     15  N7       -10.6840   16.5470   12.6830 N.2   301  CMP301     -0.2095
     16  C5       -10.3080   15.9400   13.8410 C.2   301  CMP301      0.2526
     17  C6       -10.8790   14.9080   14.7350 C.2   301  CMP301      0.4393
     18  N6       -12.0780   14.3600   14.4440 N.pl3 301  CMP301      0.2180
     19  N1       -10.1850   14.5210   15.8240 N.2   301  CMP301      0.0021
     20  C2        -8.9600   15.0670   16.1150 C.3   301  CMP301      0.5254
     21  N3        -8.3970   16.0240   15.3440 N.2   301  CMP301     -0.0055
     22  C4        -8.9980   16.4720   14.2150 C.2   301  CMP301      0.3518
@<TRIPOS>BOND
     1     3     1    2
     2     2     1    1
     3     1     4    1
     4     1     9    1
     5     4     5    1
     6     9     8    1
     7     5     6    1
     8     8     6    1
     9     8    10    1
    10     6     7    1
    11    10    11    1
    12    10    12    1
    13    14    15    1
    14    14    13    1
    15    15    16    2
    16     7    12    1
    17    12    13    1
    18    13    22    1
    19    16    22    1
    20    16    17    1
    21    22    21    2
    22    18    17    1
    23    17    19    2
    24    21    20    1
    25    19    20    1
