@<TRIPOS>MOLECULE
3i58_SAH_A_1.pdb
 26 28 0 0 0
SMALL
GASTEIGER

@<TRIPOS>ATOM
      1  N        -50.0190   13.6850  -33.9520 N.3   401  SAH401     -0.1208
      2  CA       -49.8690   13.5020  -32.5010 C.3   401  SAH401      0.1952
      3  CB       -48.6380   14.2750  -32.0230 C.3   401  SAH401      0.0422
      4  CG       -48.2380   13.8400  -30.6130 C.3   401  SAH401      0.0597
      5  SD       -46.8950   14.8410  -29.8750 S.3   401  SAH401     -0.1375
      6  C        -51.1180   14.0010  -31.7670 C.2   401  SAH401      0.3819
      7  O        -51.5290   13.3150  -30.8070 O.co2 401  SAH401     -0.2441
      8  OXT      -51.6440   15.0580  -32.1790 O.co2 401  SAH401     -0.2441
      9  C5'      -45.5660   14.7680  -31.1310 C.3   401  SAH401      0.0899
     10  C4'      -45.2240   13.3760  -31.6670 C.3   401  SAH401      0.1630
     11  O4'      -43.9610   13.4850  -32.3470 O.3   401  SAH401     -0.3153
     12  C3'      -45.0260   12.3290  -30.5650 C.3   401  SAH401      0.2168
     13  O3'      -45.6880   11.1190  -30.9420 O.3   401  SAH401     -0.2175
     14  C2'      -43.5120   12.1130  -30.5640 C.3   401  SAH401      0.2569
     15  O2'      -43.2170   10.7630  -30.1950 O.3   401  SAH401     -0.2130
     16  C1'      -43.2560   12.2690  -32.0610 C.3   401  SAH401      0.3185
     17  N9       -41.8120   12.4250  -32.3400 N.pl3 401  SAH401     -0.1439
     18  C8       -40.9340   13.0960  -31.5970 C.3   401  SAH401      0.3377
     19  N7       -39.7500   13.1080  -32.2040 N.2   401  SAH401     -0.2095
     20  C5       -39.8700   12.4320  -33.3440 C.2   401  SAH401      0.2526
     21  C6       -39.0110   12.1430  -34.3960 C.2   401  SAH401      0.4393
     22  N6       -37.7550   12.5800  -34.3920 N.pl3 401  SAH401      0.2180
     23  N1       -39.4760   11.4400  -35.4380 N.2   401  SAH401      0.0021
     24  C2       -40.7300   11.0230  -35.4760 C.3   401  SAH401      0.5254
     25  N3       -41.5770   11.2850  -34.4970 N.2   401  SAH401     -0.0055
     26  C4       -41.1820   11.9870  -33.4260 C.2   401  SAH401      0.3518
@<TRIPOS>BOND
     1    24    23    1
     2    24    25    1
     3    23    21    2
     4    25    26    2
     5    21    22    1
     6    21    20    1
     7     1     2    1
     8    26    20    1
     9    26    17    1
    10    20    19    2
    11     2     3    1
    12     2     6    1
    13    11    16    1
    14    11    10    1
    15    17    16    1
    16    17    18    1
    17    19    18    1
    18     8     6   ar
    19    16    14    1
    20     3     4    1
    21     6     7   ar
    22    10     9    1
    23    10    12    1
    24     9     5    1
    25    13    12    1
    26     4     5    1
    27    12    14    1
    28    14    15    1
