@<TRIPOS>MOLECULE
3i58_7NA_A_1.pdb
 17 18 0 0 0
SMALL
GASTEIGER

@<TRIPOS>ATOM
      1  C1A      -50.6630   19.8520  -28.2000 C.3   402  7NA402      0.2525
      2  C1B      -46.1850   18.6660  -24.5340 C.3   402  7NA402      0.0311
      3  O1C      -52.4320   20.2680  -24.9540 O.co2 402  7NA402     -0.2404
      4  O1D      -52.9250   20.5500  -22.8210 O.co2 402  7NA402     -0.2404
      5  O1E      -51.1420   20.6400  -21.1050 O.3   402  7NA402     -0.2863
      6  C1F      -48.9360   19.9560  -21.6730 C.ar  402  7NA402      0.0422
      7  C1G      -48.0190   19.5290  -22.6270 C.ar  402  7NA402      0.0030
      8  C1H      -47.8790   18.8330  -26.2350 C.ar  402  7NA402      0.0326
      9  C1I      -50.1150   19.4960  -25.6450 C.ar  402  7NA402      0.0372
     10  O1J      -49.5740   18.9710  -27.9040 O.3   402  7NA402     -0.4714
     11  C1K      -52.1140   20.3170  -23.7450 C.2   402  7NA402      0.3909
     12  C1L      -47.4910   18.9640  -24.9060 C.ar  402  7NA402     -0.0188
     13  C1M      -49.1920   19.1010  -26.6050 C.ar  402  7NA402      0.1384
     14  C1N      -50.2500   20.2200  -22.0430 C.ar  402  7NA402      0.2020
     15  C1O      -50.6530   20.0590  -23.3640 C.ar  402  7NA402      0.1186
     16  C1P      -48.4160   19.3700  -23.9500 C.ar  402  7NA402     -0.0033
     17  C1Q      -49.7310   19.6350  -24.3160 C.ar  402  7NA402      0.0122
@<TRIPOS>BOND
     1     1    10    1
     2    10    13    1
     3    13     8   ar
     4    13     9   ar
     5     8    12   ar
     6     9    17   ar
     7     3    11   ar
     8    12     2    1
     9    12    16   ar
    10    17    16   ar
    11    17    15   ar
    12    16     7   ar
    13    11    15    1
    14    11     4   ar
    15    15    14   ar
    16     7     6   ar
    17    14     6   ar
    18    14     5    1
