@<TRIPOS>MOLECULE
3i59_N6R_A_1.pdb
 31 35 0 0 0
SMALL
GASTEIGER

@<TRIPOS>ATOM
      1  C5H       -5.3320   23.7490  -22.0450 C.ar  301  N6R301     -0.0041
      2  C5F       -6.3230   24.8950  -21.6200 C.ar  301  N6R301     -0.0003
      3  C5E       -6.2210   26.3040  -22.2920 C.ar  301  N6R301     -0.0000
      4  C5G       -5.1020   26.6000  -23.4350 C.ar  301  N6R301     -0.0003
      5  C5I       -4.1100   25.4530  -23.8580 C.ar  301  N6R301     -0.0041
      6  C5U       -4.2110   24.0480  -23.1820 C.ar  301  N6R301     -0.0180
      7  C5M       -3.2160   22.9180  -23.5720 C.3   301  N6R301      0.0772
      8  C5Y       -3.7650   22.1140  -24.7910 C.3   301  N6R301      0.2095
      9  C5A       -3.4670   22.9570  -26.0390 C.3   301  N6R301      0.0555
     10  N6        -2.9900   20.8560  -24.8720 N.pl3 301  N6R301     -0.0341
     11  C6        -3.3340   19.6630  -24.0550 C.2   301  N6R301      0.3854
     12  N1        -4.7130   19.2450  -23.8440 N.2   301  N6R301     -0.0020
     13  C2        -5.0520   17.9040  -23.0280 C.3   301  N6R301      0.5253
     14  N3        -3.9100   17.0570  -22.4620 N.2   301  N6R301     -0.0055
     15  C4        -2.4940   17.4780  -22.6790 C.2   301  N6R301      0.3517
     16  C5        -2.1700   18.7730  -23.4590 C.2   301  N6R301      0.2478
     17  N7        -0.6910   18.9440  -23.4950 N.2   301  N6R301     -0.2097
     18  C8        -0.0520   17.7410  -22.7170 C.3   301  N6R301      0.3377
     19  N9        -1.1630   16.8670  -22.2240 N.pl3 301  N6R301     -0.1439
     20  C1S       -1.0120   15.5880  -21.5100 C.3   301  N6R301      0.3185
     21  O4S        0.0790   15.7830  -20.5620 O.3   301  N6R301     -0.3136
     22  C4S        1.2870   15.4530  -21.3300 C.3   301  N6R301      0.1793
     23  C5S        2.5310   15.1270  -20.4430 C.3   301  N6R301      0.1812
     24  O5S        3.5500   14.4120  -21.1830 O.3   301  N6R301     -0.3114
     25  P5         3.2340   13.8380  -22.7830 P.3   301  N6R301      0.2141
     26  O5D        3.7350   15.1000  -23.7130 O.2   301  N6R301     -0.5172
     27  O5B        3.8700   12.5450  -22.9790 O.3   301  N6R301     -0.4373
     28  O3S        1.7460   13.7320  -23.1400 O.3   301  N6R301     -0.3111
     29  C3S        0.8640   14.1600  -22.0860 C.3   301  N6R301      0.1884
     30  C2S       -0.5460   14.4890  -22.5250 C.3   301  N6R301      0.2541
     31  O2S       -1.2340   13.3010  -22.2660 O.3   301  N6R301     -0.2131
@<TRIPOS>BOND
     1     9     8    1
     2    10     8    1
     3    10    11    1
     4     8     7    1
     5    11    12    2
     6    11    16    1
     7     5     4   ar
     8     5     6   ar
     9    12    13    1
    10    26    25    2
    11     7     6    1
    12    17    16    2
    13    17    18    1
    14    16    15    1
    15     4     3   ar
    16     6     1   ar
    17    28    25    1
    18    28    29    1
    19    13    14    1
    20    27    25    1
    21    25    24    1
    22    18    19    1
    23    15    14    2
    24    15    19    1
    25    30    31    1
    26    30    29    1
    27    30    20    1
    28     3     2   ar
    29    19    20    1
    30    29    22    1
    31     1     2   ar
    32    20    21    1
    33    22    21    1
    34    22    23    1
    35    24    23    1
