@<TRIPOS>MOLECULE
3i59_N6S_B_1.pdb
 31 35 0 0 0
SMALL
GASTEIGER

@<TRIPOS>ATOM
      1  C5H       -2.2070   28.6890  -34.1000 C.ar  301  N6S301     -0.0041
      2  C5F       -1.1840   29.4550  -33.1770 C.ar  301  N6S301     -0.0003
      3  C5E       -1.1410   29.1480  -31.6500 C.ar  301  N6S301     -0.0000
      4  C5G       -2.1370   28.0410  -31.0030 C.ar  301  N6S301     -0.0003
      5  C5I       -3.1640   27.2770  -31.9200 C.ar  301  N6S301     -0.0041
      6  C5U       -3.2050   27.5840  -33.4490 C.ar  301  N6S301     -0.0180
      7  C5M       -4.2120   26.8180  -34.3610 C.3   301  N6S301      0.0772
      8  C5Y       -4.7510   25.5530  -33.6040 C.3   301  N6S301      0.2095
      9  C5A       -3.6750   24.4580  -33.4380 C.3   301  N6S301      0.0555
     10  N6        -5.8540   25.0010  -34.4000 N.pl3 301  N6S301     -0.0341
     11  C6        -5.6070   24.3320  -35.6840 C.2   301  N6S301      0.3854
     12  N1        -4.3380   24.4160  -36.3690 N.2   301  N6S301     -0.0020
     13  C2        -4.1200   23.7520  -37.7890 C.3   301  N6S301      0.5253
     14  N3        -5.2790   23.0120  -38.4300 N.2   301  N6S301     -0.0055
     15  C4        -6.5950   22.9260  -37.7220 C.2   301  N6S301      0.3517
     16  C5        -6.8010   23.5710  -36.3480 C.2   301  N6S301      0.2478
     17  N7        -8.1930   23.3320  -35.8790 N.2   301  N6S301     -0.2097
     18  C8        -8.8910   22.5010  -36.9920 C.3   301  N6S301      0.3377
     19  N9        -7.9140   22.2620  -38.0930 N.pl3 301  N6S301     -0.1439
     20  C1S       -8.1570   21.5570  -39.3720 C.3   301  N6S301      0.3185
     21  O4S       -9.3180   22.2000  -39.9930 O.3   301  N6S301     -0.3136
     22  C4S      -10.4130   21.4610  -39.3480 C.3   301  N6S301      0.1793
     23  C5S      -11.8150   21.7160  -39.9950 C.3   301  N6S301      0.1812
     24  O5S      -12.6280   20.5170  -40.0480 O.3   301  N6S301     -0.3114
     25  P5       -12.2360   19.2570  -38.9470 P.3   301  N6S301      0.2141
     26  O5D      -12.9030   18.0260  -39.3070 O.2   301  N6S301     -0.5172
     27  O5B      -12.6900   19.8560  -37.4800 O.3   301  N6S301     -0.4373
     28  O3S      -10.7300   19.0630  -38.7580 O.3   301  N6S301     -0.3111
     29  C3S       -9.9520   19.9840  -39.5300 C.3   301  N6S301      0.1884
     30  C2S       -8.4940   20.0510  -39.1380 C.3   301  N6S301      0.2541
     31  O2S       -7.7740   19.2670  -40.0640 O.3   301  N6S301     -0.2131
@<TRIPOS>BOND
     1    31    30    1
     2    24    23    1
     3    24    25    1
     4    23    22    1
     5    21    20    1
     6    21    22    1
     7    29    22    1
     8    29    30    1
     9    29    28    1
    10    20    30    1
    11    20    19    1
    12    26    25    2
    13    25    28    1
    14    25    27    1
    15    14    13    1
    16    14    15    2
    17    19    15    1
    18    19    18    1
    19    13    12    1
    20    15    16    1
    21    18    17    1
    22    12    11    2
    23    16    17    2
    24    16    11    1
    25    11    10    1
    26    10     8    1
    27     7     8    1
    28     7     6    1
    29     1     6   ar
    30     1     2   ar
    31     8     9    1
    32     6     5   ar
    33     2     3   ar
    34     5     4   ar
    35     3     4   ar
