@<TRIPOS>MOLECULE
3i5a_C2E_A_1.pdb
 46 52 0 0 0
SMALL
GASTEIGER

@<TRIPOS>ATOM
      1  P1        35.9350   -9.5790   16.2410 P.3   335  C2E335      0.2141
      2  O2P       36.1940  -10.7420   17.0640 O.3   335  C2E335     -0.4373
      3  O1P       34.5870   -8.7750   16.7370 O.2   335  C2E335     -0.5172
      4  O5'       35.2230  -10.2440   14.7440 O.3   335  C2E335     -0.3114
      5  C5'       36.0550   -9.9440   13.7280 C.3   335  C2E335      0.1812
      6  C4'       35.5840  -10.5640   12.3940 C.3   335  C2E335      0.1771
      7  O4'       34.3250  -11.3210   12.4370 O.3   335  C2E335     -0.3327
      8  C3'       35.3760   -9.3660   11.5470 C.3   335  C2E335      0.1857
      9  O3'       36.6590   -9.1190   11.0160 O.3   335  C2E335     -0.3112
     10  C2'       34.2510   -9.7830   10.5680 C.3   335  C2E335      0.2282
     11  O2'       34.6050  -10.2910    9.2940 O.3   335  C2E335     -0.2159
     12  C1'       33.3960  -10.6140   11.5660 C.3   335  C2E335      0.2292
     13  N9        32.5310   -9.7080   12.3180 N.pl3 335  C2E335     -0.2354
     14  C8        32.4480   -9.4840   13.7260 C.3   335  C2E335      0.2246
     15  N7        31.2320   -8.6770   13.9370 N.2   335  C2E335     -0.2322
     16  C5        30.6040   -8.4420   12.6480 C.2   335  C2E335      0.2182
     17  C6        29.4280   -7.7630   12.2740 C.1   335  C2E335      0.2372
     18  O6        28.6030   -7.1660   13.2490 O.2   335  C2E335     -0.2069
     19  N1        29.0670   -7.6960   10.8820 N.2   335  C2E335     -0.2485
     20  C2        29.8430   -8.2840    9.9220 C.1   335  C2E335      0.2531
     21  N2        29.4800   -8.2290    8.5070 N.pl3 335  C2E335     -0.0226
     22  N3        31.0280   -8.9600   10.3060 N.2   335  C2E335     -0.3074
     23  C4        31.3820   -9.0240   11.6750 C.2   335  C2E335      0.2300
     24  P11       37.4710   -7.9590   11.4090 P.3   335  C2E335      0.2141
     25  O21       36.5620   -6.7470   10.7240 O.3   335  C2E335     -0.4373
     26  O11       38.6910   -8.1920   10.6460 O.2   335  C2E335     -0.5172
     27  O5A       38.0940   -7.1040   12.7730 O.3   335  C2E335     -0.3114
     28  C5A       38.4830   -7.9690   13.9730 C.3   335  C2E335      0.1812
     29  C4A       38.6230   -7.0750   15.2180 C.3   335  C2E335      0.1771
     30  O4A       38.7070   -5.6380   15.0090 O.3   335  C2E335     -0.3327
     31  C3A       37.1440   -7.2260   16.0220 C.3   335  C2E335      0.1857
     32  O3A       37.0630   -8.5030   16.7500 O.3   335  C2E335     -0.3112
     33  C2A       37.2490   -5.9600   16.9120 C.3   335  C2E335      0.2282
     34  O2A       37.8360   -6.0730   18.1870 O.3   335  C2E335     -0.2159
     35  C1A       37.8490   -4.9560   15.9310 C.3   335  C2E335      0.2292
     36  N91       36.7490   -4.2400   15.2060 N.pl3 335  C2E335     -0.2354
     37  C81       36.3900   -4.3040   13.7830 C.3   335  C2E335      0.2246
     38  N71       35.3450   -3.2880   13.5680 N.2   335  C2E335     -0.2322
     39  C51       34.8590   -2.8760   14.8760 C.2   335  C2E335      0.2182
     40  C61       33.7890   -2.0790   15.2530 C.1   335  C2E335      0.2372
     41  O61       32.9570   -1.5140   14.2660 O.2   335  C2E335     -0.2069
     42  N11       33.5300   -1.8220   16.6660 N.2   335  C2E335     -0.2485
     43  C21       34.3480   -2.3640   17.6340 C.1   335  C2E335      0.2531
     44  N21       34.0880   -2.1070   19.0450 N.pl3 335  C2E335     -0.0226
     45  N31       35.4580   -3.1840   17.2510 N.2   335  C2E335     -0.3074
     46  C41       35.6980   -3.4320   15.8840 C.2   335  C2E335      0.2300
@<TRIPOS>BOND
     1    21    20    1
     2    11    10    1
     3    20    22    2
     4    20    19    2
     5    22    23    2
     6    10     8    1
     7    10    12    1
     8    26    24    2
     9    25    24    1
    10    19    17    2
    11     9    24    1
    12     9     8    1
    13    24    27    1
    14     8     6    1
    15    12    13    1
    16    12     7    1
    17    23    13    1
    18    23    16    1
    19    17    16    1
    20    17    18    2
    21    13    14    1
    22     6     7    1
    23     6     5    1
    24    16    15    2
    25    27    28    1
    26    38    37    1
    27    38    39    2
    28    14    15    1
    29     5     4    1
    30    37    36    1
    31    28    29    1
    32    41    40    2
    33     4     1    1
    34    39    40    1
    35    39    46    1
    36    30    29    1
    37    30    35    1
    38    36    46    1
    39    36    35    1
    40    29    31    1
    41    40    42    2
    42    46    45    2
    43    35    33    1
    44    31    32    1
    45    31    33    1
    46     1     3    2
    47     1    32    1
    48     1     2    1
    49    42    43    2
    50    33    34    1
    51    45    43    2
    52    43    44    1
