@<TRIPOS>MOLECULE
3i5c_C2E_A_1.pdb
 46 52 0 0 0
SMALL
GASTEIGER

@<TRIPOS>ATOM
      1  P1        39.2310    0.4450  -36.4810 P.3     1  C2E1        0.2141
      2  O2P       39.5300   -1.1010  -36.7260 O.2     1  C2E1       -0.5172
      3  O1P       40.4670    1.2330  -36.5090 O.3     1  C2E1       -0.4373
      4  O5'       38.5010    0.6040  -35.0470 O.3     1  C2E1       -0.3114
      5  C5'       37.3980   -0.2320  -34.6940 C.3     1  C2E1        0.1812
      6  C4'       36.6670    0.3860  -33.4970 C.3     1  C2E1        0.1771
      7  O4'       37.5970    0.5970  -32.4330 O.3     1  C2E1       -0.3327
      8  C3'       36.1560    1.7850  -33.8580 C.3     1  C2E1        0.1857
      9  O3'       34.8710    1.7590  -34.4650 O.3     1  C2E1       -0.3112
     10  C2'       36.0810    2.4450  -32.4730 C.3     1  C2E1        0.2282
     11  O2'       34.9120    1.9370  -31.8260 O.3     1  C2E1       -0.2159
     12  C1'       37.2800    1.8170  -31.7670 C.3     1  C2E1        0.2292
     13  N9        38.4160    2.7360  -31.7890 N.pl3   1  C2E1       -0.2354
     14  C8        39.6270    2.5710  -32.4110 C.3     1  C2E1        0.2246
     15  N7        40.4650    3.4670  -31.9790 N.2     1  C2E1       -0.2322
     16  C5        39.8260    4.2750  -31.0890 C.2     1  C2E1        0.2182
     17  C6        40.2020    5.3760  -30.2900 C.1     1  C2E1        0.2372
     18  O6        41.3450    5.7890  -30.2740 O.2     1  C2E1       -0.2069
     19  N1        39.2680    5.9330  -29.4830 N.2     1  C2E1       -0.2485
     20  C2        38.0020    5.4480  -29.4350 C.1     1  C2E1        0.2531
     21  N2        37.1080    6.0330  -28.5700 N.pl3   1  C2E1       -0.0226
     22  N3        37.6260    4.4230  -30.1660 N.2     1  C2E1       -0.3074
     23  C4        38.5070    3.8240  -30.9790 C.2     1  C2E1        0.2300
     24  P11       34.3820    2.9760  -35.3820 P.3     1  C2E1        0.2141
     25  O21       32.9390    2.6230  -35.9520 O.2     1  C2E1       -0.5172
     26  O11       34.3910    4.2540  -34.6300 O.3     1  C2E1       -0.4373
     27  O5A       35.3820    3.1390  -36.6270 O.3     1  C2E1       -0.3114
     28  C5A       35.3760    2.1520  -37.6620 C.3     1  C2E1        0.1812
     29  C4A       36.5460    2.4240  -38.5960 C.3     1  C2E1        0.1771
     30  O4A       36.5700    3.7730  -39.0670 O.3     1  C2E1       -0.3327
     31  C3A       37.8560    2.2860  -37.8240 C.3     1  C2E1        0.1857
     32  O3A       38.1730    0.9160  -37.5910 O.3     1  C2E1       -0.3112
     33  C2A       38.8150    2.9600  -38.8200 C.3     1  C2E1        0.2282
     34  O2A       39.1150    2.0950  -39.9240 O.3     1  C2E1       -0.2159
     35  C1A       37.9460    4.1540  -39.2240 C.3     1  C2E1        0.2292
     36  N91       38.2590    5.1940  -38.2290 N.pl3   1  C2E1       -0.2354
     37  C81       37.3940    5.7420  -37.3190 C.3     1  C2E1        0.2246
     38  N71       37.8830    6.8650  -36.8850 N.2     1  C2E1       -0.2322
     39  C51       39.1540    7.0160  -37.3460 C.2     1  C2E1        0.2182
     40  C61       40.1710    7.9810  -37.1650 C.1     1  C2E1        0.2372
     41  O61       40.0580    8.9600  -36.4170 O.2     1  C2E1       -0.2069
     42  N11       41.3120    7.8030  -37.8560 N.2     1  C2E1       -0.2485
     43  C21       41.4850    6.7460  -38.7050 C.1     1  C2E1        0.2531
     44  N21       42.6640    6.6470  -39.3930 N.pl3   1  C2E1       -0.0226
     45  N31       40.5560    5.8470  -38.8930 N.2     1  C2E1       -0.3074
     46  C41       39.3950    5.9430  -38.2260 C.2     1  C2E1        0.2300
@<TRIPOS>BOND
     1    34    33    1
     2    44    43    1
     3    35    30    1
     4    35    33    1
     5    35    36    1
     6    30    29    1
     7    45    43    2
     8    45    46    2
     9    33    31    1
    10    43    42    2
    11    29    31    1
    12    29    28    1
    13    36    46    1
    14    36    37    1
    15    46    39    1
    16    42    40    2
    17    31    32    1
    18    28    27    1
    19    32     1    1
    20    39    40    1
    21    39    38    2
    22    37    38    1
    23    40    41    2
    24     2     1    2
    25    27    24    1
    26     3     1    1
    27     1     4    1
    28    25    24    2
    29    24    26    1
    30    24     9    1
    31     4     5    1
    32     5     6    1
    33     9     8    1
    34     8     6    1
    35     8    10    1
    36     6     7    1
    37    10    11    1
    38    10    12    1
    39     7    12    1
    40    14    15    1
    41    14    13    1
    42    15    16    2
    43    13    12    1
    44    13    23    1
    45    16    23    1
    46    16    17    1
    47    23    22    2
    48    17    18    2
    49    17    19    2
    50    22    20    2
    51    19    20    2
    52    20    21    1
