@<TRIPOS>MOLECULE
3i5f_ADP_A_1.pdb
 27 29 0 0 0
SMALL
GASTEIGER

@<TRIPOS>ATOM
      1  PB        17.6230  -10.3480   71.8580 P.3   1002  ADP1002     0.5373
      2  O1B       18.7400  -10.0130   70.9440 O.2   1002  ADP1002    -0.2221
      3  O2B       16.2180  -10.3350   71.0670 O.3   1002  ADP1002    -0.1143
      4  O3B       17.8600  -11.6770   72.5310 O.3   1002  ADP1002    -0.1143
      5  PA        16.1740   -8.5490   73.5900 P.3   1002  ADP1002     0.2231
      6  O1A       15.5900   -7.6170   72.6580 O.2   1002  ADP1002    -0.5169
      7  O2A       15.1920   -9.5830   73.9140 O.3   1002  ADP1002    -0.4370
      8  O3A       17.4430   -9.1970   72.9630 O.3   1002  ADP1002    -0.2261
      9  O5'       16.5650   -7.8200   74.9420 O.3   1002  ADP1002    -0.3111
     10  C5'       17.8010   -7.6610   75.6770 C.3   1002  ADP1002     0.1813
     11  C4'       17.3720   -6.8160   76.9650 C.3   1002  ADP1002     0.1821
     12  O4'       17.5920   -5.4410   76.6740 O.3   1002  ADP1002    -0.3135
     13  C3'       15.8860   -6.9090   77.3960 C.3   1002  ADP1002     0.2184
     14  O3'       15.7430   -7.1420   78.8000 O.3   1002  ADP1002    -0.2174
     15  C2'       15.2440   -5.5720   76.9880 C.3   1002  ADP1002     0.2570
     16  O2'       14.2560   -5.1620   77.9430 O.3   1002  ADP1002    -0.2130
     17  C1'       16.4340   -4.6180   76.8650 C.3   1002  ADP1002     0.3186
     18  N9        16.4390   -3.6510   75.6900 N.pl3 1002  ADP1002    -0.1439
     19  C8        17.1890   -3.8300   74.5810 C.3   1002  ADP1002     0.3377
     20  N7        17.0360   -2.8240   73.7320 N.2   1002  ADP1002    -0.2095
     21  C5        16.1800   -1.9910   74.2620 C.2   1002  ADP1002     0.2526
     22  C6        15.6520   -0.7300   73.8110 C.2   1002  ADP1002     0.4393
     23  N6        16.0100   -0.2120   72.6380 N.pl3 1002  ADP1002     0.2180
     24  N1        14.7520   -0.0760   74.6320 N.2   1002  ADP1002     0.0021
     25  C2        14.3470   -0.5730   75.8560 C.3   1002  ADP1002     0.5254
     26  N3        14.8730   -1.7650   76.2750 N.2   1002  ADP1002    -0.0055
     27  C4        15.7710   -2.4790   75.5090 C.2   1002  ADP1002     0.3518
@<TRIPOS>BOND
     1     2     1    2
     2     3     1    1
     3     1     4    1
     4     1     8    1
     5    23    22    1
     6     6     5    2
     7     8     5    1
     8     5     7    1
     9     5     9    1
    10    20    21    2
    11    20    19    1
    12    22    21    1
    13    22    24    2
    14    21    27    1
    15    19    18    1
    16    24    25    1
    17     9    10    1
    18    27    18    1
    19    27    26    2
    20    10    11    1
    21    18    17    1
    22    25    26    1
    23    12    17    1
    24    12    11    1
    25    17    15    1
    26    11    13    1
    27    15    13    1
    28    15    16    1
    29    13    14    1
