@<TRIPOS>MOLECULE
3i5n_B2D_A_1.pdb
 29 33 0 0 0
SMALL
GASTEIGER

@<TRIPOS>ATOM
      1  N1        19.7420   13.7030   56.9300 N.ar    1  B2D1       -0.1932
      2  N3        20.7950   15.6250   56.7240 N.ar    1  B2D1       -0.1272
      3  C4        19.8090   15.0190   57.3880 C.ar    1  B2D1        0.1864
      4  C5        17.0950   12.2850   58.8010 C.ar    1  B2D1        0.0194
      5  C6        15.9950   12.6990   59.5600 C.ar    1  B2D1        0.0016
      6  C7        15.0780   11.7690   60.0430 C.ar    1  B2D1        0.0000
      7  C8        15.2590   10.4130   59.7710 C.ar    1  B2D1        0.0000
      8  C10       17.2690   10.9250   58.5310 C.ar    1  B2D1        0.0016
      9  C13       22.0310   10.7830   56.8120 C.2     1  B2D1        0.0968
     10  C15       24.2690   10.9030   57.7070 C.2     1  B2D1        0.1001
     11  C17       21.8100    9.6880   57.6450 C.2     1  B2D1        0.1125
     12  C20       20.3620    8.0410   58.4140 C.2     1  B2D1        0.1315
     13  C21       21.9440    5.9680   61.0100 C.3     1  B2D1        0.2521
     14  O1        20.9740    6.4450   60.0500 O.2     1  B2D1       -0.4737
     15  C19       21.3270    7.5260   59.2800 C.2     1  B2D1        0.1412
     16  C18       22.5870    8.1330   59.3180 C.3     1  B2D1        0.1128
     17  N7        20.6130    9.0800   57.6350 N.2     1  B2D1       -0.2383
     18  C16       22.8320    9.2290   58.4850 C.2     1  B2D1        0.0856
     19  N6        24.0280    9.8520   58.4900 N.2     1  B2D1       -0.2461
     20  C14       23.2870   11.3940   56.8420 C.2     1  B2D1        0.0409
     21  N5        21.0340   11.1950   56.0110 N.2     1  B2D1       -0.2605
     22  C12       21.1030   12.3970   55.1610 C.3     1  B2D1        0.1926
     23  C11       20.7620   13.6490   55.9760 C.ar    1  B2D1        0.1882
     24  N2        18.9140   12.8890   57.3670 N.ar    1  B2D1       -0.1626
     25  N4        21.3370   14.8530   55.9210 N.ar    1  B2D1       -0.1295
     26  C3        18.9250   15.4470   58.3700 C.ar    1  B2D1        0.0422
     27  C2        18.0070   14.5210   58.8470 C.ar    1  B2D1        0.0241
     28  C1        18.0140   13.2240   58.3220 C.ar    1  B2D1        0.1015
     29  C9        16.3540    9.9920   59.0150 C.ar    1  B2D1        0.0000
@<TRIPOS>BOND
     1    22    23    1
     2    22    21    1
     3    25    23   ar
     4    25     2   ar
     5    23     1   ar
     6    21     9    2
     7     2     3   ar
     8     9    20    1
     9     9    11    1
    10    20    10    2
    11     1    24   ar
    12     1     3   ar
    13    24    28   ar
    14     3    26   ar
    15    17    11    2
    16    17    12    1
    17    11    18    1
    18    10    19    1
    19    28     4    1
    20    28    27   ar
    21    26    27   ar
    22    12    15    2
    23    18    19    2
    24    18    16    1
    25     8     4   ar
    26     8    29   ar
    27     4     5   ar
    28    29     7   ar
    29    15    16    1
    30    15    14    1
    31     5     6   ar
    32     7     6   ar
    33    14    13    1
