@<TRIPOS>MOLECULE
3i5o_BGC_A_1.pdb
 12 12 0 0 0
SMALL
GASTEIGER

@<TRIPOS>ATOM
      1  C2        32.3640   36.2380  115.1490 C.3   2241  BGC2241     0.2434
      2  C3        31.4820   36.8380  114.0750 C.3   2241  BGC2241     0.2199
      3  C4        30.5570   37.9210  114.6210 C.3   2241  BGC2241     0.2144
      4  C5        31.0630   38.7260  115.8120 C.3   2241  BGC2241     0.1836
      5  C6        29.8860   39.2620  116.6220 C.3   2241  BGC2241     0.2142
      6  C1        32.9780   37.3370  115.9860 C.3   2241  BGC2241     0.3024
      7  O1        33.8500   36.7130  116.9270 O.3   2241  BGC2241    -0.1869
      8  O2        33.4010   35.4850  114.5190 O.3   2241  BGC2241    -0.2148
      9  O3        30.7020   35.7780  113.5140 O.3   2241  BGC2241    -0.2174
     10  O4        30.3530   38.8640  113.5600 O.3   2241  BGC2241    -0.2176
     11  O5        31.8930   37.9540  116.6710 O.3   2241  BGC2241    -0.3236
     12  O6        30.3230   40.4420  117.3040 O.3   2241  BGC2241    -0.2176
@<TRIPOS>BOND
     1     9     2    1
     2    10     3    1
     3     2     3    1
     4     2     1    1
     5     8     1    1
     6     3     4    1
     7     1     6    1
     8     4     5    1
     9     4    11    1
    10     6    11    1
    11     6     7    1
    12     5    12    1
