@<TRIPOS>MOLECULE
3i5t_PLP_A_1.pdb
 16 16 0 0 0
SMALL
GASTEIGER

@<TRIPOS>ATOM
      1  N1         6.2020    6.6170    8.2620 N.ar  474  PLP474     -0.2452
      2  C2         6.2080    6.4990    9.6380 C.ar  474  PLP474      0.0982
      3  C2A        6.6790    7.6550   10.4710 C.3   474  PLP474      0.0555
      4  C3         5.7720    5.3060   10.2320 C.ar  474  PLP474      0.2120
      5  O3         5.7720    5.1500   11.5830 O.3   474  PLP474     -0.2852
      6  C4         5.3300    4.2480    9.4460 C.ar  474  PLP474      0.0822
      7  C4A        4.8600    2.9940   10.1100 C.2   474  PLP474      0.2372
      8  O4A        3.8650    3.0350   10.8250 O.2   474  PLP474     -0.2830
      9  C5         5.3230    4.3810    8.0600 C.ar  474  PLP474      0.0333
     10  C6         5.7550    5.5680    7.4750 C.ar  474  PLP474      0.0969
     11  C5A        4.8370    3.2520    7.1800 C.3   474  PLP474      0.1819
     12  O4P        3.4270    3.2200    7.2360 O.3   474  PLP474     -0.2653
     13  P          2.6320    1.8540    6.9120 P.3   474  PLP474      0.5329
     14  O1P        3.0920    0.7780    7.8610 O.3   474  PLP474     -0.1145
     15  O2P        2.9060    1.4720    5.4850 O.2   474  PLP474     -0.2224
     16  O3P        1.1560    2.0970    7.0680 O.3   474  PLP474     -0.1145
@<TRIPOS>BOND
     1    15    13    2
     2    13    16    1
     3    13    12    1
     4    13    14    1
     5    11    12    1
     6    11     9    1
     7    10     9   ar
     8    10     1   ar
     9     9     6   ar
    10     1     2   ar
    11     6     7    1
    12     6     4   ar
    13     2     4   ar
    14     2     3    1
    15     7     8    2
    16     4     5    1
