@<TRIPOS>MOLECULE
3i5u_SAM_A_1.pdb
 27 29 0 0 0
SMALL
GASTEIGER

@<TRIPOS>ATOM
      1  N         50.2420  -13.8010  -69.7530 N.3   401  SAM401     -0.1208
      2  CA        50.0770  -13.4860  -68.3270 C.3   401  SAM401      0.1952
      3  C         51.3310  -13.8880  -67.5470 C.2   401  SAM401      0.3819
      4  O         51.7380  -13.0870  -66.6770 O.co2 401  SAM401     -0.2441
      5  OXT       51.8580  -14.9850  -67.8370 O.co2 401  SAM401     -0.2441
      6  CB        48.8660  -14.2470  -67.7840 C.3   401  SAM401      0.0414
      7  CG        48.5410  -13.7930  -66.3600 C.3   401  SAM401      0.0503
      8  SD        47.1090  -14.6670  -65.6300 S.3   401  SAM401     -0.1761
      9  CE        47.7350  -16.3330  -65.6430 C.3   401  SAM401      0.0590
     10  C5'       45.7100  -14.8070  -66.8010 C.3   401  SAM401      0.0806
     11  C4'       45.3670  -13.4790  -67.4760 C.3   401  SAM401      0.1622
     12  O4'       44.1160  -13.6300  -68.1700 O.3   401  SAM401     -0.3153
     13  C3'       45.1480  -12.3870  -66.4270 C.3   401  SAM401      0.2168
     14  O3'       45.8600  -11.2070  -66.8060 O.3   401  SAM401     -0.2175
     15  C2'       43.6420  -12.1400  -66.5010 C.3   401  SAM401      0.2569
     16  O2'       43.3780  -10.7670  -66.2030 O.3   401  SAM401     -0.2130
     17  C1'       43.4320  -12.3810  -67.9950 C.3   401  SAM401      0.3185
     18  N9        41.9960  -12.5450  -68.3180 N.pl3 401  SAM401     -0.1439
     19  C8        41.1020  -13.1990  -67.5810 C.3   401  SAM401      0.3377
     20  N7        39.9270  -13.2090  -68.2070 N.2   401  SAM401     -0.2095
     21  C5        40.0720  -12.5530  -69.3550 C.2   401  SAM401      0.2526
     22  C6        39.2290  -12.2680  -70.4200 C.2   401  SAM401      0.4393
     23  N6        37.9650  -12.6810  -70.4160 N.pl3 401  SAM401      0.2180
     24  N1        39.7140  -11.5880  -71.4680 N.2   401  SAM401      0.0021
     25  C2        40.9740  -11.1880  -71.4970 C.3   401  SAM401      0.5254
     26  N3        41.8050  -11.4440  -70.5020 N.2   401  SAM401     -0.0055
     27  C4        41.3900  -12.1230  -69.4230 C.2   401  SAM401      0.3518
@<TRIPOS>BOND
     1    25    24    1
     2    25    26    1
     3    24    22    2
     4    26    27    2
     5    22    23    1
     6    22    21    1
     7     1     2    1
     8    27    21    1
     9    27    18    1
    10    21    20    2
    11     2     6    1
    12     2     3    1
    13    18    17    1
    14    18    19    1
    15    20    19    1
    16    12    17    1
    17    12    11    1
    18    17    15    1
    19     5     3   ar
    20     6     7    1
    21     3     4   ar
    22    11    10    1
    23    11    13    1
    24    14    13    1
    25    10     8    1
    26    15    13    1
    27    15    16    1
    28     7     8    1
    29     9     8    1
