@<TRIPOS>MOLECULE
3i5u_5NA_A_1.pdb
 15 16 0 0 0
SMALL
GASTEIGER

@<TRIPOS>ATOM
      1  C1A       48.0520  -18.3490  -63.0610 C.ar  402  5NA402     -0.0003
      2  C1B       46.9460  -18.1360  -62.2460 C.ar  402  5NA402     -0.0043
      3  C1C       47.0300  -18.4200  -60.8870 C.ar  402  5NA402     -0.0218
      4  C1D       48.2110  -18.9170  -60.3460 C.ar  402  5NA402     -0.0035
      5  C1E       49.3180  -19.1300  -61.1610 C.ar  402  5NA402      0.0092
      6  C1F       49.2340  -18.8430  -62.5200 C.ar  402  5NA402      0.0003
      7  C1G       48.2790  -19.2180  -58.9900 C.ar  402  5NA402      0.0030
      8  C1H       49.4500  -19.7340  -58.4450 C.ar  402  5NA402      0.0422
      9  C1I       50.5570  -19.9470  -59.2590 C.ar  402  5NA402      0.2020
     10  C1J       50.4900  -19.6430  -60.6150 C.ar  402  5NA402      0.1185
     11  O1K       51.7010  -20.4560  -58.7270 O.3   402  5NA402     -0.2863
     12  C1L       51.7260  -19.8550  -61.4910 C.2   402  5NA402      0.3909
     13  O1M       51.6090  -19.6560  -62.7190 O.co2 402  5NA402     -0.2404
     14  O1N       52.7880  -20.2090  -60.9330 O.co2 402  5NA402     -0.2404
     15  C1O       45.9370  -18.1900  -60.0610 C.3   402  5NA402      0.0310
@<TRIPOS>BOND
     1     1     6   ar
     2     1     2   ar
     3    13    12   ar
     4     6     5   ar
     5     2     3   ar
     6    12    14   ar
     7    12    10    1
     8     5    10   ar
     9     5     4   ar
    10     3     4   ar
    11     3    15    1
    12    10     9   ar
    13     4     7   ar
    14     9    11    1
    15     9     8   ar
    16     7     8   ar
