@<TRIPOS>MOLECULE
3i5x_ANP_A_1.pdb
 31 33 0 0 0
SMALL
GASTEIGER

@<TRIPOS>ATOM
      1  PG        70.6490   28.0110   16.6810 P.3   1000  ANP1000     0.4884
      2  O1G       71.5190   27.6990   17.8810 O.3   1000  ANP1000    -0.1240
      3  O2G       69.6500   26.9200   16.3360 O.3   1000  ANP1000    -0.1240
      4  O3G       71.4130   28.5440   15.5040 O.2   1000  ANP1000    -0.2331
      5  PB        69.9770   30.9450   17.1030 P.3   1000  ANP1000     0.4669
      6  O1B       71.0480   31.2500   16.1100 O.2   1000  ANP1000    -0.2351
      7  O2B       70.1620   31.3050   18.5530 O.3   1000  ANP1000    -0.1253
      8  N3B       69.5820   29.2680   17.0950 N.3   1000  ANP1000    -0.0163
      9  PA        68.1810   32.4050   15.4260 P.3   1000  ANP1000     0.2220
     10  O1A       69.1460   33.5720   15.3750 O.3   1000  ANP1000    -0.4370
     11  O2A       68.1080   31.5270   14.1840 O.2   1000  ANP1000    -0.5170
     12  O3A       68.5440   31.5380   16.7080 O.3   1000  ANP1000    -0.2360
     13  O5'       66.7400   32.9950   15.8190 O.3   1000  ANP1000    -0.3111
     14  C5'       65.5920   32.1520   15.9500 C.3   1000  ANP1000     0.1813
     15  C4'       64.3040   32.9170   15.6860 C.3   1000  ANP1000     0.1821
     16  O4'       64.1430   33.9610   16.6470 O.3   1000  ANP1000    -0.3135
     17  C3'       64.2630   33.5770   14.3170 C.3   1000  ANP1000     0.2184
     18  O3'       63.0290   33.2370   13.6940 O.3   1000  ANP1000    -0.2174
     19  C2'       64.3470   35.0740   14.5820 C.3   1000  ANP1000     0.2570
     20  O2'       63.5630   35.8970   13.7070 O.3   1000  ANP1000    -0.2130
     21  C1'       63.7860   35.1640   15.9780 C.3   1000  ANP1000     0.3186
     22  N9        64.3050   36.2960   16.7610 N.pl3 1000  ANP1000    -0.1439
     23  C8        65.4850   36.9390   16.6650 C.3   1000  ANP1000     0.3377
     24  N7        65.5670   37.9200   17.5980 N.2   1000  ANP1000    -0.2095
     25  C5        64.4200   37.8950   18.2940 C.2   1000  ANP1000     0.2526
     26  C6        63.8490   38.6580   19.4130 C.2   1000  ANP1000     0.4393
     27  N6        64.5540   39.6610   19.9690 N.pl3 1000  ANP1000     0.2180
     28  N1        62.6230   38.3060   19.8440 N.2   1000  ANP1000     0.0021
     29  C2        61.9120   37.2990   19.2950 C.3   1000  ANP1000     0.5254
     30  N3        62.3740   36.5620   18.2590 N.2   1000  ANP1000    -0.0055
     31  C4        63.5970   36.8190   17.7480 C.2   1000  ANP1000     0.3518
@<TRIPOS>BOND
     1    18    17    1
     2    20    19    1
     3    11     9    2
     4    17    19    1
     5    17    15    1
     6    19    21    1
     7    10     9    1
     8     9    13    1
     9     9    12    1
    10     4     1    2
    11    15    14    1
    12    15    16    1
    13    13    14    1
    14    21    16    1
    15    21    22    1
    16     6     5    2
    17     3     1    1
    18    23    22    1
    19    23    24    1
    20     1     8    1
    21     1     2    1
    22    12     5    1
    23    22    31    1
    24     8     5    1
    25     5     7    1
    26    24    25    2
    27    31    30    2
    28    31    25    1
    29    30    29    1
    30    25    26    1
    31    29    28    1
    32    26    28    2
    33    26    27    1
