@<TRIPOS>MOLECULE
3i5y_ANP_A_1.pdb
 31 33 0 0 0
SMALL
GASTEIGER

@<TRIPOS>ATOM
      1  PG        71.3740   27.9440   16.5720 P.3   1000  ANP1000     0.4884
      2  O1G       72.0350   27.5050   17.8640 O.3   1000  ANP1000    -0.1240
      3  O2G       70.4860   26.9060   15.9510 O.3   1000  ANP1000    -0.1240
      4  O3G       72.3280   28.5750   15.5880 O.2   1000  ANP1000    -0.2331
      5  PB        70.6970   30.8850   17.1220 P.3   1000  ANP1000     0.4669
      6  O1B       71.5870   31.2580   15.9600 O.2   1000  ANP1000    -0.2351
      7  O2B       71.2130   31.1560   18.5060 O.3   1000  ANP1000    -0.1253
      8  N3B       70.2670   29.2010   17.0340 N.3   1000  ANP1000    -0.0163
      9  PA        68.9720   32.4080   15.5060 P.3   1000  ANP1000     0.2220
     10  O1A       69.9260   33.5780   15.3910 O.3   1000  ANP1000    -0.4370
     11  O2A       68.8770   31.4390   14.3660 O.2   1000  ANP1000    -0.5170
     12  O3A       69.3010   31.6520   16.8910 O.3   1000  ANP1000    -0.2360
     13  O5'       67.5060   33.0060   15.7950 O.3   1000  ANP1000    -0.3111
     14  C5'       66.3900   32.1360   15.8910 C.3   1000  ANP1000     0.1813
     15  C4'       65.1130   32.8990   15.6160 C.3   1000  ANP1000     0.1821
     16  O4'       64.9370   33.8950   16.6190 O.3   1000  ANP1000    -0.3135
     17  C3'       65.1290   33.6050   14.2750 C.3   1000  ANP1000     0.2184
     18  O3'       64.0180   33.1850   13.4850 O.3   1000  ANP1000    -0.2174
     19  C2'       65.0410   35.0840   14.5840 C.3   1000  ANP1000     0.2570
     20  O2'       64.1610   35.7490   13.6700 O.3   1000  ANP1000    -0.2130
     21  C1'       64.5290   35.1270   16.0180 C.3   1000  ANP1000     0.3186
     22  N9        65.0720   36.2180   16.8590 N.pl3 1000  ANP1000    -0.1439
     23  C8        66.2770   36.8120   16.7570 C.3   1000  ANP1000     0.3377
     24  N7        66.4400   37.7530   17.7170 N.2   1000  ANP1000    -0.2095
     25  C5        65.3260   37.7690   18.4600 C.2   1000  ANP1000     0.2526
     26  C6        64.8420   38.5250   19.6320 C.2   1000  ANP1000     0.4393
     27  N6        65.6070   39.4770   20.2070 N.pl3 1000  ANP1000     0.2180
     28  N1        63.6140   38.2240   20.1110 N.2   1000  ANP1000     0.0021
     29  C2        62.8420   37.2730   19.5480 C.3   1000  ANP1000     0.5254
     30  N3        63.2220   36.5490   18.4800 N.2   1000  ANP1000    -0.0055
     31  C4        64.4300   36.7470   17.9000 C.2   1000  ANP1000     0.3518
@<TRIPOS>BOND
     1    18    17    1
     2    20    19    1
     3    17    19    1
     4    17    15    1
     5    11     9    2
     6    19    21    1
     7    10     9    1
     8     9    13    1
     9     9    12    1
    10     4     1    2
    11    15    14    1
    12    15    16    1
    13    13    14    1
    14     3     1    1
    15     6     5    2
    16    21    16    1
    17    21    22    1
    18     1     8    1
    19     1     2    1
    20    23    22    1
    21    23    24    1
    22    22    31    1
    23    12     5    1
    24     8     5    1
    25     5     7    1
    26    24    25    2
    27    31    25    1
    28    31    30    2
    29    25    26    1
    30    30    29    1
    31    29    28    1
    32    26    28    2
    33    26    27    1
