@<TRIPOS>MOLECULE
3i5z_Z48_A_1.pdb
 31 34 0 0 0
SMALL
GASTEIGER

@<TRIPOS>ATOM
      1  C1         7.6000   -0.5660   47.8710 C.3   401  Z48401      0.0354
      2  C2         6.4970   -0.9340   46.9140 C.2   401  Z48401      0.0284
      3  C3         5.2170   -0.4830   47.1830 C.2   401  Z48401      0.1100
      4  N4         4.2290   -0.7780   46.3510 N.2   401  Z48401     -0.1687
      5  C5         4.4240   -1.5120   45.2620 C.1   401  Z48401      0.1696
      6  N6         3.3250   -1.7810   44.4450 N.pl3 401  Z48401     -0.1358
      7  C7         3.2600   -2.6250   43.3230 C.ar  401  Z48401      0.0826
      8  C8         4.3020   -2.7290   42.3980 C.ar  401  Z48401      0.0173
      9  C9         4.1910   -3.5720   41.3000 C.ar  401  Z48401      0.0014
     10  C10        3.0250   -4.3150   41.1270 C.ar  401  Z48401      0.0001
     11  C11        1.9810   -4.2200   42.0400 C.ar  401  Z48401      0.0014
     12  C12        2.1010   -3.3730   43.1300 C.ar  401  Z48401      0.0173
     13  N13        5.6330   -1.9500   44.9650 N.2   401  Z48401     -0.3367
     14  C14        6.6930   -1.7050   45.7420 C.2   401  Z48401      0.1395
     15  C15        8.0090   -2.2350   45.2820 C.2   401  Z48401      0.0333
     16  C16        8.2430   -2.6300   43.9890 C.2   401  Z48401      0.0973
     17  N17        9.5180   -3.0280   43.8690 N.2   401  Z48401     -0.2434
     18  C19       10.1390   -2.9050   45.0850 C.2   401  Z48401      0.1183
     19  C20        9.2320   -2.4000   45.9790 C.3   401  Z48401      0.0810
     20  C21       11.5590   -3.2390   45.2780 C.2   401  Z48401      0.2791
     21  O22       12.2200   -2.6840   46.1480 O.2   401  Z48401     -0.2670
     22  N23       12.0930   -4.1480   44.4260 N.am  401  Z48401     -0.1952
     23  C24       13.5080   -4.5580   44.4270 C.3   401  Z48401      0.1507
     24  C26       13.8610   -4.9560   42.9810 C.3   401  Z48401      0.2081
     25  O27       13.4680   -3.9030   42.0760 O.3   401  Z48401     -0.2181
     26  C28       13.8150   -5.6820   45.3890 C.ar  401  Z48401      0.0000
     27  C29       12.8010   -6.4900   45.9010 C.ar  401  Z48401     -0.0025
     28  C30       13.1140   -7.5170   46.7740 C.ar  401  Z48401     -0.0003
     29  C31       14.4320   -7.7380   47.1450 C.ar  401  Z48401     -0.0000
     30  C32       15.4390   -6.9350   46.6380 C.ar  401  Z48401     -0.0003
     31  C33       15.1350   -5.9040   45.7600 C.ar  401  Z48401     -0.0025
@<TRIPOS>BOND
     1    10     9   ar
     2    10    11   ar
     3     9     8   ar
     4    11    12   ar
     5    25    24    1
     6     8     7   ar
     7    24    23    1
     8    12     7   ar
     9     7     6    1
    10    17    16    1
    11    17    18    2
    12    16    15    2
    13    22    23    1
    14    22    20   am
    15    23    26    1
    16     6     5    1
    17    13     5    2
    18    13    14    2
    19    18    20    1
    20    18    19    1
    21     5     4    2
    22    20    21    2
    23    15    14    1
    24    15    19    1
    25    26    31   ar
    26    26    27   ar
    27    14     2    1
    28    31    30   ar
    29    27    28   ar
    30     4     3    1
    31    30    29   ar
    32    28    29   ar
    33     2     3    2
    34     2     1    1
