@<TRIPOS>MOLECULE
3i60_E86_A_1.pdb
 32 35 0 0 0
SMALL
GASTEIGER

@<TRIPOS>ATOM
      1  C1         7.0410   -0.6920   47.4130 C.3   401  E86401      0.0354
      2  C2         5.9310   -1.1330   46.4940 C.2   401  E86401      0.0284
      3  C3         4.6510   -0.6730   46.7690 C.2   401  E86401      0.1100
      4  N4         3.6330   -1.0390   45.9970 N.2   401  E86401     -0.1687
      5  C5         3.8310   -1.8330   44.9620 C.1   401  E86401      0.1696
      6  N6         2.7540   -2.1640   44.1740 N.pl3 401  E86401     -0.1349
      7  C7         2.8520   -2.9310   43.0000 C.ar  401  E86401      0.0931
      8  C8         3.8770   -2.7500   42.0660 C.ar  401  E86401      0.0182
      9  C9         3.9140   -3.5340   40.9260 C.ar  401  E86401      0.0014
     10  C10        2.9260   -4.4890   40.6920 C.ar  401  E86401      0.0010
     11  C11        1.8950   -4.6610   41.6030 C.ar  401  E86401      0.0127
     12  C12        1.8620   -3.8810   42.7510 C.ar  401  E86401      0.0737
     13 CL13        0.5960   -4.0790   43.9120 Cl    401  E86401     -0.0809
     14  N14        5.0320   -2.2850   44.6570 N.2   401  E86401     -0.3367
     15  C15        6.1070   -1.9940   45.3900 C.2   401  E86401      0.1395
     16  C16        7.4120   -2.5310   44.9300 C.2   401  E86401      0.0333
     17  C17        7.6370   -3.0000   43.6490 C.2   401  E86401      0.0973
     18  N18        8.9330   -3.3750   43.5510 N.2   401  E86401     -0.2434
     19  C20        9.5560   -3.1650   44.7570 C.2   401  E86401      0.1183
     20  C21        8.6420   -2.6200   45.6260 C.3   401  E86401      0.0810
     21  C22       10.9690   -3.4540   44.9920 C.2   401  E86401      0.2791
     22  O23       11.6000   -2.7650   45.7830 O.2   401  E86401     -0.2670
     23  N24       11.5670   -4.4470   44.2960 N.am  401  E86401     -0.1952
     24  C25       13.0060   -4.7450   44.4460 C.3   401  E86401      0.1507
     25  C27       13.5200   -5.1550   43.0600 C.3   401  E86401      0.2081
     26  O28       13.0100   -4.2790   42.0450 O.3   401  E86401     -0.2181
     27  C29       13.3300   -5.8530   45.4230 C.ar  401  E86401      0.0000
     28  C30       12.3250   -6.6200   45.9940 C.ar  401  E86401     -0.0025
     29  C31       12.6550   -7.6210   46.8900 C.ar  401  E86401     -0.0003
     30  C32       13.9840   -7.8650   47.2030 C.ar  401  E86401     -0.0000
     31  C33       14.9990   -7.1120   46.6320 C.ar  401  E86401     -0.0003
     32  C34       14.6620   -6.1010   45.7440 C.ar  401  E86401     -0.0025
@<TRIPOS>BOND
     1    10     9   ar
     2    10    11   ar
     3     9     8   ar
     4    11    12   ar
     5    26    25    1
     6     8     7   ar
     7    12     7   ar
     8    12    13    1
     9     7     6    1
    10    25    24    1
    11    18    17    1
    12    18    19    2
    13    17    16    2
    14     6     5    1
    15    23    24    1
    16    23    21   am
    17    24    27    1
    18    14     5    2
    19    14    15    2
    20    19    21    1
    21    19    20    1
    22    16    15    1
    23    16    20    1
    24     5     4    2
    25    21    22    2
    26    15     2    1
    27    27    32   ar
    28    27    28   ar
    29    32    31   ar
    30    28    29   ar
    31     4     3    1
    32     2     3    2
    33     2     1    1
    34    31    30   ar
    35    29    30   ar
