@<TRIPOS>MOLECULE
3i61_ADP_A_1.pdb
 27 29 0 0 0
SMALL
GASTEIGER

@<TRIPOS>ATOM
      1  PB        69.5760   30.8710   17.1310 P.3   1000  ADP1000     0.5373
      2  O1B       69.2220   29.4030   17.2080 O.3   1000  ADP1000    -0.1143
      3  O2B       70.5890   31.2310   16.0860 O.2   1000  ADP1000    -0.2221
      4  O3B       69.8790   31.4540   18.4910 O.3   1000  ADP1000    -0.1143
      5  PA        67.8560   32.3700   15.3880 P.3   1000  ADP1000     0.2231
      6  O1A       68.8270   33.5270   15.2940 O.3   1000  ADP1000    -0.4370
      7  O2A       67.7470   31.4310   14.2110 O.2   1000  ADP1000    -0.5169
      8  O3A       68.1620   31.5480   16.7320 O.3   1000  ADP1000    -0.2261
      9  O5'       66.3910   32.9650   15.6910 O.3   1000  ADP1000    -0.3111
     10  C5'       65.2560   32.1000   15.8150 C.3   1000  ADP1000     0.1813
     11  C4'       63.9520   32.8540   15.5920 C.3   1000  ADP1000     0.1821
     12  O4'       63.7970   33.8620   16.5950 O.3   1000  ADP1000    -0.3135
     13  C3'       63.8890   33.5500   14.2380 C.3   1000  ADP1000     0.2184
     14  O3'       62.6670   33.2280   13.5660 O.3   1000  ADP1000    -0.2174
     15  C2'       63.9490   35.0300   14.5660 C.3   1000  ADP1000     0.2570
     16  O2'       63.1620   35.8380   13.6870 O.3   1000  ADP1000    -0.2130
     17  C1'       63.3820   35.0710   15.9730 C.3   1000  ADP1000     0.3186
     18  N9        63.8470   36.2230   16.7650 N.pl3 1000  ADP1000    -0.1439
     19  C8        65.0100   36.8930   16.6460 C.3   1000  ADP1000     0.3377
     20  N7        65.0800   37.8920   17.5490 N.2   1000  ADP1000    -0.2095
     21  C5        63.9500   37.8570   18.2710 C.2   1000  ADP1000     0.2526
     22  C6        63.3910   38.6330   19.3890 C.2   1000  ADP1000     0.4393
     23  N6        64.0880   39.6620   19.9100 N.pl3 1000  ADP1000     0.2180
     24  N1        62.1730   38.2780   19.8560 N.2   1000  ADP1000     0.0021
     25  C2        61.4730   37.2480   19.3280 C.3   1000  ADP1000     0.5254
     26  N3        61.9320   36.4940   18.3040 N.2   1000  ADP1000    -0.0055
     27  C4        63.1380   36.7560   17.7500 C.2   1000  ADP1000     0.3518
@<TRIPOS>BOND
     1    14    13    1
     2    16    15    1
     3     7     5    2
     4    13    15    1
     5    13    11    1
     6    15    17    1
     7     6     5    1
     8     5     9    1
     9     5     8    1
    10    11    10    1
    11    11    12    1
    12     9    10    1
    13    17    12    1
    14    17    18    1
    15     3     1    2
    16    19    18    1
    17    19    20    1
    18     8     1    1
    19    18    27    1
    20     1     2    1
    21     1     4    1
    22    20    21    2
    23    27    21    1
    24    27    26    2
    25    21    22    1
    26    26    25    1
    27    25    24    1
    28    22    24    2
    29    22    23    1
