@<TRIPOS>MOLECULE
3i62_ADP_A_1.pdb
 27 29 0 0 0
SMALL
GASTEIGER

@<TRIPOS>ATOM
      1  PB        70.3950   30.5810   17.1280 P.3   1000  ADP1000     0.5373
      2  O1B       70.1890   29.0850   17.1330 O.3   1000  ADP1000    -0.1143
      3  O2B       71.4190   31.0710   16.1460 O.2   1000  ADP1000    -0.2221
      4  O3B       70.5830   31.1260   18.5260 O.3   1000  ADP1000    -0.1143
      5  PA        68.6090   32.1060   15.4150 P.3   1000  ADP1000     0.2231
      6  O1A       69.5400   33.2910   15.3440 O.3   1000  ADP1000    -0.4370
      7  O2A       68.4640   31.2370   14.1900 O.2   1000  ADP1000    -0.5169
      8  O3A       68.9490   31.1840   16.6960 O.3   1000  ADP1000    -0.2261
      9  O5'       67.1480   32.6800   15.7980 O.3   1000  ADP1000    -0.3111
     10  C5'       65.9960   31.8410   15.8930 C.3   1000  ADP1000     0.1813
     11  C4'       64.7190   32.6320   15.6380 C.3   1000  ADP1000     0.1821
     12  O4'       64.5370   33.6490   16.6400 O.3   1000  ADP1000    -0.3135
     13  C3'       64.7320   33.3340   14.2860 C.3   1000  ADP1000     0.2184
     14  O3'       63.5090   33.0870   13.6010 O.3   1000  ADP1000    -0.2174
     15  C2'       64.8730   34.8040   14.6230 C.3   1000  ADP1000     0.2570
     16  O2'       64.2280   35.6870   13.7040 O.3   1000  ADP1000    -0.2130
     17  C1'       64.2170   34.8770   15.9910 C.3   1000  ADP1000     0.3186
     18  N9        64.6760   36.0210   16.7970 N.pl3 1000  ADP1000    -0.1439
     19  C8        65.8210   36.7180   16.6720 C.3   1000  ADP1000     0.3377
     20  N7        65.8870   37.6950   17.5980 N.2   1000  ADP1000    -0.2095
     21  C5        64.7610   37.6280   18.3290 C.2   1000  ADP1000     0.2526
     22  C6        64.1960   38.3700   19.4670 C.2   1000  ADP1000     0.4393
     23  N6        64.8840   39.3980   19.9980 N.pl3 1000  ADP1000     0.2180
     24  N1        62.9930   37.9800   19.9460 N.2   1000  ADP1000     0.0021
     25  C2        62.3140   36.9490   19.4110 C.3   1000  ADP1000     0.5254
     26  N3        62.7730   36.2310   18.3650 N.2   1000  ADP1000    -0.0055
     27  C4        63.9650   36.5240   17.8000 C.2   1000  ADP1000     0.3518
@<TRIPOS>BOND
     1    14    13    1
     2    16    15    1
     3     7     5    2
     4    13    15    1
     5    13    11    1
     6    15    17    1
     7     6     5    1
     8     5     9    1
     9     5     8    1
    10    11    10    1
    11    11    12    1
    12     9    10    1
    13    17    12    1
    14    17    18    1
    15     3     1    2
    16    19    18    1
    17    19    20    1
    18     8     1    1
    19    18    27    1
    20     1     2    1
    21     1     4    1
    22    20    21    2
    23    27    21    1
    24    27    26    2
    25    21    22    1
    26    26    25    1
    27    25    24    1
    28    22    24    2
    29    22    23    1
