@<TRIPOS>MOLECULE
3i64_SAH_A_1.pdb
 26 26 0 0 0
SMALL
GASTEIGER

@<TRIPOS>ATOM
      1  N        -36.9400   36.0580    1.1020 N.3   401  SAH401      0.0420
      2  CA       -36.6130   36.0540   -0.3320 C.3   401  SAH401      0.2042
      3  CB       -36.6780   34.6190   -0.8610 C.3   401  SAH401      0.0125
      4  CG       -36.1380   34.5730   -2.2900 C.3   401  SAH401      0.0577
      5  SD       -36.3020   32.9510   -3.1230 S.3   401  SAH401     -0.1376
      6  C        -37.6080   36.9230   -1.1050 C.2   401  SAH401      0.2794
      7  O        -37.0240   36.4000    0.7670 O.3   401  SAH401     -0.2461
      8  OXT      -38.7800   36.9720   -0.6750 O.2   401  SAH401     -0.2794
      9  C5'      -35.5610   31.7850   -1.9240 C.3   401  SAH401      0.0899
     10  C4'      -34.1920   32.2090   -1.3900 C.3   401  SAH401      0.1630
     11  O4'      -33.6470   31.0940   -0.6630 O.3   401  SAH401     -0.3153
     12  C3'      -33.1900   32.5360   -2.5020 C.3   401  SAH401      0.2168
     13  O3'      -32.4890   33.7390   -2.1760 O.3   401  SAH401     -0.2175
     14  C2'      -32.2380   31.3400   -2.4600 C.3   401  SAH401      0.2569
     15  O2'      -30.9270   31.7510   -2.8610 O.3   401  SAH401     -0.2130
     16  C1'      -32.2420   31.0940   -0.9530 C.3   401  SAH401      0.3185
     17  N9       -31.6640   29.7790   -0.6020 N.pl3 401  SAH401     -0.1439
     18  C8       -31.8350   28.6440   -1.2770 C.3   401  SAH401      0.3377
     19  N7       -31.2590   27.6450   -0.6120 N.2   401  SAH401     -0.2095
     20  C5       -30.7140   28.1460    0.4910 C.2   401  SAH401      0.2526
     21  C6       -30.0220   27.6020    1.5660 C.2   401  SAH401      0.4393
     22  N6       -29.8060   26.2920    1.6380 N.pl3 401  SAH401      0.2180
     23  N1       -29.6130   28.4100    2.5510 N.2   401  SAH401      0.0021
     24  C2       -29.8620   29.7080    2.5150 C.3   401  SAH401      0.5254
     25  N3       -30.5220   30.2600    1.5130 N.2   401  SAH401     -0.0055
     26  C4       -30.9620   29.5110    0.4940 C.2   401  SAH401      0.3518
@<TRIPOS>BOND
     1     5     4    1
     2     5     9    1
     3    15    14    1
     4    12    14    1
     5    12    13    1
     6    12    10    1
     7    14    16    1
     8     4     3    1
     9     9    10    1
    10    10    11    1
    11    18    19    1
    12    18    17    1
    13     6     8    2
    14    16    11    1
    15    16    17    1
    16    19    20    2
    17    17    26    1
    18     2     7    1
    19    20    26    1
    20    20    21    1
    21    26    25    2
    22     7     1    1
    23    25    24    1
    24    21    22    1
    25    21    23    2
    26    24    23    1
