@<TRIPOS>MOLECULE
3i64_DNA_A_1.pdb
 15 16 0 0 0
SMALL
GASTEIGER

@<TRIPOS>ATOM
      1  O1A      -43.2940   34.5940   -7.4900 O.co2 402  DNA402     -0.2404
      2  O1B      -42.7780   34.6880   -5.3400 O.co2 402  DNA402     -0.2404
      3  O1C      -39.0540   31.4320   -4.6680 O.3   402  DNA402     -0.2866
      4  O1D      -41.9350   33.1150   -9.0580 O.3   402  DNA402     -0.2863
      5  C1E      -38.1580   29.9540   -8.4740 C.ar  402  DNA402      0.0001
      6  C1F      -38.8870   30.3880   -9.5760 C.ar  402  DNA402      0.0001
      7  C1G      -38.4510   30.4270   -7.1980 C.ar  402  DNA402      0.0033
      8  C1H      -39.9190   31.3020   -9.4000 C.ar  402  DNA402      0.0033
      9  C1I      -40.7940   32.7650   -5.5940 C.ar  402  DNA402      0.0518
     10  C1J      -42.6240   34.2380   -6.4960 C.2   402  DNA402      0.3910
     11  C1K      -39.7690   31.8380   -5.7530 C.ar  402  DNA402      0.1961
     12  C1L      -41.5230   33.1960   -6.6970 C.ar  402  DNA402      0.1217
     13  C1M      -41.2360   32.7020   -7.9660 C.ar  402  DNA402      0.2021
     14  C1N      -39.4810   31.3440   -7.0220 C.ar  402  DNA402      0.0420
     15  C1O      -40.2120   31.7760   -8.1260 C.ar  402  DNA402      0.0422
@<TRIPOS>BOND
     1     6     8   ar
     2     6     5   ar
     3     8    15   ar
     4     4    13    1
     5     5     7   ar
     6    15    13   ar
     7    15    14   ar
     8    13    12   ar
     9     1    10   ar
    10     7    14   ar
    11    14    11   ar
    12    12    10    1
    13    12     9   ar
    14    10     2   ar
    15    11     9   ar
    16    11     3    1
