@<TRIPOS>MOLECULE
3i65_JZ8_A_1.pdb
 21 24 0 0 0
SMALL
GASTEIGER

@<TRIPOS>ATOM
      1  C1        -4.4800   29.8940   13.5420 C.ar  1001  JZ81001     0.0466
      2  N1        -3.4160   27.8590   14.2670 N.2   1001  JZ81001    -0.0407
      3  C2        -4.4780   28.5000   13.7210 C.ar  1001  JZ81001     0.1930
      4  N2        -1.5300   27.5250   15.6100 N.pl3 1001  JZ81001     0.0159
      5  C3        -5.5530   27.7270   13.2550 C.ar  1001  JZ81001     0.0466
      6  N3        -0.9990   26.5160   14.8320 N.2   1001  JZ81001    -0.0486
      7  C4        -6.6610   28.3290   12.6590 C.ar  1001  JZ81001     0.0037
      8  N4         0.3000   26.9700   16.6080 N.2   1001  JZ81001    -0.1228
      9  C5        -7.7570   27.5880   12.2100 C.ar  1001  JZ81001     0.0001
     10  N5        -1.0390   28.7500   17.5630 N.2   1001  JZ81001    -0.3256
     11  C6        -8.8390   28.2420   11.5990 C.ar  1001  JZ81001     0.0000
     12  C7        -8.8290   29.6400   11.4330 C.ar  1001  JZ81001     0.0000
     13  C8        -7.7500   30.4130   11.8590 C.ar  1001  JZ81001     0.0000
     14  C9        -6.6540   29.8030   12.4820 C.ar  1001  JZ81001     0.0002
     15  C10       -5.5650   30.5380   12.9480 C.ar  1001  JZ81001     0.0038
     16  C11       -2.6610   28.1990   15.3650 C.2   1001  JZ81001     0.3452
     17  C12       -3.0190   29.2050   16.2830 C.3   1001  JZ81001     0.1759
     18  C13       -2.1890   29.4610   17.3930 C.2   1001  JZ81001     0.1140
     19  C14       -2.5710   30.5420   18.3820 C.3   1001  JZ81001     0.0632
     20  C15       -0.7690   27.7850   16.6660 C.1   1001  JZ81001     0.2726
     21  C16        0.1420   26.1890   15.4900 C.2   1001  JZ81001     0.2568
@<TRIPOS>BOND
     1    12    11   ar
     2    12    13   ar
     3    11     9   ar
     4    13    14   ar
     5     9     7   ar
     6    14     7   ar
     7    14    15   ar
     8     7     5   ar
     9    15     1   ar
    10     5     3   ar
    11     1     3   ar
    12     3     2    1
    13     2    16    2
    14     6    21    2
    15     6     4    1
    16    16     4    1
    17    16    17    1
    18    21     8    1
    19     4    20    1
    20    17    18    1
    21     8    20    2
    22    20    10    2
    23    18    10    2
    24    18    19    1
