@<TRIPOS>MOLECULE
3i65_FMN_A_1.pdb
 31 33 0 0 0
SMALL
GASTEIGER

@<TRIPOS>ATOM
      1  N1         3.0470   21.4190    3.5100 N.2   1002  FMN1002    -0.2890
      2  C2         2.5400   20.3860    2.7240 C.1   1002  FMN1002     0.3669
      3  O2         2.7290   20.3990    1.5030 O.2   1002  FMN1002    -0.1744
      4  N3         1.8080   19.3670    3.3000 N.2   1002  FMN1002    -0.2300
      5  C4         1.5800   19.3310    4.6640 C.1   1002  FMN1002     0.2513
      6  O4         0.6590   18.6090    5.1140 O.2   1002  FMN1002    -0.2057
      7  C4A        2.1190   20.3630    5.4510 C.2   1002  FMN1002     0.2700
      8  N5         1.9290   20.3680    6.8280 N.2   1002  FMN1002    -0.3878
      9  C5A        2.4040   21.3970    7.6190 C.2   1002  FMN1002     0.1320
     10  C6         2.1910   21.3730    8.9860 C.2   1002  FMN1002     0.0250
     11  C7         2.6790   22.4090    9.8040 C.2   1002  FMN1002    -0.0238
     12  C7M        2.3780   22.3800   11.2630 C.3   1002  FMN1002     0.0308
     13  C8         3.3930   23.4670    9.2390 C.2   1002  FMN1002    -0.0280
     14  C8M        3.6600   24.7430    9.9970 C.3   1002  FMN1002     0.0304
     15  C9         3.6100   23.4530    7.8690 C.2   1002  FMN1002    -0.0041
     16  C9A        3.1200   22.4370    7.0430 C.3   1002  FMN1002     0.1497
     17  N10        3.3470   22.4370    5.6660 N.pl3 1002  FMN1002    -0.2691
     18  C10        2.8360   21.4100    4.8710 C.2   1002  FMN1002     0.2416
     19  C1'        4.2270   23.4600    5.0220 C.3   1002  FMN1002     0.1294
     20  C2'        3.3490   24.6690    4.6720 C.3   1002  FMN1002     0.2044
     21  O2'        2.3750   24.3010    3.6950 O.3   1002  FMN1002    -0.2185
     22  C3'        4.1590   25.8530    4.1590 C.3   1002  FMN1002     0.2164
     23  O3'        4.7120   25.5100    2.9090 O.3   1002  FMN1002    -0.2175
     24  C4'        5.2800   26.3140    5.1040 C.3   1002  FMN1002     0.2147
     25  O4'        4.7480   26.4820    6.4100 O.3   1002  FMN1002    -0.2176
     26  C5'        5.8610   27.6350    4.6160 C.3   1002  FMN1002     0.1892
     27  O5'        4.8850   28.6610    4.7210 O.3   1002  FMN1002    -0.2674
     28  P          4.8530   29.7460    5.9360 P.3   1002  FMN1002     0.5327
     29  O1P        4.4700   28.9810    7.1730 O.3   1002  FMN1002    -0.1145
     30  O2P        3.8370   30.8260    5.6540 O.2   1002  FMN1002    -0.2224
     31  O3P        6.2240   30.3130    6.1010 O.3   1002  FMN1002    -0.1145
@<TRIPOS>BOND
     1     3     2    2
     2     2     4    2
     3     2     1    2
     4    23    22    1
     5     4     5    2
     6     1    18    2
     7    21    20    1
     8    22    20    1
     9    22    24    1
    10    26    27    1
    11    26    24    1
    12     5     6    2
    13     5     7    1
    14    20    19    1
    15    27    28    1
    16    18     7    1
    17    18    17    1
    18    19    17    1
    19    24    25    1
    20     7     8    2
    21    30    28    2
    22    17    16    1
    23    28    31    1
    24    28    29    1
    25     8     9    2
    26    16     9    1
    27    16    15    1
    28     9    10    1
    29    15    13    2
    30    10    11    2
    31    13    11    1
    32    13    14    1
    33    11    12    1
