@<TRIPOS>MOLECULE
3i68_FMN_A_1.pdb
 31 33 0 0 0
SMALL
GASTEIGER

@<TRIPOS>ATOM
      1  N1       -19.9700   -8.1100    4.2910 N.2   1002  FMN1002    -0.2890
      2  C2       -18.8630   -8.0590    3.4900 C.1   1002  FMN1002     0.3669
      3  O2       -19.0070   -7.8530    2.2750 O.2   1002  FMN1002    -0.1744
      4  N3       -17.6190   -8.2430    4.0590 N.2   1002  FMN1002    -0.2300
      5  C4       -17.4480   -8.4670    5.4210 C.1   1002  FMN1002     0.2513
      6  O4       -16.3210   -8.7840    5.8590 O.2   1002  FMN1002    -0.2057
      7  C4A      -18.5870   -8.5170    6.2370 C.2   1002  FMN1002     0.2700
      8  N5       -18.4920   -8.7500    7.5980 N.2   1002  FMN1002    -0.3878
      9  C5A      -19.6320   -8.8100    8.3930 C.2   1002  FMN1002     0.1320
     10  C6       -19.5300   -9.0400    9.7690 C.2   1002  FMN1002     0.0250
     11  C7       -20.6860   -9.1060   10.5640 C.2   1002  FMN1002    -0.0238
     12  C7M      -20.5660   -9.3380   12.0510 C.3   1002  FMN1002     0.0308
     13  C8       -21.9450   -8.9330    9.9760 C.2   1002  FMN1002    -0.0280
     14  C8M      -23.2070   -9.2670   10.7170 C.3   1002  FMN1002     0.0304
     15  C9       -22.0320   -8.6940    8.6050 C.2   1002  FMN1002    -0.0041
     16  C9A      -20.8900   -8.6320    7.8030 C.3   1002  FMN1002     0.1497
     17  N10      -20.9920   -8.3870    6.4300 N.pl3 1002  FMN1002    -0.2691
     18  C10      -19.8480   -8.3440    5.6580 C.2   1002  FMN1002     0.2416
     19  C1'      -22.3220   -8.1110    5.7740 C.3   1002  FMN1002     0.1294
     20  C2'      -22.9460   -9.4620    5.4100 C.3   1002  FMN1002     0.2044
     21  O2'      -22.0860  -10.1190    4.5100 O.3   1002  FMN1002    -0.2185
     22  C3'      -24.3480   -9.3850    4.8220 C.3   1002  FMN1002     0.2164
     23  O3'      -24.2500   -8.7330    3.5740 O.3   1002  FMN1002    -0.2175
     24  C4'      -25.3370   -8.6520    5.7470 C.3   1002  FMN1002     0.2147
     25  O4'      -25.2760   -9.1950    7.0480 O.3   1002  FMN1002    -0.2176
     26  C5'      -26.7730   -8.7360    5.2650 C.3   1002  FMN1002     0.1892
     27  O5'      -27.2090  -10.0730    5.3500 O.3   1002  FMN1002    -0.2674
     28  P        -28.1560  -10.6030    6.5370 P.3   1002  FMN1002     0.5327
     29  O1P      -27.3110  -10.6750    7.7820 O.3   1002  FMN1002    -0.1145
     30  O2P      -28.6650  -11.9930    6.2230 O.2   1002  FMN1002    -0.2224
     31  O3P      -29.3030   -9.6380    6.7130 O.3   1002  FMN1002    -0.1145
@<TRIPOS>BOND
     1     3     2    2
     2     2     4    2
     3     2     1    2
     4    23    22    1
     5     4     5    2
     6     1    18    2
     7    21    20    1
     8    22    20    1
     9    22    24    1
    10    26    27    1
    11    26    24    1
    12    27    28    1
    13    20    19    1
    14     5     6    2
    15     5     7    1
    16    18     7    1
    17    18    17    1
    18    24    25    1
    19    19    17    1
    20    30    28    2
    21     7     8    2
    22    17    16    1
    23    28    31    1
    24    28    29    1
    25     8     9    2
    26    16     9    1
    27    16    15    1
    28     9    10    1
    29    15    13    2
    30    10    11    2
    31    13    11    1
    32    13    14    1
    33    11    12    1
