@<TRIPOS>MOLECULE
3i68_J4Z_A_1.pdb
 25 29 0 0 0
SMALL
GASTEIGER

@<TRIPOS>ATOM
      1  C1       -23.7770  -18.8300   14.3950 C.ar  1001  J4Z1001     0.0444
      2  N1       -22.3360  -16.9970   15.0920 N.pl3 1001  J4Z1001    -0.0079
      3  C2       -22.5180  -18.2210   14.5170 C.ar  1001  J4Z1001     0.1832
      4  N2       -23.0110  -15.1240   16.3320 N.pl3 1001  J4Z1001     0.0178
      5  C3       -21.3800  -18.8630   14.0270 C.ar  1001  J4Z1001     0.0444
      6  N3       -22.3550  -14.1910   15.5440 N.2   1001  J4Z1001    -0.0484
      7  C4       -21.4640  -20.1020   13.4100 C.ar  1001  J4Z1001     0.0035
      8  N4       -23.4520  -13.2300   17.2320 N.2   1001  J4Z1001    -0.1228
      9  C5       -20.3130  -20.7280   12.9310 C.ar  1001  J4Z1001     0.0001
     10  N5       -24.3730  -15.2460   18.2700 N.2   1001  J4Z1001    -0.3215
     11  C6       -20.4160  -21.9760   12.3150 C.ar  1001  J4Z1001     0.0000
     12  C7       -21.7460  -22.6410   12.1880 C.ar  1001  J4Z1001     0.0000
     13  C8       -22.9010  -22.0190   12.6780 C.ar  1001  J4Z1001     0.0000
     14  C9       -22.8010  -20.7600   13.2920 C.ar  1001  J4Z1001     0.0002
     15  C10      -23.9240  -20.0930   13.7980 C.ar  1001  J4Z1001     0.0036
     16  C11      -23.0250  -16.4550   16.1440 C.2   1001  J4Z1001     0.3552
     17  C12      -23.7520  -17.2280   17.0680 C.2   1001  J4Z1001     0.1192
     18  C13      -24.4310  -16.6010   18.1310 C.2   1001  J4Z1001     0.1314
     19  C14      -25.2080  -17.4370   19.1230 C.3   1001  J4Z1001     0.0678
     20  C15      -23.6500  -14.5600   17.3460 C.1   1001  J4Z1001     0.2730
     21  C16      -22.6500  -13.0070   16.1430 C.2   1001  J4Z1001     0.2568
     22  C22      -19.2870  -22.6270   11.8150 C.ar  1001  J4Z1001     0.0000
     23  C23      -19.4050  -23.8790   11.2010 C.ar  1001  J4Z1001     0.0000
     24  C24      -20.6530  -24.4980   11.0710 C.ar  1001  J4Z1001     0.0000
     25  C25      -21.8060  -23.8890   11.5620 C.ar  1001  J4Z1001     0.0000
@<TRIPOS>BOND
     1    24    23   ar
     2    24    25   ar
     3    23    22   ar
     4    25    12   ar
     5    22    11   ar
     6    12    11   ar
     7    12    13   ar
     8    11     9   ar
     9    13    14   ar
    10     9     7   ar
    11    14     7   ar
    12    14    15   ar
    13     7     5   ar
    14    15     1   ar
    15     5     3   ar
    16     1     3   ar
    17     3     2    1
    18     2    16    1
    19     6    21    2
    20     6     4    1
    21    21     8    1
    22    16     4    1
    23    16    17    2
    24     4    20    1
    25    17    18    1
    26     8    20    2
    27    20    10    2
    28    18    10    2
    29    18    19    1
