@<TRIPOS>MOLECULE
3i69_GSH_B_1.pdb
 20 19 0 0 0
SMALL
GASTEIGER

@<TRIPOS>ATOM
      1  N1       -25.1670    1.6930   36.7570 N.3   5102  GSH5102    -0.1208
      2  CA1      -25.1650    2.5850   35.6130 C.3   5102  GSH5102     0.1948
      3  C1       -24.0260    3.5680   35.7060 C.2   5102  GSH5102     0.3819
      4  O11      -23.7050    4.2240   34.6930 O.co2 5102  GSH5102    -0.2441
      5  O12      -23.4220    3.6950   36.7920 O.co2 5102  GSH5102    -0.2441
      6  CB1      -26.5090    3.3030   35.5660 C.3   5102  GSH5102     0.0402
      7  CG1      -26.6850    4.0480   34.2440 C.3   5102  GSH5102     0.0889
      8  CD1      -28.1380    4.3030   33.9180 C.2   5102  GSH5102     0.2418
      9  OE1      -29.0340    3.6050   34.3700 O.2   5102  GSH5102    -0.2733
     10  N2       -28.3570    5.3220   33.0900 N.am  5102  GSH5102    -0.1968
     11  CA2      -29.6800    5.6610   32.5940 C.3   5102  GSH5102     0.1843
     12  C2       -29.8140    5.2460   31.1490 C.2   5102  GSH5102     0.2627
     13  O2       -29.1350    5.7690   30.2680 O.2   5102  GSH5102    -0.2714
     14  CB2      -29.9660    7.1550   32.7760 C.3   5102  GSH5102     0.0997
     15  SG2      -29.3890    7.8290   34.3580 S.3   5102  GSH5102    -0.0797
     16  N3       -30.7020    4.2800   30.8980 N.am  5102  GSH5102    -0.1917
     17  CA3      -30.9570    3.7670   29.5560 C.3   5102  GSH5102     0.2285
     18  C3       -31.6450    2.4270   29.6120 C.2   5102  GSH5102     0.3865
     19  O31      -32.2060    2.0050   28.5840 O.co2 5102  GSH5102    -0.2437
     20  O32      -31.6270    1.7910   30.6870 O.co2 5102  GSH5102    -0.2437
@<TRIPOS>BOND
     1    19    18   ar
     2    17    18    1
     3    17    16    1
     4    18    20   ar
     5    13    12    2
     6    16    12   am
     7    12    11    1
     8    11    14    1
     9    11    10    1
    10    14    15    1
    11    10     8   am
    12     8     7    1
    13     8     9    2
    14     7     6    1
    15     4     3   ar
    16     6     2    1
    17     2     3    1
    18     2     1    1
    19     3     5   ar
