@<TRIPOS>MOLECULE
3i6a_GSH_A_1.pdb
 20 19 0 0 0
SMALL
GASTEIGER

@<TRIPOS>ATOM
      1  N1       -23.9480   -1.4710   48.7200 N.3   5101  GSH5101    -0.1208
      2  CA1      -23.9560   -2.5220   49.7480 C.3   5101  GSH5101     0.1948
      3  C1       -22.9730   -3.6400   49.3740 C.2   5101  GSH5101     0.3819
      4  O11      -22.7910   -3.8530   48.1760 O.co2 5101  GSH5101    -0.2441
      5  O12      -22.3560   -4.3100   50.2410 O.co2 5101  GSH5101    -0.2441
      6  CB1      -25.3600   -3.1190   49.8900 C.3   5101  GSH5101     0.0402
      7  CG1      -25.4530   -3.9520   51.1700 C.3   5101  GSH5101     0.0889
      8  CD1      -26.8790   -4.2920   51.5790 C.2   5101  GSH5101     0.2418
      9  OE1      -27.8580   -3.8570   50.9820 O.2   5101  GSH5101    -0.2733
     10  N2       -26.9270   -5.1430   52.6040 N.am  5101  GSH5101    -0.1968
     11  CA2      -28.1050   -5.7400   53.1940 C.3   5101  GSH5101     0.1843
     12  C2       -28.2310   -5.3040   54.6200 C.2   5101  GSH5101     0.2627
     13  O2       -27.2610   -5.4270   55.3720 O.2   5101  GSH5101    -0.2714
     14  CB2      -27.9650   -7.2490   53.2280 C.3   5101  GSH5101     0.0997
     15  SG2      -27.8080   -7.9510   51.5680 S.3   5101  GSH5101    -0.0797
     16  N3       -29.4070   -4.7820   54.9620 N.am  5101  GSH5101    -0.1917
     17  CA3      -29.6580   -4.1200   56.2420 C.3   5101  GSH5101     0.2285
     18  C3       -29.8830   -2.6160   56.0430 C.2   5101  GSH5101     0.3865
     19  O31      -29.5580   -2.0480   54.9740 O.co2 5101  GSH5101    -0.2437
     20  O32      -30.3790   -1.9700   56.9860 O.co2 5101  GSH5101    -0.2437
@<TRIPOS>BOND
     1     4     3   ar
     2     1     2    1
     3     3     2    1
     4     3     5   ar
     5     2     6    1
     6     6     7    1
     7     9     8    2
     8     7     8    1
     9    15    14    1
    10     8    10   am
    11    10    11    1
    12    11    14    1
    13    11    12    1
    14    12    16   am
    15    12    13    2
    16    16    17    1
    17    19    18   ar
    18    18    17    1
    19    18    20   ar
