@<TRIPOS>MOLECULE
3i6b_KDO_B_1.pdb
 16 16 0 0 0
SMALL
GASTEIGER

@<TRIPOS>ATOM
      1  C1        31.2990  -20.3910  -20.3010 C.2   900  KDO900      0.4179
      2  O1A       30.8540  -20.4820  -19.0920 O.co2 900  KDO900     -0.2401
      3  O1B       32.3770  -19.7890  -20.5790 O.co2 900  KDO900     -0.2401
      4  C2        30.5350  -21.0540  -21.4330 C.3   900  KDO900      0.3156
      5  O2        30.9710  -20.5630  -22.7200 O.3   900  KDO900     -0.1830
      6  C3        30.7890  -22.5540  -21.3670 C.3   900  KDO900      0.1064
      7  C4        30.0260  -23.2650  -22.4750 C.3   900  KDO900      0.1902
      8  O4        30.0710  -24.6780  -22.2350 O.3   900  KDO900     -0.2201
      9  C5        28.5640  -22.8420  -22.5450 C.3   900  KDO900      0.2118
     10  O5        27.9130  -23.5470  -21.4940 O.3   900  KDO900     -0.2177
     11  C6        28.3380  -21.3320  -22.3730 C.3   900  KDO900      0.1838
     12  O6        29.1300  -20.8160  -21.2700 O.3   900  KDO900     -0.3212
     13  C7        26.8310  -20.9600  -22.2950 C.3   900  KDO900      0.2143
     14  O7        26.4220  -20.3480  -23.5590 O.3   900  KDO900     -0.2176
     15  C8        26.4790  -20.0010  -21.1570 C.3   900  KDO900      0.2174
     16  O8        25.5850  -20.7010  -20.1970 O.3   900  KDO900     -0.2175
@<TRIPOS>BOND
     1    14    13    1
     2     5     4    1
     3     9     7    1
     4     9    11    1
     5     9    10    1
     6     7     8    1
     7     7     6    1
     8    11    13    1
     9    11    12    1
    10    13    15    1
    11     4     6    1
    12     4    12    1
    13     4     1    1
    14    15    16    1
    15     3     1   ar
    16     1     2   ar
