@<TRIPOS>MOLECULE
3i6c_GIA_A_2.pdb
 25 27 0 0 0
SMALL
GASTEIGER

@<TRIPOS>ATOM
      1  F1        18.4940  -12.3540   10.9830 F     303  GIA303     -0.2042
      2  C1        19.1940  -11.9510   12.0720 C.ar  303  GIA303      0.1398
      3  C2        18.5530  -12.0360   13.2970 C.ar  303  GIA303      0.0296
      4  C3        19.2250  -11.5890   14.4330 C.ar  303  GIA303      0.0020
      5  C4        20.4280  -10.9350   14.2960 C.ar  303  GIA303     -0.0041
      6  C5        21.0130  -10.7390   13.0400 C.ar  303  GIA303     -0.0177
      7  C6        20.3400  -11.1990   11.9060 C.ar  303  GIA303      0.0254
      8  C7        22.2990   -9.9390   12.8250 C.3   303  GIA303      0.0597
      9  C8        22.0010   -8.5030   12.4350 C.3   303  GIA303      0.2024
     10  C9        21.0200   -7.8400   13.3790 C.2   303  GIA303      0.3846
     11  O10       21.3380   -7.5600   14.4910 O.co2 303  GIA303     -0.2437
     12  O11       19.7940   -7.6230   12.9050 O.co2 303  GIA303     -0.2437
     13  N12       21.4250   -8.3450   11.0860 N.am  303  GIA303     -0.1915
     14  C13       22.2310   -8.5070   10.0070 C.2   303  GIA303      0.2652
     15  O14       23.3920   -8.8720   10.1930 O.2   303  GIA303     -0.2684
     16  C15       21.7050   -8.2470    8.6530 C.ar  303  GIA303      0.0551
     17  C16       20.6820   -7.3430    8.4730 C.ar  303  GIA303      0.0046
     18  C17       20.2540   -7.0600    7.1650 C.ar  303  GIA303      0.0001
     19  C18       20.8480   -7.6680    6.0330 C.ar  303  GIA303      0.0000
     20  C19       21.9480   -8.5240    6.2350 C.ar  303  GIA303      0.0001
     21  C20       22.3150   -8.8300    7.5180 C.ar  303  GIA303      0.0046
     22  C21       19.2170   -6.1180    6.9660 C.ar  303  GIA303      0.0000
     23  C22       18.8470   -5.7740    5.6860 C.ar  303  GIA303      0.0000
     24  C23       19.4100   -6.4230    4.5840 C.ar  303  GIA303      0.0000
     25  C24       20.4060   -7.3400    4.7510 C.ar  303  GIA303      0.0000
@<TRIPOS>BOND
     1    24    25   ar
     2    24    23   ar
     3    25    19   ar
     4    23    22   ar
     5    19    20   ar
     6    19    18   ar
     7    20    21   ar
     8    22    18   ar
     9    18    17   ar
    10    21    16   ar
    11    17    16   ar
    12    16    14    1
    13    14    15    2
    14    14    13   am
    15     1     2    1
    16    13     9    1
    17     7     2   ar
    18     7     6   ar
    19     2     3   ar
    20     9     8    1
    21     9    10    1
    22     8     6    1
    23    12    10   ar
    24     6     5   ar
    25     3     4   ar
    26    10    11   ar
    27     5     4   ar
