@<TRIPOS>MOLECULE
3i6d_ACJ_A_1.pdb
 24 25 0 0 0
SMALL
GASTEIGER

@<TRIPOS>ATOM
      1  O3         0.8040  -32.4360   12.6410 O.co2 471  ACJ471     -0.2405
      2  C11        0.9160  -31.6470   13.5560 C.2   471  ACJ471      0.3895
      3  O2         1.7470  -31.9150   14.5770 O.co2 471  ACJ471     -0.2405
      4  C9        -0.9160  -30.2790   14.5180 C.ar  471  ACJ471      0.0457
      5  C14        0.4230  -29.2810   12.6560 C.ar  471  ACJ471      0.1494
      6  C8        -1.6970  -29.1100   14.5960 C.ar  471  ACJ471      0.1456
      7  N1         1.5270  -29.3180   11.5940 N.pl3 471  ACJ471      0.0579
      8  C13       -0.3670  -28.1120   12.7600 C.ar  471  ACJ471      0.0274
      9  O5         1.6990  -28.3550   10.8590 O.2   471  ACJ471     -0.1261
     10  C12       -1.4040  -28.0160   13.7080 C.ar  471  ACJ471      0.0392
     11  O1        -2.7380  -29.0670   15.5480 O.3   471  ACJ471     -0.4526
     12  C7        -4.0670  -28.9380   15.0100 C.ar  471  ACJ471      0.1557
     13  O4         2.2540  -30.2890   11.4390 O.2   471  ACJ471     -0.1261
     14  C6        -4.3630  -28.8430   13.5960 C.ar  471  ACJ471      0.0383
     15  C10        0.1430  -30.3890   13.5700 C.ar  471  ACJ471      0.1052
     16  C4        -5.1670  -28.9010   15.9170 C.ar  471  ACJ471      0.0920
     17  C5        -5.6760  -28.7110   13.1160 C.ar  471  ACJ471      0.0070
     18  C2        -6.7650  -28.6700   14.0070 C.ar  471  ACJ471      0.0725
     19 CL1        -4.8760  -29.0200   17.6310 Cl    471  ACJ471     -0.0791
     20  C3        -6.5090  -28.7660   15.4200 C.ar  471  ACJ471      0.0183
     21  C1        -8.2020  -28.5200   13.4350 C.3   471  ACJ471      0.4186
     22  F1        -8.4890  -27.1450   13.2310 F     471  ACJ471     -0.1659
     23  F2        -8.3080  -29.1920   12.1900 F     471  ACJ471     -0.1659
     24  F3        -9.1520  -29.0800   14.3160 F     471  ACJ471     -0.1659
@<TRIPOS>BOND
     1     9     7    2
     2    13     7    2
     3     7     5    1
     4    23    21    1
     5     1     2   ar
     6     5     8   ar
     7     5    15   ar
     8     8    10   ar
     9    17    14   ar
    10    17    18   ar
    11    22    21    1
    12    21    18    1
    13    21    24    1
    14     2    15    1
    15     2     3   ar
    16    15     4   ar
    17    14    12   ar
    18    10     6   ar
    19    18    20   ar
    20     4     6   ar
    21     6    11    1
    22    12    11    1
    23    12    16   ar
    24    20    16   ar
    25    16    19    1
