@<TRIPOS>MOLECULE
3i6i_NDP_A_1.pdb
 48 52 0 0 0
SMALL
GASTEIGER

@<TRIPOS>ATOM
      1  PA         1.1400    7.4950   21.0860 P.3   350  NDP350      0.2189
      2  O1A        0.0770    8.5170   20.7640 O.2   350  NDP350     -0.5170
      3  O2A        0.7400    6.2650   22.0970 O.3   350  NDP350     -0.4371
      4  O5B        2.4930    8.1050   21.7080 O.3   350  NDP350     -0.3112
      5  C5B        3.0810    9.2250   21.1240 C.3   350  NDP350      0.1813
      6  C4B        4.1750    9.7620   21.9650 C.3   350  NDP350      0.1820
      7  O4B        4.6780   10.8870   21.1450 O.3   350  NDP350     -0.3136
      8  C3B        3.6580   10.3770   23.2910 C.3   350  NDP350      0.2157
      9  O3B        4.6220   10.2170   24.3660 O.3   350  NDP350     -0.2175
     10  C2B        3.5040   11.8570   22.9480 C.3   350  NDP350      0.2314
     11  O2B        3.6560   12.6480   24.1270 O.3   350  NDP350     -0.2630
     12  C1B        4.7310   12.0470   22.0600 C.3   350  NDP350      0.3158
     13  N9A        4.7400   13.2440   21.2190 N.pl3 350  NDP350     -0.1439
     14  C8A        3.8390   13.5390   20.2820 C.3   350  NDP350      0.3377
     15  N7A        4.1850   14.6870   19.6950 N.2   350  NDP350     -0.2095
     16  C5A        5.3230   15.1160   20.2500 C.2   350  NDP350      0.2526
     17  C6A        6.1330   16.2350   20.0470 C.2   350  NDP350      0.4393
     18  N6A        5.8230   17.1380   19.1140 N.pl3 350  NDP350      0.2180
     19  N1A        7.2390   16.3830   20.8030 N.2   350  NDP350      0.0021
     20  C2A        7.5620   15.4680   21.7150 C.3   350  NDP350      0.5254
     21  N3A        6.8200   14.3740   21.9300 N.2   350  NDP350     -0.0055
     22  C4A        5.6880   14.1920   21.2130 C.2   350  NDP350      0.3518
     23  O3         1.6040    6.8310   19.7060 O.3   350  NDP350     -0.2703
     24  PN         1.6860    5.2570   19.2680 P.3   350  NDP350      0.2189
     25  O1N        2.5000    4.3430   20.1030 O.3   350  NDP350     -0.4371
     26  O2N        0.1850    4.8780   18.9840 O.2   350  NDP350     -0.5170
     27  O5D        2.3140    5.4790   17.7640 O.3   350  NDP350     -0.3112
     28  C5D        3.7360    5.5450   17.5830 C.3   350  NDP350      0.1813
     29  C4D        4.0750    5.0590   16.2020 C.3   350  NDP350      0.1799
     30  O4D        3.7880    3.6340   16.2580 O.3   350  NDP350     -0.3324
     31  C3D        3.2420    5.6370   15.0850 C.3   350  NDP350      0.2158
     32  O3D        4.0570    5.7370   13.9210 O.3   350  NDP350     -0.2175
     33  C2D        2.2030    4.5550   14.8570 C.3   350  NDP350      0.2312
     34  O2D        1.8590    4.5700   13.4860 O.3   350  NDP350     -0.2158
     35  C1D        2.9730    3.2700   15.1520 C.3   350  NDP350      0.2299
     36  N1N        2.1680    2.1490   15.7580 N.pl3 350  NDP350     -0.2608
     37  C2N        2.3220    0.8090   15.3260 C.2   350  NDP350      0.0678
     38  C3N        1.3800   -0.0930   15.5930 C.2   350  NDP350      0.0537
     39  C7N        1.5740   -1.5540   15.1440 C.2   350  NDP350      0.2818
     40  O7N        2.6140   -1.9100   14.5780 O.2   350  NDP350     -0.2670
     41  N7N        0.6130   -2.4010   15.4720 N.am  350  NDP350     -0.0839
     42  C4N        0.1170    0.3350   16.3570 C.3   350  NDP350      0.0597
     43  C5N        0.3820    1.5740   17.2050 C.2   350  NDP350     -0.0051
     44  C6N        1.4020    2.3770   16.9320 C.2   350  NDP350      0.0630
     45  P2B        2.3190   13.4870   24.6990 P.3   350  NDP350      0.5328
     46  O1X        1.3090   12.5230   25.2090 O.3   350  NDP350     -0.1145
     47  O2X        2.9500   14.4900   25.7590 O.3   350  NDP350     -0.1145
     48  O3X        1.7760   14.3340   23.4770 O.2   350  NDP350     -0.2224
@<TRIPOS>BOND
     1    34    33    1
     2    32    31    1
     3    40    39    2
     4    33    31    1
     5    33    35    1
     6    31    29    1
     7    39    41   am
     8    39    38    1
     9    35    36    1
    10    35    30    1
    11    37    38    2
    12    37    36    1
    13    38    42    1
    14    36    44    1
    15    29    30    1
    16    29    28    1
    17    42    43    1
    18    44    43    2
    19    28    27    1
    20    27    24    1
    21    26    24    2
    22    18    17    1
    23    24    23    1
    24    24    25    1
    25    15    16    2
    26    15    14    1
    27    23     1    1
    28    17    16    1
    29    17    19    2
    30    16    22    1
    31    14    13    1
    32     2     1    2
    33    19    20    1
    34     1     4    1
    35     1     3    1
    36     5     4    1
    37     5     6    1
    38     7     6    1
    39     7    12    1
    40    22    13    1
    41    22    21    2
    42    13    12    1
    43    20    21    1
    44     6     8    1
    45    12    10    1
    46    10     8    1
    47    10    11    1
    48     8     9    1
    49    48    45    2
    50    11    45    1
    51    45    46    1
    52    45    47    1
