@<TRIPOS>MOLECULE
3i6m_G3X_A_1.pdb
 29 33 0 0 0
SMALL
GASTEIGER

@<TRIPOS>ATOM
      1  C1         2.5760   68.0970   63.2320 C.2     1  G3X1       -0.0211
      2  C2         2.7350   68.5370   61.9470 C.2     1  G3X1        0.0021
      3  C3         4.1020   68.5730   61.2700 C.3     1  G3X1        0.1773
      4  C4         5.1840   68.8450   62.3430 C.3     1  G3X1        0.0816
      5  O5         5.4180   66.4380   62.9160 O.3     1  G3X1       -0.4757
      6  C6         4.7220   64.1510   63.7200 C.ar    1  G3X1        0.1721
      7  C7         3.7750   63.4550   64.5180 C.ar    1  G3X1        0.0397
      8  C8         2.7550   64.1640   65.1940 C.ar    1  G3X1        0.0001
      9  C9         1.4690   66.2790   65.7830 C.3     1  G3X1        0.0989
     10  N10        1.8830   67.3520   66.7520 N.3     1  G3X1       -0.2689
     11  C11        2.3970   68.6250   66.1400 C.3     1  G3X1        0.0732
     12  C12        3.7720   68.4980   65.4610 C.3     1  G3X1        0.0290
     13  C13        4.6330   65.5580   63.6060 C.ar    1  G3X1        0.1682
     14  C14        3.6240   66.2330   64.2900 C.ar    1  G3X1        0.0187
     15  C15        2.6630   65.5720   65.0880 C.ar    1  G3X1       -0.0066
     16  C16        5.4870   62.1210   62.7380 C.3     1  G3X1        0.2526
     17  O17        5.7690   63.4940   63.0770 O.3     1  G3X1       -0.4684
     18  O18        4.3090   67.3090   60.6060 O.3     1  G3X1       -0.2182
     19  C19        0.7920   67.6620   67.7080 C.3     1  G3X1        0.0738
     20  C20        0.6320   66.6180   68.8170 C.3     1  G3X1        0.0346
     21  C21        1.8410   66.5920   69.7480 C.3     1  G3X1        0.0735
     22  N22        2.9890   65.9680   69.0730 N.3     1  G3X1       -0.2726
     23  C23        3.1530   64.5320   69.4200 C.3     1  G3X1        0.0721
     24  C24        4.2150   63.9100   68.5060 C.3     1  G3X1        0.0174
     25  C25        5.5220   64.7140   68.5980 C.3     1  G3X1        0.0029
     26  C26        5.2840   66.1830   68.2300 C.3     1  G3X1        0.0174
     27  C27        4.2200   66.7890   69.1470 C.3     1  G3X1        0.0721
     28  C41        5.1390   67.7630   63.4890 C.3     1  G3X1        0.1762
     29  C42        3.7170   67.6190   64.1980 C.3     1  G3X1        0.0780
@<TRIPOS>BOND
     1    18     3    1
     2     3     2    1
     3     3     4    1
     4     2     1    2
     5     4    28    1
     6    16    17    1
     7     5    28    1
     8     5    13    1
     9    17     6    1
    10     1    29    1
    11    28    29    1
    12    13     6   ar
    13    13    14   ar
    14     6     7   ar
    15    29    14    1
    16    29    12    1
    17    14    15   ar
    18     7     8   ar
    19    15     8   ar
    20    15     9    1
    21    12    11    1
    22     9    10    1
    23    11    10    1
    24    10    19    1
    25    19    20    1
    26    26    25    1
    27    26    27    1
    28    24    25    1
    29    24    23    1
    30    20    21    1
    31    22    27    1
    32    22    23    1
    33    22    21    1
