@<TRIPOS>MOLECULE
3i6n_ISZ_A_1.pdb
 10 10 0 0 0
SMALL
GASTEIGER

@<TRIPOS>ATOM
      1  C2         4.8670    2.7290   30.1630 C.ar  607  ISZ607      0.0253
      2  C4         5.5320    2.0640   29.1230 C.ar  607  ISZ607      0.0990
      3  N1         5.8750    2.6350   27.9520 N.ar  607  ISZ607     -0.2423
      4  C5         5.5470    3.9390   27.7910 C.ar  607  ISZ607      0.0990
      5  C3         4.8820    4.7010   28.7670 C.ar  607  ISZ607      0.0253
      6  C1         4.5320    4.0830   29.9830 C.ar  607  ISZ607      0.0595
      7  C6         3.8150    4.7910   31.1130 C.2   607  ISZ607      0.2823
      8  O1         2.5850    4.6890   31.1560 O.2   607  ISZ607     -0.2669
      9  N2         4.5060    5.4970   32.0260 N.am  607  ISZ607     -0.0886
     10  N3         5.2260    6.6030   32.5740 N.3   607  ISZ607      0.0074
@<TRIPOS>BOND
     1     4     3   ar
     2     4     5   ar
     3     3     2   ar
     4     5     6   ar
     5     2     1   ar
     6     6     1   ar
     7     6     7    1
     8     7     8    2
     9     7     9   am
    10     9    10    1
