@<TRIPOS>MOLECULE
3i6n_HEM_A_1.pdb
 43 50 0 0 0
SMALL
GASTEIGER

@<TRIPOS>ATOM
      1  CHA        8.7720    0.2750   29.1580 C.2   605  HEM605      0.0000
      2  CHB        9.2690    4.9400   29.1690 C.2   605  HEM605      0.0000
      3  CHC       10.8890    4.5410   24.7360 C.2   605  HEM605      0.0000
      4  CHD       10.9220   -0.1700   24.8600 C.2   605  HEM605      0.0000
      5  C1A        8.7580    1.5200   29.5940 C.2   605  HEM605      0.0000
      6  C2A        8.2990    1.9540   30.9490 C.2   605  HEM605      0.0000
      7  C3A        8.4340    3.2780   30.9440 C.2   605  HEM605      0.0000
      8  C4A        8.9640    3.6580   29.6350 C.2   605  HEM605      0.0000
      9  CMA        8.0820    4.2270   32.0930 C.3   605  HEM605      0.0000
     10  CAA        7.7850    0.9960   32.0630 C.3   605  HEM605      0.0000
     11  CBA        8.8860    0.3730   32.8940 C.3   605  HEM605      0.0000
     12  CGA        8.4000   -0.7100   33.8380 C.2   605  HEM605      0.0000
     13  O1A        7.5200   -0.4430   34.7470 O.co2 605  HEM605      0.0000
     14  O2A        8.9330   -1.8580   33.6610 O.co2 605  HEM605      0.0000
     15  C1B        9.7010    5.2720   27.9030 C.ar  605  HEM605      0.0000
     16  C2B        9.7230    6.5990   27.3450 C.ar  605  HEM605      0.0000
     17  C3B       10.1960    6.4480   26.0870 C.ar  605  HEM605      0.0000
     18  C4B       10.4030    5.0490   25.8720 C.ar  605  HEM605      0.0000
     19  CMB        9.3700    7.9170   28.0390 C.3   605  HEM605      0.0000
     20  CAB       10.4730    7.5410   24.9880 C.2   605  HEM605      0.0000
     21  CBB       10.7210    8.8590   25.2890 C.2   605  HEM605      0.0000
     22  C1C       11.0830    3.2470   24.3580 C.2   605  HEM605      0.0000
     23  C2C       11.7070    2.7810   23.0880 C.2   605  HEM605      0.0000
     24  C3C       11.7240    1.4150   23.1400 C.2   605  HEM605      0.0000
     25  C4C       11.1160    1.0910   24.4050 C.2   605  HEM605      0.0000
     26  CMC       12.2830    3.6650   21.9120 C.3   605  HEM605      0.0000
     27  CAC       12.2420    0.3340   22.1020 C.2   605  HEM605      0.0000
     28  CBC       12.7230    0.5260   20.8680 C.2   605  HEM605      0.0000
     29  C1D       10.2670   -0.4400   26.0590 C.ar  605  HEM605      0.0000
     30  C2D        9.8200   -1.7230   26.3070 C.ar  605  HEM605      0.0000
     31  C3D        9.1680   -1.6440   27.6760 C.ar  605  HEM605      0.0000
     32  C4D        9.2810   -0.2300   28.0050 C.ar  605  HEM605      0.0000
     33  CMD        9.9380   -3.0080   25.5160 C.3   605  HEM605      0.0000
     34  CAD        8.5290   -2.9520   28.3490 C.3   605  HEM605      0.0000
     35  CBD        6.9870   -3.1510   27.8840 C.3   605  HEM605      0.0000
     36  CGD        6.1790   -4.1750   28.6610 C.2   605  HEM605      0.0000
     37  O1D        5.8930   -5.2290   28.0800 O.co2 605  HEM605      0.0000
     38  O2D        5.8410   -3.9350   29.8580 O.co2 605  HEM605      0.0000
     39  NA         9.1430    2.5600   28.8510 N.2   605  HEM605      0.0000
     40  NB        10.0530    4.3530   26.9710 N.ar  605  HEM605      0.0000
     41  NC        10.7440    2.1990   25.1370 N.2   605  HEM605      0.0000
     42  ND         9.9210    0.4550   27.0410 N.ar  605  HEM605      0.0000
     43 FE          9.7360    2.3250   26.9530 Fe    605  HEM605      0.0000
@<TRIPOS>BOND
     1    28    27    2
     2    26    23    1
     3    27    24    1
     4    23    24    2
     5    23    22    1
     6    24    25    1
     7    22     3    2
     8    22    41    1
     9    25     4    1
    10    25    41    2
    11     3    18    1
    12     4    29    2
    13    20    21    2
    14    20    17    1
    15    41    43    1
    16    33    30    1
    17    18    17   ar
    18    18    40   ar
    19    29    30   ar
    20    29    42   ar
    21    17    16   ar
    22    30    31   ar
    23    43    40    1
    24    43    42    1
    25    43    39    1
    26    40    15   ar
    27    42    32   ar
    28    16    15   ar
    29    16    19    1
    30    31    32   ar
    31    31    34    1
    32    35    34    1
    33    35    36    1
    34    15     2    1
    35    32     1    2
    36    37    36   ar
    37    36    38   ar
    38    39     5    2
    39    39     8    1
    40     1     5    1
    41     2     8    2
    42     5     6    1
    43     8     7    1
    44     7     6    2
    45     7     9    1
    46     6    10    1
    47    10    11    1
    48    11    12    1
    49    14    12   ar
    50    12    13   ar
