@<TRIPOS>MOLECULE
3i6o_GR6_B_1.pdb
 44 48 0 0 0
SMALL
GASTEIGER

@<TRIPOS>ATOM
      1  C1        12.2980  -24.8740   -3.0270 C.ar  301  GR6301      0.1418
      2  C2        12.2880  -24.6470   -4.3990 C.ar  301  GR6301      0.0751
      3  C3        13.3080  -23.8730   -4.9640 C.ar  301  GR6301      0.1600
      4  C4        14.3120  -23.3440   -4.1530 C.ar  301  GR6301      0.1561
      5  C5        14.3090  -23.5820   -2.7740 C.ar  301  GR6301      0.0261
      6  C6        13.3060  -24.3430   -2.2120 C.ar  301  GR6301      0.0385
      7  S7        15.7530  -22.4820   -4.7990 S.O2  301  GR6301      0.0663
      8  O8        16.6680  -22.3720   -3.6950 O.2   301  GR6301     -0.1527
      9  O9        16.1650  -23.1850   -6.0180 O.2   301  GR6301     -0.1527
     10  N10       15.3190  -20.9300   -5.2780 N.3   301  GR6301     -0.1524
     11  C11       14.7970  -20.7160   -6.6240 C.3   301  GR6301      0.1006
     12  C12       15.8950  -20.5540   -7.6900 C.3   301  GR6301      0.0452
     13  C13       15.3940  -19.9670   -9.0280 C.2   301  GR6301     -0.0246
     14  C14       14.4310  -20.8270   -9.8590 C.2   301  GR6301     -0.0049
     15  C15       15.1890  -19.9300   -4.2080 C.3   301  GR6301      0.1304
     16  C16       16.1710  -18.7890   -4.5560 C.3   301  GR6301      0.1898
     17  O17       15.7850  -17.6530   -3.7710 O.3   301  GR6301     -0.2197
     18  C18       17.6510  -19.1450   -4.3330 C.3   301  GR6301      0.1347
     19  N19       18.4780  -18.0470   -4.8860 N.am  301  GR6301     -0.1675
     20  C20       19.1830  -18.2540   -6.0300 C.2   301  GR6301      0.4211
     21  O21       19.3370  -19.3000   -6.6390 O.2   301  GR6301     -0.2246
     22  O22       19.7110  -17.0650   -6.4030 O.3   301  GR6301     -0.4345
     23  C23       20.7190  -17.0650   -7.4440 C.3   301  GR6301      0.2048
     24  C24       20.4390  -15.7750   -8.2300 C.3   301  GR6301      0.1884
     25  O25       20.9550  -14.7120   -7.4440 O.3   301  GR6301     -0.3265
     26  C26       22.1180  -15.1590   -6.7360 C.3   301  GR6301      0.2388
     27  O27       21.9890  -14.8090   -5.3870 O.3   301  GR6301     -0.3304
     28  C28       21.7960  -15.9580   -4.5390 C.3   301  GR6301      0.1451
     29  C29       22.3320  -17.1240   -5.3550 C.3   301  GR6301      0.0409
     30  C30       22.1000  -16.7070   -6.8250 C.3   301  GR6301      0.1016
     31  C31       17.9910  -19.2580   -2.8050 C.3   301  GR6301      0.0508
     32  C32       20.2950  -18.4630   -2.1380 C.ar  301  GR6301     -0.0042
     33  C33       21.6730  -18.6280   -2.0280 C.ar  301  GR6301     -0.0003
     34  C34       22.2450  -19.8270   -2.4900 C.ar  301  GR6301     -0.0000
     35  C35       21.4550  -20.8390   -3.0510 C.ar  301  GR6301     -0.0003
     36  C36       20.0820  -20.6600   -3.1540 C.ar  301  GR6301     -0.0042
     37  C37       19.4930  -19.4690   -2.6970 C.ar  301  GR6301     -0.0204
     38  O38       11.3380  -25.6150   -2.4170 O.3   301  GR6301     -0.4713
     39  C39       10.5340  -26.4300   -3.2670 C.3   301  GR6301      0.2525
     40  O40       13.3490  -23.6150   -6.3180 O.3   301  GR6301     -0.4736
     41  C41       12.2820  -24.1260   -7.1400 C.3   301  GR6301      0.2101
     42  C42       12.5580  -23.9800   -8.6270 C.3   301  GR6301      0.0733
     43  C43       12.8540  -22.5590   -9.0040 C.2   301  GR6301     -0.0223
     44  C44       14.0780  -22.2260   -9.4680 C.2   301  GR6301     -0.0048
@<TRIPOS>BOND
     1    14    44    1
     2    14    13    2
     3    44    43    2
     4    13    12    1
     5    43    42    1
     6    42    41    1
     7    24    23    1
     8    24    25    1
     9    12    11    1
    10    23    30    1
    11    23    22    1
    12    25    26    1
    13    41    40    1
    14    30    26    1
    15    30    29    1
    16    26    27    1
    17    21    20    2
    18    11    10    1
    19    22    20    1
    20    40     3    1
    21    20    19   am
    22     9     7    2
    23    27    28    1
    24    29    28    1
    25    10     7    1
    26    10    15    1
    27     3     2   ar
    28     3     4   ar
    29    19    18    1
    30     7     4    1
    31     7     8    2
    32    16    18    1
    33    16    15    1
    34    16    17    1
    35     2     1   ar
    36    18    31    1
    37     4     5   ar
    38    39    38    1
    39    36    35   ar
    40    36    37   ar
    41    35    34   ar
    42     1    38    1
    43     1     6   ar
    44    31    37    1
    45     5     6   ar
    46    37    32   ar
    47    34    33   ar
    48    32    33   ar
