@<TRIPOS>MOLECULE
3i6q_NDP_A_1.pdb
 48 52 0 0 0
SMALL
GASTEIGER

@<TRIPOS>ATOM
      1  PA         1.1790    7.6980   20.6890 P.3   360  NDP360      0.2189
      2  O1A        0.1330    8.5990   20.1350 O.2   360  NDP360     -0.5170
      3  O2A        0.7340    6.5280   21.5800 O.3   360  NDP360     -0.4371
      4  O5B        2.3680    8.4520   21.3500 O.3   360  NDP360     -0.3112
      5  C5B        2.9920    9.5410   20.6530 C.3   360  NDP360      0.1813
      6  C4B        4.1120   10.1070   21.4990 C.3   360  NDP360      0.1820
      7  O4B        4.7180   11.2050   20.7550 O.3   360  NDP360     -0.3136
      8  C3B        3.5070   10.7370   22.7840 C.3   360  NDP360      0.2157
      9  O3B        4.3590   10.4240   23.8900 O.3   360  NDP360     -0.2175
     10  C2B        3.5360   12.2280   22.4600 C.3   360  NDP360      0.2314
     11  O2B        3.6780   13.0310   23.6320 O.3   360  NDP360     -0.2630
     12  C1B        4.8090   12.3470   21.6280 C.3   360  NDP360      0.3158
     13  N9A        4.8660   13.5380   20.7400 N.pl3 360  NDP360     -0.1439
     14  C8A        3.9820   13.8350   19.7840 C.3   360  NDP360      0.3377
     15  N7A        4.3420   14.9530   19.1660 N.2   360  NDP360     -0.2095
     16  C5A        5.4730   15.3770   19.7200 C.2   360  NDP360      0.2526
     17  C6A        6.2850   16.4840   19.4850 C.2   360  NDP360      0.4393
     18  N6A        5.9860   17.3700   18.5250 N.pl3 360  NDP360      0.2180
     19  N1A        7.3850   16.6370   20.2370 N.2   360  NDP360      0.0021
     20  C2A        7.6830   15.7630   21.1940 C.3   360  NDP360      0.5254
     21  N3A        6.9220   14.6930   21.4420 N.2   360  NDP360     -0.0055
     22  C4A        5.8060   14.4830   20.7240 C.2   360  NDP360      0.3518
     23  O3         1.9730    6.9190   19.3560 O.3   360  NDP360     -0.2703
     24  PN         1.8240    5.3960   18.8760 P.3   360  NDP360      0.2189
     25  O1N        0.3790    5.3700   18.8050 O.2   360  NDP360     -0.5170
     26  O2N        2.7380    4.8070   20.0480 O.3   360  NDP360     -0.4371
     27  O5D        2.5990    5.8510   17.4860 O.3   360  NDP360     -0.3112
     28  C5D        3.9800    5.5790   17.3050 C.3   360  NDP360      0.1813
     29  C4D        4.2830    5.0410   15.8580 C.3   360  NDP360      0.1799
     30  O4D        3.9460    3.6200   15.8890 O.3   360  NDP360     -0.3324
     31  C3D        3.4440    5.6750   14.7380 C.3   360  NDP360      0.2158
     32  O3D        4.2910    5.8900   13.5940 O.3   360  NDP360     -0.2175
     33  C2D        2.3870    4.6240   14.4300 C.3   360  NDP360      0.2312
     34  O2D        1.9860    4.6500   13.0370 O.3   360  NDP360     -0.2158
     35  C1D        3.0550    3.3140   14.8000 C.3   360  NDP360      0.2299
     36  N1N        2.0970    2.2970   15.3010 N.pl3 360  NDP360     -0.2608
     37  C2N        2.3180    0.9380   15.0630 C.2   360  NDP360      0.0678
     38  C3N        1.4430    0.0250   15.4880 C.2   360  NDP360      0.0537
     39  C7N        1.6250   -1.4550   15.1070 C.2   360  NDP360      0.2818
     40  O7N        0.8210   -2.3160   15.4550 O.2   360  NDP360     -0.2670
     41  N7N        2.7100   -1.7290   14.3860 N.am  360  NDP360     -0.0839
     42  C4N        0.2280    0.4350   16.3450 C.3   360  NDP360      0.0597
     43  C5N        0.4670    1.8000   17.0050 C.2   360  NDP360     -0.0051
     44  C6N        1.3550    2.6340   16.4860 C.2   360  NDP360      0.0630
     45  P2B        2.3770   13.7450   24.2820 P.3   360  NDP360      0.5328
     46  O1X        1.5360   12.7220   24.9450 O.3   360  NDP360     -0.1145
     47  O2X        3.0720   14.8080   25.2710 O.3   360  NDP360     -0.1145
     48  O3X        1.6570   14.5680   23.1180 O.2   360  NDP360     -0.2224
@<TRIPOS>BOND
     1    34    33    1
     2    32    31    1
     3    41    39   am
     4    33    31    1
     5    33    35    1
     6    31    29    1
     7    35    36    1
     8    35    30    1
     9    37    36    1
    10    37    38    2
    11    39    40    2
    12    39    38    1
    13    36    44    1
    14    38    42    1
    15    29    30    1
    16    29    28    1
    17    42    43    1
    18    44    43    2
    19    28    27    1
    20    27    24    1
    21    18    17    1
    22    25    24    2
    23    24    23    1
    24    24    26    1
    25    15    16    2
    26    15    14    1
    27    23     1    1
    28    17    16    1
    29    17    19    2
    30    16    22    1
    31    14    13    1
    32     2     1    2
    33    19    20    1
    34     5     4    1
    35     5     6    1
    36     1     4    1
    37     1     3    1
    38    22    13    1
    39    22    21    2
    40    13    12    1
    41     7     6    1
    42     7    12    1
    43    20    21    1
    44     6     8    1
    45    12    10    1
    46    10     8    1
    47    10    11    1
    48     8     9    1
    49    48    45    2
    50    11    45    1
    51    45    46    1
    52    45    47    1
