@<TRIPOS>MOLECULE
3i6r_J5Z_A_1.pdb
 21 23 0 0 0
SMALL
GASTEIGER

@<TRIPOS>ATOM
      1  C1        -4.2970   29.8740   14.1390 C.ar  1001  J5Z1001     0.0465
      2  N1        -3.2860   27.8030   14.7350 N.2   1001  J5Z1001    -0.0407
      3  C2        -4.3600   28.5170   14.3260 C.ar  1001  J5Z1001     0.1930
      4  N2        -1.5600   27.2390   16.1590 N.pl3 1001  J5Z1001     0.0159
      5  C3        -5.4760   27.8560   13.8890 C.ar  1001  J5Z1001     0.0465
      6  N3        -1.0830   26.2240   15.4030 N.2   1001  J5Z1001    -0.0486
      7  C4        -6.5150   28.5300   13.2890 C.ar  1001  J5Z1001     0.0077
      8  N4         0.2390   26.6930   17.0740 N.2   1001  J5Z1001    -0.1228
      9  N5        -0.9940   28.4630   18.0430 N.2   1001  J5Z1001    -0.3256
     10  C8        -7.5880   30.6400   12.4720 C.3   1001  J5Z1001     0.4186
     11  C9        -6.4650   29.8940   13.1250 C.ar  1001  J5Z1001     0.0717
     12  C10       -5.3380   30.5540   13.5530 C.ar  1001  J5Z1001     0.0077
     13  C11       -2.6750   27.8950   15.9370 C.2   1001  J5Z1001     0.3452
     14  C12       -2.9620   28.9030   16.8310 C.3   1001  J5Z1001     0.1759
     15  C13       -2.1050   29.1710   17.8880 C.2   1001  J5Z1001     0.1140
     16  C14       -2.4190   30.2550   18.8690 C.3   1001  J5Z1001     0.0632
     17  C15       -0.7840   27.5190   17.1430 C.1   1001  J5Z1001     0.2726
     18  C16        0.0580   25.9030   16.0120 C.2   1001  J5Z1001     0.2568
     19  F22       -7.2290   31.8350   12.2010 F     1001  J5Z1001    -0.1659
     20  F23       -7.9690   30.1390   11.3620 F     1001  J5Z1001    -0.1659
     21  F24       -8.6150   30.7140   13.2230 F     1001  J5Z1001    -0.1659
@<TRIPOS>BOND
     1    20    10    1
     2    19    10    1
     3    10    11    1
     4    10    21    1
     5    11     7   ar
     6    11    12   ar
     7     7     5   ar
     8    12     1   ar
     9     5     3   ar
    10     1     3   ar
    11     3     2    1
    12     2    13    2
    13     6    18    2
    14     6     4    1
    15    13     4    1
    16    13    14    1
    17    18     8    1
    18     4    17    1
    19    14    15    1
    20     8    17    2
    21    17     9    2
    22    15     9    2
    23    15    16    1
