@<TRIPOS>MOLECULE
3i6r_FMN_A_1.pdb
 31 33 0 0 0
SMALL
GASTEIGER

@<TRIPOS>ATOM
      1  N1         3.0190   21.1900    4.1700 N.2   1002  FMN1002    -0.2887
      2  C2         2.4710   20.1870    3.4050 C.1   1002  FMN1002     0.3669
      3  O2         2.6870   20.1830    2.1990 O.2   1002  FMN1002    -0.1744
      4  N3         1.6960   19.2090    4.0000 N.2   1002  FMN1002    -0.2300
      5  C4         1.4720   19.2320    5.3690 C.1   1002  FMN1002     0.2513
      6  O4         0.6910   18.4160    5.8690 O.2   1002  FMN1002    -0.2057
      7  C4A        2.0310   20.2540    6.1420 C.2   1002  FMN1002     0.2706
      8  N5         1.8260   20.3240    7.5110 N.2   1002  FMN1002    -0.3841
      9  C5A        2.3840   21.3410    8.2660 C.2   1002  FMN1002     0.1452
     10  C6         2.1670   21.3900    9.6430 C.2   1002  FMN1002     0.0252
     11  C7         2.7230   22.4200   10.4120 C.2   1002  FMN1002    -0.0375
     12  C7M        2.3460   22.5320   11.8620 C.3   1002  FMN1002     0.0268
     13  C8         3.5060   23.4050    9.7990 C.3   1002  FMN1002     0.0417
     14  C8M        3.7890   24.7060   10.4910 C.3   1002  FMN1002     0.0091
     15  C9         3.7220   23.3400    8.4200 C.2   1002  FMN1002    -0.0049
     16  C9A        3.1620   22.3170    7.6450 C.2   1002  FMN1002     0.0795
     17  N10        3.3650   22.2560    6.2680 N.pl3 1002  FMN1002    -0.2545
     18  C10        2.8050   21.2340    5.5290 C.2   1002  FMN1002     0.2449
     19  C1'        4.1960   23.2770    5.5480 C.3   1002  FMN1002     0.1336
     20  C2'        3.3180   24.4830    5.2240 C.3   1002  FMN1002     0.2048
     21  O2'        2.2960   24.1020    4.3260 O.3   1002  FMN1002    -0.2185
     22  C3'        4.1160   25.6420    4.6340 C.3   1002  FMN1002     0.2165
     23  O3'        4.6360   25.2370    3.3930 O.3   1002  FMN1002    -0.2175
     24  C4'        5.2460   26.1280    5.5440 C.3   1002  FMN1002     0.2147
     25  O4'        4.7550   26.3230    6.8490 O.3   1002  FMN1002    -0.2176
     26  C5'        5.8460   27.4480    5.0760 C.3   1002  FMN1002     0.1892
     27  O5'        4.8760   28.4630    5.1780 O.3   1002  FMN1002    -0.2674
     28  P          4.8960   29.5320    6.3790 P.3   1002  FMN1002     0.5327
     29  O1P        4.5140   28.8070    7.6400 O.3   1002  FMN1002    -0.1145
     30  O2P        3.8910   30.6250    6.1320 O.2   1002  FMN1002    -0.2224
     31  O3P        6.2730   30.1300    6.4840 O.3   1002  FMN1002    -0.1145
@<TRIPOS>BOND
     1     3     2    2
     2    23    22    1
     3     2     4    2
     4     2     1    2
     5     4     5    2
     6     1    18    2
     7    21    20    1
     8    22    20    1
     9    22    24    1
    10    26    27    1
    11    26    24    1
    12    27    28    1
    13    20    19    1
    14     5     6    2
    15     5     7    1
    16    18     7    1
    17    18    17    1
    18    24    25    1
    19    19    17    1
    20    30    28    2
    21     7     8    2
    22    17    16    1
    23    28    31    1
    24    28    29    1
    25     8     9    2
    26    16     9    1
    27    16    15    2
    28     9    10    1
    29    15    13    1
    30    10    11    2
    31    13    11    1
    32    13    14    1
    33    11    12    1
