@<TRIPOS>MOLECULE
3i6v_LYS_A_1.pdb
 10 9 0 0 0
SMALL
GASTEIGER

@<TRIPOS>ATOM
      1  N        -52.8120  -30.8070   -9.1420 N.3     1  LYS1       -0.1208
      2  CA       -53.0790  -29.5000   -9.8280 C.3     1  LYS1        0.1943
      3  C        -52.0480  -28.4630   -9.4430 C.2     1  LYS1        0.3819
      4  O        -51.2450  -28.7300   -8.5380 O.co2   1  LYS1       -0.2441
      5  CB       -54.5000  -28.9880   -9.4840 C.3     1  LYS1        0.0307
      6  CG       -54.7080  -28.5840   -8.0240 C.3     1  LYS1        0.0036
      7  CD       -56.2000  -28.1610   -7.7940 C.3     1  LYS1        0.0206
      8  CE       -56.4770  -27.6510   -6.3320 C.3     1  LYS1        0.1093
      9  NZ       -57.9890  -27.3580   -6.1480 N.3     1  LYS1       -0.1314
     10  OXT      -52.0180  -27.3360  -10.0160 O.co2   1  LYS1       -0.2441
@<TRIPOS>BOND
     1    10     3   ar
     2     2     5    1
     3     2     3    1
     4     2     1    1
     5     5     6    1
     6     3     4   ar
     7     6     7    1
     8     7     8    1
     9     8     9    1
