@<TRIPOS>MOLECULE
3i6z_G6X_A_1.pdb
 38 43 0 0 0
SMALL
GASTEIGER

@<TRIPOS>ATOM
      1  C1         2.5230   67.7400   63.3090 C.2     1  G6X1       -0.0211
      2  C2         2.6200   68.1660   62.0160 C.2     1  G6X1        0.0021
      3  C3         3.9640   68.2530   61.2790 C.3     1  G6X1        0.1773
      4  C4         5.1150   68.4910   62.2850 C.3     1  G6X1        0.0816
      5  O5         5.2730   66.0890   62.8530 O.3     1  G6X1       -0.4757
      6  C6         4.6560   63.8350   63.7980 C.ar    1  G6X1        0.1721
      7  C7         3.8050   63.1620   64.7150 C.ar    1  G6X1        0.0397
      8  C8         2.8860   63.8900   65.4950 C.ar    1  G6X1        0.0001
      9  C9         1.8310   66.0100   66.3560 C.3     1  G6X1        0.0989
     10  N10        2.4810   67.1560   67.0720 N.3     1  G6X1       -0.2689
     11  C11        2.5860   68.4070   66.2960 C.3     1  G6X1        0.0732
     12  C12        3.8440   68.3840   65.3740 C.3     1  G6X1        0.0290
     13  C13        4.5620   65.2380   63.6580 C.ar    1  G6X1        0.1682
     14  C14        3.6490   65.9490   64.4410 C.ar    1  G6X1        0.0187
     15  C15        2.7970   65.2990   65.3830 C.ar    1  G6X1       -0.0066
     16  C16        5.3650   61.7930   62.8200 C.3     1  G6X1        0.2526
     17  O17        5.6510   63.1650   63.0930 O.3     1  G6X1       -0.4684
     18  O18        4.1500   67.0410   60.5370 O.3     1  G6X1       -0.2182
     19  C19        3.7330   66.8650   67.8520 C.3     1  G6X1        0.0724
     20  C20        3.5370   65.9070   69.0410 C.3     1  G6X1        0.0173
     21  C21        3.8700   64.4840   68.6240 C.3     1  G6X1        0.0015
     22  C22        4.3160   63.6070   69.8040 C.3     1  G6X1        0.0019
     23  C23        3.1820   63.1870   70.7470 C.3     1  G6X1        0.0235
     24  C24        2.1540   62.3040   70.0470 C.3     1  G6X1        0.1191
     25  N25        1.2460   61.7050   71.0480 N.am    1  G6X1       -0.1564
     26  C26        1.3910   60.4150   71.4670 C.2     1  G6X1        0.2688
     27  C27        0.2910   60.0140   72.3070 C.ar    1  G6X1        0.0739
     28  C28        0.0440   58.7670   72.9240 C.ar    1  G6X1        0.0059
     29  C29       -1.1600   58.5260   73.6190 C.ar    1  G6X1        0.0002
     30  C30       -2.1370   59.5350   73.7070 C.ar    1  G6X1        0.0014
     31  C31       -1.9000   60.7820   73.1010 C.ar    1  G6X1        0.0203
     32  C32       -0.6960   61.0160   72.4140 C.ar    1  G6X1        0.1299
     33  S33       -0.0280   62.4600   71.6350 S.O2    1  G6X1        0.0790
     34  O34        2.3270   59.6800   71.1400 O.2     1  G6X1       -0.2683
     35  O35       -0.8090   63.1790   70.5690 O.2     1  G6X1       -0.1496
     36  O36        0.4370   63.4670   72.6510 O.2     1  G6X1       -0.1496
     37  C41        5.1070   67.4230   63.4460 C.3     1  G6X1        0.1762
     38  C42        3.7270   67.3420   64.2330 C.3     1  G6X1        0.0780
@<TRIPOS>BOND
     1    18     3    1
     2     3     2    1
     3     3     4    1
     4     2     1    2
     5     4    37    1
     6    16    17    1
     7     5    37    1
     8     5    13    1
     9    17     6    1
    10     1    38    1
    11    37    38    1
    12    13     6   ar
    13    13    14   ar
    14     6     7   ar
    15    38    14    1
    16    38    12    1
    17    14    15   ar
    18     7     8   ar
    19    12    11    1
    20    15     8   ar
    21    15     9    1
    22    11    10    1
    23     9    10    1
    24    10    19    1
    25    19    20    1
    26    21    20    1
    27    21    22    1
    28    22    23    1
    29    24    23    1
    30    24    25    1
    31    35    33    2
    32    25    26   am
    33    25    33    1
    34    34    26    2
    35    26    27    1
    36    33    32    1
    37    33    36    2
    38    27    32   ar
    39    27    28   ar
    40    32    31   ar
    41    28    29   ar
    42    31    30   ar
    43    29    30   ar
