@<TRIPOS>MOLECULE
3i73_ADP_A_1.pdb
 27 29 0 0 0
SMALL
GASTEIGER

@<TRIPOS>ATOM
      1  PB       -40.1940    6.9430    0.1730 P.3   589  ADP589      0.5373
      2  O1B      -39.0540    6.6400    1.1210 O.3   589  ADP589     -0.1143
      3  O2B      -39.7350    7.6590   -1.0740 O.2   589  ADP589     -0.2221
      4  O3B      -41.1420    5.7910   -0.0790 O.3   589  ADP589     -0.1143
      5  PA       -42.6700    7.6110    1.1530 P.3   589  ADP589      0.2231
      6  O1A      -42.6860    6.4740    2.1450 O.3   589  ADP589     -0.4370
      7  O2A      -43.2300    7.3770   -0.2280 O.2   589  ADP589     -0.5169
      8  O3A      -41.1190    8.0000    0.9580 O.3   589  ADP589     -0.2261
      9  O5'      -43.3800    8.9400    1.7910 O.3   589  ADP589     -0.3111
     10  C5'      -44.7530    9.0130    2.2170 C.3   589  ADP589      0.1813
     11  C4'      -45.2650   10.4670    2.1740 C.3   589  ADP589      0.1821
     12  O4'      -46.6120   10.6470    1.6660 O.3   589  ADP589     -0.3135
     13  C3'      -45.2470   11.2640    3.4700 C.3   589  ADP589      0.2184
     14  O3'      -44.0400   11.9760    3.5970 O.3   589  ADP589     -0.2174
     15  C2'      -46.3540   12.2640    3.2680 C.3   589  ADP589      0.2570
     16  O2'      -45.9710   13.5610    2.8460 O.3   589  ADP589     -0.2130
     17  C1'      -46.8960   12.0330    1.8890 C.3   589  ADP589      0.3186
     18  N9       -48.2560   12.4410    2.2090 N.pl3 589  ADP589     -0.1439
     19  C8       -49.4350   12.1460    1.6740 C.3   589  ADP589      0.3377
     20  N7       -50.4320   12.7640    2.3330 N.2   589  ADP589     -0.2095
     21  C5       -49.8710   13.4640    3.3110 C.2   589  ADP589      0.2526
     22  C6       -50.3250   14.3380    4.3840 C.2   589  ADP589      0.4393
     23  N6       -51.6280   14.5690    4.5100 N.pl3 589  ADP589      0.2180
     24  N1       -49.3980   14.8830    5.2040 N.2   589  ADP589      0.0021
     25  C2       -48.0820   14.6500    5.0490 C.3   589  ADP589      0.5254
     26  N3       -47.5820   13.8520    4.0970 N.2   589  ADP589     -0.0055
     27  C4       -48.4280   13.2480    3.2250 C.2   589  ADP589      0.3518
@<TRIPOS>BOND
     1     3     1    2
     2     7     5    2
     3     4     1    1
     4     1     8    1
     5     1     2    1
     6     8     5    1
     7     5     9    1
     8     5     6    1
     9    12    17    1
    10    12    11    1
    11    19    18    1
    12    19    20    1
    13     9    10    1
    14    17    18    1
    15    17    15    1
    16    11    10    1
    17    11    13    1
    18    18    27    1
    19    20    21    2
    20    16    15    1
    21    27    21    1
    22    27    26    2
    23    15    13    1
    24    21    22    1
    25    13    14    1
    26    26    25    1
    27    22    23    1
    28    22    24    2
    29    25    24    1
