@<TRIPOS>MOLECULE
3i74_III_C_1.pdb
 38 38 0 0 0
SMALL
GASTEIGER

@<TRIPOS>ATOM
      1  C        -62.0490    5.2050   12.1790 C.2     1  ACE1        0.2423
      2  O        -60.8360    5.2940   12.0010 O.2     1  ACE1       -0.2733
      3  CH3      -62.7030    3.9270   12.6140 C.3     1  ACE1        0.0964
      4  N        -62.8750    6.2080   11.9000 N.am    2  PHE2       -0.1974
      5  CA       -62.4670    7.2970   11.0230 C.3     2  PHE2        0.1770
      6  C        -61.3270    8.0850   11.6550 C.2     2  PHE2        0.2619
      7  O        -61.1400    8.0520   12.8720 O.2     2  PHE2       -0.2715
      8  CB       -63.6430    8.2350   10.7480 C.3     2  PHE2        0.0574
      9  CG       -63.7770    9.3480   11.7500 C.ar    2  PHE2       -0.0200
     10  CD1      -63.1130   10.5500   11.5600 C.ar    2  PHE2       -0.0042
     11  CD2      -64.5640    9.1950   12.8810 C.ar    2  PHE2       -0.0042
     12  CE1      -63.2300   11.5790   12.4780 C.ar    2  PHE2       -0.0003
     13  CE2      -64.6850   10.2200   13.8040 C.ar    2  PHE2       -0.0003
     14  CZ       -64.0170   11.4140   13.6010 C.ar    2  PHE2       -0.0000
     15  N        -60.5650    8.7920   10.8260 N.am    3  GLU3       -0.1963
     16  CA       -59.5000    9.6560   11.3220 C.3     3  GLU3        0.1733
     17  C        -59.1960   10.7890   10.3510 C.2     3  GLU3        0.2613
     18  O        -58.8720   10.5550    9.1860 O.2     3  GLU3       -0.2715
     19  CB       -58.2290    8.8530   11.6130 C.3     3  GLU3        0.0429
     20  CG       -58.3320    7.9460   12.8280 C.3     3  GLU3        0.1163
     21  CD       -56.9830    7.6730   13.4640 C.2     3  GLU3        0.3649
     22  OE1      -56.8000    6.5720   14.0260 O.co2   3  GLU3       -0.2457
     23  OE2      -56.1060    8.5600   13.4020 O.co2   3  GLU3       -0.2457
     24  N        -59.3070   12.0190   10.8420 N.am    4  LYS4       -0.2016
     25  CA       -59.0150   13.1980   10.0380 C.3     4  LYS4        0.1425
     26  C        -57.5300   13.5370   10.1020 C.3     4  LYS4        0.2458
     27  O        -56.8210   13.0870   11.0020 O.3     4  LYS4       -0.2017
     28  CB       -59.8430   14.3910   10.5170 C.3     4  LYS4        0.0259
     29  CG       -59.5810   14.7760   11.9620 C.3     4  LYS4        0.0034
     30  CD       -60.2390   16.0980   12.3160 C.3     4  LYS4        0.0206
     31  CE       -59.8860   16.5160   13.7350 C.3     4  LYS4        0.1093
     32  NZ       -60.4170   17.8640   14.0700 N.3     4  LYS4       -0.1314
     33  C        -54.7000   14.5290    9.1550 C.2     5  ALA5        0.1668
     34  N        -56.8010   13.3780    8.8920 N.3     5  ALA5       -0.1817
     35  O        -53.5460   14.6530    8.7740 O.2     5  ALA5       -0.2946
     36  CA       -55.3710   13.1910    9.0430 C.3     5  ALA5        0.1325
     37  CB       -54.8280   12.4430    7.8320 C.3     5  ALA5        0.0269
     38  C1       -55.4710   15.6780    9.7360 C.3     6  0QE6        0.0738
@<TRIPOS>BOND
     1    37    36    1
     2    35    33    2
     3    34    36    1
     4    34    26    1
     5    36    33    1
     6    33    38    1
     7    18    17    2
     8    25    26    1
     9    25    28    1
    10    25    24    1
    11    26    27    1
    12    17    24   am
    13    17    16    1
    14    28    29    1
    15     8     5    1
    16     8     9    1
    17    15    16    1
    18    15     6   am
    19     5     6    1
    20     5     4    1
    21    16    19    1
    22    10     9   ar
    23    10    12   ar
    24    19    20    1
    25     6     7    2
    26     9    11   ar
    27     4     1   am
    28    29    30    1
    29     2     1    2
    30     1     3    1
    31    30    31    1
    32    12    14   ar
    33    20    21    1
    34    11    13   ar
    35    23    21   ar
    36    21    22   ar
    37    14    13   ar
    38    31    32    1
