@<TRIPOS>MOLECULE
3i7b_BK1_A_1.pdb
 24 27 0 0 0
SMALL
GASTEIGER

@<TRIPOS>ATOM
      1  N1        21.8880   12.4890   63.5140 N.2   701  BK1701     -0.0027
      2  C2        23.0590   13.1110   63.4270 C.3   701  BK1701      0.5248
      3  N3        23.1440   14.4290   63.3120 N.2   701  BK1701     -0.0088
      4  C4        22.0270   15.1760   63.2720 C.2   701  BK1701      0.3401
      5  C5        20.7860   14.5740   63.3540 C.3   701  BK1701      0.2601
      6  C6        20.7330   13.1780   63.4830 C.2   701  BK1701      0.4078
      7  CAA       22.5170   18.8080   63.6770 C.3   701  BK1701      0.0532
      8  CAB       23.2560   17.6370   61.5630 C.3   701  BK1701      0.0532
      9  NAC       19.5870   12.5050   63.5730 N.pl3 701  BK1701      0.2118
     10  CAD       13.5470   15.7260   65.2410 C.ar  701  BK1701     -0.0000
     11  CAE       14.1250   16.0490   64.0170 C.ar  701  BK1701     -0.0000
     12  CAF       17.8730   14.4990   66.9560 C.ar  701  BK1701     -0.0003
     13  CAG       18.4550   14.8200   65.7290 C.ar  701  BK1701     -0.0039
     14  CAH       14.3470   15.2550   66.2780 C.ar  701  BK1701     -0.0000
     15  CAI       16.5060   14.6380   67.1410 C.ar  701  BK1701     -0.0000
     16  CAJ       15.4970   15.9070   63.8290 C.ar  701  BK1701     -0.0003
     17  CAL       18.3500   15.6310   63.3220 C.3   701  BK1701      0.0724
     18  NAO       20.6110   16.7540   63.1760 N.2   701  BK1701     -0.0954
     19  CAQ       17.6840   15.2950   64.6640 C.ar  701  BK1701     -0.0164
     20  CAR       19.8850   15.6390   63.2970 C.2   701  BK1701      0.1047
     21  CAS       15.7200   15.1090   66.0910 C.ar  701  BK1701     -0.0003
     22  CAT       16.3060   15.4340   64.8640 C.ar  701  BK1701     -0.0036
     23  CAW       22.9030   17.4670   63.0450 C.3   701  BK1701      0.1876
     24  NAX       21.8140   16.4800   63.1660 N.pl3 701  BK1701     -0.0842
@<TRIPOS>BOND
     1     8    23    1
     2    23    24    1
     3    23     7    1
     4    24    18    1
     5    24     4    1
     6    18    20    2
     7     4     3    2
     8     4     5    1
     9    20    17    1
    10    20     5    1
    11     3     2    1
    12    17    19    1
    13     5     6    1
    14     2     1    1
    15     6     1    2
    16     6     9    1
    17    16    11   ar
    18    16    22   ar
    19    11    10   ar
    20    19    22   ar
    21    19    13   ar
    22    22    21   ar
    23    10    14   ar
    24    13    12   ar
    25    21    14   ar
    26    21    15   ar
    27    12    15   ar
