@<TRIPOS>MOLECULE
3i7c_BK2_A_1.pdb
 24 27 0 0 0
SMALL
GASTEIGER

@<TRIPOS>ATOM
      1  N1        16.6060   11.6710   62.8010 N.2   701  BK2701     -0.0027
      2  C2        17.7100   12.2850   62.3630 C.3   701  BK2701      0.5248
      3  N3        17.7650   13.6030   62.1870 N.2   701  BK2701     -0.0088
      4  C4        16.6960   14.3720   62.4450 C.2   701  BK2701      0.3404
      5  C5        15.5260   13.7820   62.9080 C.3   701  BK2701      0.2639
      6  C6        15.5020   12.3940   63.0800 C.2   701  BK2701      0.4081
      7  CAA       16.7600   18.0930   61.9030 C.3   701  BK2701      0.0491
      8  CAB       18.6610   16.7270   62.8320 C.3   701  BK2701      0.0491
      9  CAC       17.8690   16.3850   60.4740 C.3   701  BK2701      0.0491
     10  NAD       14.4220   11.7620   63.5050 N.pl3 701  BK2701      0.2118
     11  CAE        8.9110   14.4790   65.8550 C.ar  701  BK2701      0.0000
     12  CAF        9.8370   13.7940   66.6360 C.ar  701  BK2701      0.0000
     13  CAH       12.4010   15.5520   62.7740 C.ar  701  BK2701      0.0013
     14  CAI        9.3360   15.0990   64.6860 C.ar  701  BK2701      0.0000
     15  CAJ       11.1790   13.7060   66.2680 C.ar  701  BK2701      0.0000
     16  CAK       11.0770   15.6250   63.1640 C.ar  701  BK2701      0.0000
     17  CAL       12.9410   14.2490   64.7210 C.ar  701  BK2701      0.0013
     18  NAO       15.3100   15.9630   62.7210 N.2   701  BK2701     -0.0915
     19  CAQ       13.3390   14.8520   63.5260 C.ar  701  BK2701      0.0182
     20  CAR       14.6540   14.8630   63.0770 C.2   701  BK2701      0.1226
     21  CAS       10.6700   15.0140   64.3240 C.ar  701  BK2701      0.0000
     22  CAT       11.6050   14.3260   65.1100 C.ar  701  BK2701      0.0000
     23  NAW       16.4640   15.6890   62.3740 N.pl3 701  BK2701     -0.0877
     24  CAX       17.4460   16.7230   61.9080 C.3   701  BK2701      0.1509
@<TRIPOS>BOND
     1     9    24    1
     2     7    24    1
     3    24    23    1
     4    24     8    1
     5     3     2    1
     6     3     4    2
     7     2     1    1
     8    23     4    1
     9    23    18    1
    10     4     5    1
    11    18    20    2
    12    13    16   ar
    13    13    19   ar
    14     1     6    2
    15     5    20    1
    16     5     6    1
    17    20    19    1
    18     6    10    1
    19    16    21   ar
    20    19    17   ar
    21    21    14   ar
    22    21    22   ar
    23    14    11   ar
    24    17    22   ar
    25    22    15   ar
    26    11    12   ar
    27    15    12   ar
