@<TRIPOS>MOLECULE
3i7e_DJR_A_1.pdb
 39 42 0 0 0
SMALL
GASTEIGER

@<TRIPOS>ATOM
      1  C          2.2950    2.1710   10.5650 C.3   100  DJR100      0.1016
      2  O          0.6820    3.2600   11.9230 O.3   100  DJR100     -0.3265
      3  C27        1.6270    3.4820   10.8560 C.3   100  DJR100      0.2388
      4  O9         2.6710    4.3860   11.2710 O.3   100  DJR100     -0.3304
      5  C2         3.9710    3.7970   11.1030 C.3   100  DJR100      0.1451
      6  C1         3.7630    2.5140   10.3000 C.3   100  DJR100      0.0409
      7  C3         0.5550    1.8450   12.1480 C.3   100  DJR100      0.1884
      8  C5         1.8980    1.2460   11.7350 C.3   100  DJR100      0.2048
      9  O4         2.8430    1.3390   12.8440 O.3   100  DJR100     -0.4345
     10  C4         3.7420    0.3230   13.0970 C.2   100  DJR100      0.4211
     11  O5         3.7620   -0.7870   12.5420 O.2   100  DJR100     -0.2246
     12  N1         4.5940    0.7350   14.0290 N.am  100  DJR100     -0.1675
     13  C6         5.6840   -0.1040   14.5700 C.3   100  DJR100      0.1347
     14  C8         7.0420    0.6480   14.3950 C.3   100  DJR100      0.0508
     15  C9         7.3660    1.0410   12.9470 C.ar  100  DJR100     -0.0204
     16  C11        7.7990    0.0540   12.0160 C.ar  100  DJR100     -0.0042
     17  C13        8.0890    0.4150   10.6800 C.ar  100  DJR100     -0.0003
     18  C14        7.9520    1.7690   10.2600 C.ar  100  DJR100     -0.0000
     19  C12        7.5230    2.7570   11.1740 C.ar  100  DJR100     -0.0003
     20  C10        7.2270    2.3980   12.5180 C.ar  100  DJR100     -0.0042
     21  C7         5.3000   -0.4350   16.0550 C.3   100  DJR100      0.1898
     22  O6         5.4900    0.7160   16.8910 O.3   100  DJR100     -0.2197
     23  C15        6.0830   -1.6290   16.6490 C.3   100  DJR100      0.1304
     24  N2         5.8660   -2.8840   15.8860 N.3   100  DJR100     -0.1529
     25  S          7.1990   -3.5630   14.9830 S.O2  100  DJR100      0.0634
     26  O8         6.4920   -4.4430   13.8830 O.2   100  DJR100     -0.1528
     27  O7         8.0210   -2.3940   14.3210 O.2   100  DJR100     -0.1528
     28  C18        8.1940   -4.5280   16.0650 C.ar  100  DJR100      0.1224
     29  C23        9.2750   -3.9340   16.7760 C.ar  100  DJR100      0.0230
     30  C22       10.0450   -4.7330   17.6570 C.ar  100  DJR100      0.0383
     31  C21        9.7400   -6.1200   17.8320 C.ar  100  DJR100      0.1388
     32  O1        10.5640   -6.8120   18.7220 O.3   100  DJR100     -0.4714
     33  C26       10.4330   -8.2230   19.0390 C.3   100  DJR100      0.2525
     34  C20        8.6510   -6.6810   17.1060 C.ar  100  DJR100      0.0383
     35  C19        7.8800   -5.8920   16.2280 C.ar  100  DJR100      0.0230
     36  C16        4.5240   -3.5650   15.8830 C.3   100  DJR100      0.0958
     37  C17        3.8570   -3.8080   17.2690 C.3   100  DJR100      0.0178
     38  C25        2.3510   -4.0960   17.1840 C.3   100  DJR100      0.0015
     39  C24        4.5080   -5.0030   17.9790 C.3   100  DJR100      0.0015
@<TRIPOS>BOND
     1    18    17   ar
     2    18    19   ar
     3     6     1    1
     4     6     5    1
     5     1     3    1
     6     1     8    1
     7    17    16   ar
     8     3     4    1
     9     3     2    1
    10     5     4    1
    11    19    20   ar
    12     8     7    1
    13     8     9    1
    14     2     7    1
    15    16    15   ar
    16    20    15   ar
    17    11    10    2
    18     9    10    1
    19    15    14    1
    20    10    12   am
    21    26    25    2
    22    12    13    1
    23    27    25    2
    24    14    13    1
    25    13    21    1
    26    25    24    1
    27    25    28    1
    28    36    24    1
    29    36    37    1
    30    24    23    1
    31    21    23    1
    32    21    22    1
    33    28    35   ar
    34    28    29   ar
    35    35    34   ar
    36    29    30   ar
    37    34    31   ar
    38    38    37    1
    39    37    39    1
    40    30    31   ar
    41    31    32    1
    42    32    33    1
