@<TRIPOS>MOLECULE
3i7g_732_A_1.pdb
 26 28 0 0 0
SMALL
GASTEIGER

@<TRIPOS>ATOM
      1  C1        -8.4590   26.5590   51.5890 C.ar  999  732999      0.0039
      2  C2        -7.3710   27.2600   52.0850 C.ar  999  732999      0.0346
      3  C3        -6.7270   28.1890   51.2790 C.ar  999  732999      0.0039
      4  C4        -7.1790   28.4200   49.9900 C.ar  999  732999      0.0115
      5  C5        -8.2650   27.7160   49.5100 C.ar  999  732999      0.0577
      6  C6        -8.9080   26.7910   50.3090 C.ar  999  732999      0.0115
      7  C7        -6.8940   27.0290   53.4540 C.ar  999  732999      0.1455
      8 CL8        -8.8490   27.9920   47.9060 Cl    999  732999     -0.0822
      9  C9        -6.7010   25.8480   54.1300 C.ar  999  732999      0.0408
     10  C10       -6.1360   26.1780   55.3780 C.ar  999  732999      0.0454
     11  C11       -6.2220   27.5510   55.4750 C.ar  999  732999      0.2000
     12  O12       -6.6190   28.0270   54.2870 O.2   999  732999     -0.4488
     13  C13       -6.0240   28.4680   56.5890 C.2   999  732999      0.2999
     14  O14       -5.6190   28.1520   57.7110 O.2   999  732999     -0.2650
     15  N15       -6.3620   29.7190   56.2060 N.am  999  732999     -0.1914
     16  C16       -6.3750   30.9430   56.9880 C.3   999  732999      0.1731
     17  C17       -5.1070   31.7480   56.6810 C.3   999  732999      0.0290
     18  C18       -7.6530   31.6220   56.5350 C.2   999  732999      0.2613
     19  O19       -7.8640   31.8920   55.3500 O.2   999  732999     -0.2715
     20  N20       -8.5980   31.8840   57.4610 N.am  999  732999     -0.2021
     21  C21       -9.8590   32.5210   57.0520 C.3   999  732999      0.1386
     22  C22       -5.4230   33.2420   56.5690 C.3   999  732999      0.0022
     23  C23       -4.1290   34.0070   56.2850 C.3   999  732999      0.0001
     24  C24       -3.1640   33.8010   57.4540 C.3   999  732999      0.0000
     25  C25       -2.8220   32.3130   57.6040 C.3   999  732999      0.0001
     26  C26       -4.1030   31.5010   57.8200 C.3   999  732999      0.0022
@<TRIPOS>BOND
     1     8     5    1
     2     5     4   ar
     3     5     6   ar
     4     4     3   ar
     5     6     1   ar
     6     3     2   ar
     7     1     2   ar
     8     2     7    1
     9     7     9   ar
    10     7    12   ar
    11     9    10   ar
    12    12    11   ar
    13    19    18    2
    14    10    11   ar
    15    11    13    1
    16    15    13   am
    17    15    16    1
    18    23    22    1
    19    23    24    1
    20    18    16    1
    21    18    20   am
    22    22    17    1
    23    13    14    2
    24    17    16    1
    25    17    26    1
    26    21    20    1
    27    24    25    1
    28    25    26    1
