@<TRIPOS>MOLECULE
3i7i_518_A_1.pdb
 37 41 0 0 0
SMALL
GASTEIGER

@<TRIPOS>ATOM
      1  C1        -8.5440   26.9610   49.2520 C.ar  999  518999      0.0738
      2  C2        -8.8220   25.8610   50.0530 C.ar  999  518999      0.0167
      3  C3        -8.3350   25.7940   51.3350 C.ar  999  518999      0.0044
      4  C4        -7.5650   26.8310   51.8570 C.ar  999  518999      0.0347
      5  C5        -7.2570   27.9220   51.0470 C.ar  999  518999      0.0044
      6  C6        -7.7530   27.9930   49.7570 C.ar  999  518999      0.0167
      7  C7        -7.0150   26.7130   53.2230 C.ar  999  518999      0.1455
      8  C8        -6.5040   25.5630   53.7700 C.ar  999  518999      0.0408
      9  C9        -6.0730   25.8510   55.0730 C.ar  999  518999      0.0454
     10  C10       -6.3440   27.1790   55.2560 C.ar  999  518999      0.2000
     11  O11       -6.9110   27.6780   54.1380 O.2   999  518999     -0.4488
     12  C12       -6.1160   28.0040   56.4250 C.2   999  518999      0.2999
     13  O13       -5.6910   27.5660   57.4790 O.2   999  518999     -0.2650
     14  N14       -6.4510   29.2820   56.1930 N.am  999  518999     -0.1914
     15  C15       -6.3990   30.4090   57.1000 C.3   999  518999      0.1731
     16  C16       -7.7810   30.9860   56.8990 C.2   999  518999      0.2613
     17  C17       -5.2760   31.2760   56.5140 C.3   999  518999      0.0290
     18  N18       -8.5140   31.3930   57.9510 N.am  999  518999     -0.2021
     19  O19       -8.2680   31.0550   55.7830 O.2   999  518999     -0.2715
     20  N20       -9.0370   26.9700   47.9430 N.am  999  518999     -0.1728
     21  C21       -9.8600   31.9290   57.7410 C.3   999  518999      0.1386
     22  C22       -5.7390   32.6500   56.0210 C.3   999  518999      0.0022
     23  C23       -4.6170   33.1710   55.1200 C.3   999  518999      0.0001
     24  C24       -3.2900   33.2580   55.8910 C.3   999  518999      0.0000
     25  C25       -2.9360   31.9560   56.6260 C.3   999  518999      0.0001
     26  C26       -4.1160   31.4910   57.4890 C.3   999  518999      0.0022
     27  C27      -10.0850   27.6600   47.4870 C.2   999  518999      0.3037
     28  C28      -10.4290   27.4960   46.0620 C.ar  999  518999      0.2004
     29  O29      -10.7360   28.3510   48.2430 O.2   999  518999     -0.2646
     30  O30       -9.5890   27.7160   45.0240 O.2   999  518999     -0.4488
     31  C31      -11.6380   27.0830   45.5880 C.ar  999  518999      0.0453
     32  C32      -11.5220   27.0520   44.1260 C.ar  999  518999      0.0377
     33  C33      -10.2020   27.4640   43.8450 C.ar  999  518999      0.1455
     34  C34       -9.8000   27.5350   42.5180 C.ar  999  518999      0.0375
     35  C35      -10.6790   27.2040   41.5010 C.ar  999  518999      0.0031
     36  C36      -11.9770   26.7950   41.7740 C.ar  999  518999      0.0002
     37  C37      -12.3940   26.7180   43.0750 C.ar  999  518999      0.0031
@<TRIPOS>BOND
     1    35    36   ar
     2    35    34   ar
     3    36    37   ar
     4    34    33   ar
     5    37    32   ar
     6    33    32   ar
     7    33    30   ar
     8    32    31   ar
     9    30    28   ar
    10    31    28   ar
    11    28    27    1
    12    27    20   am
    13    27    29    2
    14    20     1    1
    15     1     6   ar
    16     1     2   ar
    17     6     5   ar
    18     2     3   ar
    19     5     4   ar
    20     3     4   ar
    21     4     7    1
    22     7     8   ar
    23     7    11   ar
    24     8     9   ar
    25    11    10   ar
    26     9    10   ar
    27    23    24    1
    28    23    22    1
    29    10    12    1
    30    19    16    2
    31    24    25    1
    32    22    17    1
    33    14    12   am
    34    14    15    1
    35    12    13    2
    36    17    15    1
    37    17    26    1
    38    25    26    1
    39    16    15    1
    40    16    18   am
    41    21    18    1
