@<TRIPOS>MOLECULE
3i7v_ATP_A_1.pdb
 31 33 0 0 0
SMALL
GASTEIGER

@<TRIPOS>ATOM
      1  PG        28.1890    2.6500   38.0380 P.3   135  ATP135      0.5373
      2  O1G       27.3340    1.4510   37.6680 O.2   135  ATP135     -0.2221
      3  O2G       27.7050    3.9630   38.2550 O.3   135  ATP135     -0.1143
      4  O3G       28.8450    1.8470   38.9910 O.3   135  ATP135     -0.1143
      5  PB        30.7370    2.1560   36.1740 P.3   135  ATP135      0.2277
      6  O1B       31.0690    1.0230   36.5210 O.3   135  ATP135     -0.4368
      7  O2B       30.1270    2.2940   34.8250 O.2   135  ATP135     -0.5168
      8  O3B       29.5330    2.8920   36.9950 O.3   135  ATP135     -0.2258
      9  PA        32.4730    3.9560   37.3490 P.3   135  ATP135      0.2189
     10  O1A       32.5490    3.3470   38.3570 O.3   135  ATP135     -0.4371
     11  O2A       31.9230    5.1420   37.3660 O.2   135  ATP135     -0.5170
     12  O3A       31.8900    3.0620   36.2550 O.3   135  ATP135     -0.2700
     13  O5'       33.8660    3.9910   36.8460 O.3   135  ATP135     -0.3112
     14  C5'       34.2210    4.6260   35.6490 C.3   135  ATP135      0.1813
     15  C4'       35.6250    5.2350   35.6350 C.3   135  ATP135      0.1821
     16  O4'       35.9350    6.2690   36.5590 O.3   135  ATP135     -0.3135
     17  C3'       36.7040    4.2930   35.8460 C.3   135  ATP135      0.2184
     18  O3'       37.7700    4.5540   34.9210 O.3   135  ATP135     -0.2174
     19  C2'       37.0380    4.5170   37.2590 C.3   135  ATP135      0.2570
     20  O2'       38.3250    4.1850   37.6180 O.3   135  ATP135     -0.2130
     21  C1'       36.7470    5.9690   37.5190 C.3   135  ATP135      0.3186
     22  N9        36.1130    6.2320   38.8340 N.pl3 135  ATP135     -0.1439
     23  C8        35.2070    5.5590   39.5630 C.3   135  ATP135      0.3377
     24  N7        34.9700    6.1890   40.6340 N.2   135  ATP135     -0.2095
     25  C5        35.6020    7.2350   40.7550 C.2   135  ATP135      0.2526
     26  C6        35.7840    8.3470   41.6720 C.2   135  ATP135      0.4393
     27  N6        35.1570    8.4330   42.7770 N.pl3 135  ATP135      0.2180
     28  N1        36.6500    9.2850   41.2980 N.2   135  ATP135      0.0021
     29  C2        37.3190    9.2480   40.1790 C.3   135  ATP135      0.5254
     30  N3        37.2070    8.2820   39.3090 N.2   135  ATP135     -0.0055
     31  C4        36.4040    7.2880   39.5190 C.2   135  ATP135      0.3518
@<TRIPOS>BOND
     1     7     5    2
     2    18    17    1
     3    15    14    1
     4    15    17    1
     5    15    16    1
     6    14    13    1
     7    17    19    1
     8     5    12    1
     9     5     6    1
    10     5     8    1
    11    12     9    1
    12    16    21    1
    13    13     9    1
    14     8     1    1
    15    19    21    1
    16    19    20    1
    17     9    11    2
    18     9    10    1
    19    21    22    1
    20     2     1    2
    21     1     3    1
    22     1     4    1
    23    22    31    1
    24    22    23    1
    25    30    31    2
    26    30    29    1
    27    31    25    1
    28    23    24    1
    29    29    28    1
    30    24    25    2
    31    25    26    1
    32    28    26    2
    33    26    27    1
