@<TRIPOS>MOLECULE
3i81_EBI_A_1.pdb
 34 39 0 0 0
SMALL
GASTEIGER

@<TRIPOS>ATOM
      1  N1       -18.3780    3.4520   13.7700 N.2   201  EBI201      0.0793
      2  C2       -17.6390    3.7730   12.6790 C.2   201  EBI201      0.3772
      3  C3       -17.2040    2.5050   12.1730 C.3   201  EBI201      0.1690
      4  C4       -17.7180    1.4640   13.0040 C.2   201  EBI201      0.0951
      5  N5       -18.4220    2.1130   13.9560 N.2   201  EBI201     -0.0426
      6  N6       -17.4110    5.1500   12.2280 N.pl3 201  EBI201      0.0280
      7  C7       -17.5350   -0.0710   12.8850 C.3   201  EBI201      0.0406
      8  C8       -18.6680   -0.1660   11.9120 C.3   201  EBI201      0.0061
      9  C9       -17.2610   -0.2710   11.4390 C.3   201  EBI201      0.0061
     10  C10      -15.8040    8.8640   10.0900 C.ar  201  EBI201      0.1014
     11  C11      -16.5430    9.2850   11.2170 C.ar  201  EBI201      0.0225
     12  C12      -17.0310    8.1530   11.8650 C.ar  201  EBI201      0.0272
     13  C13      -16.5550    7.0380   11.0830 C.ar  201  EBI201      0.1567
     14  N14      -15.8110    7.5010   10.0080 N.ar  201  EBI201     -0.2120
     15  C15      -16.6790    5.6400   11.1720 C.2   201  EBI201      0.3430
     16  N16      -16.1060    4.7940   10.2630 N.2   201  EBI201     -0.2918
     17  N17      -15.2490    6.6110    9.1110 N.2   201  EBI201     -0.0847
     18  C18      -15.3930    5.2770    9.2330 C.1   201  EBI201      0.1690
     19  C19      -13.8850    4.9180    7.3560 C.3   201  EBI201      0.1027
     20  C20      -13.2930    3.6710    6.7320 C.3   201  EBI201      0.0244
     21  C21      -14.3100    2.5760    7.0490 C.3   201  EBI201      0.0296
     22  C22      -15.1380    3.0050    8.2610 C.3   201  EBI201      0.1380
     23  N23      -14.8300    4.4390    8.3370 N.pl3 201  EBI201     -0.2373
     24  C24      -14.6090    2.0970    9.4260 C.2   201  EBI201      0.2622
     25  N25      -13.5470    2.6210   10.1150 N.am  201  EBI201     -0.1763
     26  O26      -15.1490    1.0140    9.6510 O.2   201  EBI201     -0.2712
     27  C27      -16.6560    2.8120    8.0030 C.3   201  EBI201      0.0300
     28  C28      -12.8020    1.9700   11.0410 C.ar  201  EBI201      0.0927
     29  C29      -11.3870    2.0410   11.0840 C.ar  201  EBI201      0.0221
     30  C30      -10.6260    1.3750   12.0340 C.ar  201  EBI201      0.0510
     31  C31      -11.3330    0.6180   12.9630 C.ar  201  EBI201      0.2224
     32  N32      -12.7050    0.5260   12.9520 N.ar  201  EBI201     -0.2151
     33  C33      -13.4300    1.1870   12.0130 C.ar  201  EBI201      0.1178
     34  F34      -10.5700   -0.0180   13.8730 F     201  EBI201     -0.1832
@<TRIPOS>BOND
     1    20    21    1
     2    20    19    1
     3    21    22    1
     4    19    23    1
     5    27    22    1
     6    22    23    1
     7    22    24    1
     8    23    18    1
     9    17    18    2
    10    17    14    1
    11    18    16    2
    12    24    26    2
    13    24    25   am
    14    14    10   ar
    15    14    13   ar
    16    10    11   ar
    17    25    28    1
    18    16    15    2
    19    28    29   ar
    20    28    33   ar
    21    13    15    1
    22    13    12   ar
    23    29    30   ar
    24    15     6    1
    25    11    12   ar
    26     9     8    1
    27     9     7    1
    28     8     7    1
    29    33    32   ar
    30    30    31   ar
    31     3     2    1
    32     3     4    1
    33     6     2    1
    34     2     1    2
    35     7     4    1
    36    32    31   ar
    37    31    34    1
    38     4     5    2
    39     1     5    1
