@<TRIPOS>MOLECULE
3i8a_N22_X_1.pdb
 23 24 0 0 0
SMALL
GASTEIGER

@<TRIPOS>ATOM
      1  C8       -30.6800   -8.7560   42.4540 C.3   219  N22219      0.0076
      2  C7       -29.3550   -9.1590   43.0940 C.3   219  N22219      0.0569
      3  C5       -28.3070   -9.1830   41.9990 C.2   219  N22219      0.1203
      4  N4       -27.7930   -8.0060   41.6010 N.2   219  N22219     -0.3332
      5  C3       -26.8740   -7.9500   40.6240 C.1   219  N22219      0.2419
      6  N8       -26.3760   -6.7760   40.2470 N.pl3 219  N22219     -0.0232
      7  N2       -26.4470   -9.0760   40.0300 N.2   219  N22219     -0.3105
      8  C1       -26.9140  -10.2760   40.3710 C.2   219  N22219      0.2282
      9  N7       -26.4370  -11.3540   39.7540 N.pl3 219  N22219     -0.0955
     10  C6       -27.8720  -10.3530   41.3840 C.3   219  N22219      0.1831
     11  C9       -28.4220  -11.6000   41.8120 C.1   219  N22219     -0.0760
     12  C10      -28.9040  -12.6660   42.1880 C.1   219  N22219     -0.0853
     13  C11      -29.4910  -13.9200   42.6510 C.3   219  N22219      0.1054
     14  C13      -30.8060  -13.6760   43.3840 C.ar  219  N22219      0.0278
     15  C18      -31.6970  -12.6850   42.9160 C.ar  219  N22219      0.0366
     16  C17      -32.9230  -12.4610   43.5670 C.ar  219  N22219      0.1386
     17  O2       -33.8230  -11.4720   43.1630 O.3   219  N22219     -0.4714
     18  C4       -34.8330  -11.9190   42.2070 C.3   219  N22219      0.2525
     19  C16      -33.2440  -13.2360   44.6890 C.ar  219  N22219      0.0400
     20  C15      -32.3640  -14.2190   45.1500 C.ar  219  N22219      0.0397
     21  C14      -31.1510  -14.4320   44.5020 C.ar  219  N22219      0.1358
     22  O10      -30.3110  -15.4080   44.9390 O.3   219  N22219     -0.4717
     23  C2       -30.5180  -15.6340   46.3450 C.3   219  N22219      0.2525
@<TRIPOS>BOND
     1     9     8    1
     2     7     8    2
     3     7     5    2
     4     6     5    1
     5     8    10    1
     6     5     4    2
     7    10    11    1
     8    10     3    1
     9     4     3    2
    10    11    12    3
    11     3     2    1
    12    12    13    1
    13    18    17    1
    14     1     2    1
    15    13    14    1
    16    15    14   ar
    17    15    16   ar
    18    17    16    1
    19    14    21   ar
    20    16    19   ar
    21    21    22    1
    22    21    20   ar
    23    19    20   ar
    24    22    23    1
