@<TRIPOS>MOLECULE
3i8a_NAP_X_1.pdb
 48 52 0 0 0
SMALL
GASTEIGER

@<TRIPOS>ATOM
      1  PA       -24.0250  -21.4060   42.9100 P.3   207  NAP207      0.2189
      2  O1A      -22.9190  -20.9060   42.0880 O.2   207  NAP207     -0.5170
      3  O2A      -25.2840  -20.6320   42.7530 O.3   207  NAP207     -0.4371
      4  O5B      -24.3330  -22.9650   42.6760 O.3   207  NAP207     -0.3112
      5  C5B      -23.3970  -23.9890   42.9430 C.3   207  NAP207      0.1813
      6  C4B      -23.8630  -25.1880   42.1330 C.3   207  NAP207      0.1820
      7  O4B      -23.9030  -24.8460   40.7530 O.3   207  NAP207     -0.3136
      8  C3B      -22.9350  -26.4020   42.1820 C.3   207  NAP207      0.2157
      9  O3B      -22.9590  -27.1580   43.3620 O.3   207  NAP207     -0.2175
     10  C2B      -23.4200  -27.1690   40.9690 C.3   207  NAP207      0.2314
     11  O2B      -24.7240  -27.6570   41.1610 O.3   207  NAP207     -0.2630
     12  C1B      -23.5800  -26.0210   39.9900 C.3   207  NAP207      0.3158
     13  N9A      -22.3090  -25.9240   39.2600 N.pl3 207  NAP207     -0.1439
     14  C8A      -21.3490  -24.9580   39.3940 C.3   207  NAP207      0.3377
     15  N7A      -20.3260  -25.2470   38.5510 N.2   207  NAP207     -0.2095
     16  C5A      -20.6280  -26.3960   37.8900 C.2   207  NAP207      0.2526
     17  C6A      -19.9470  -27.1250   36.9230 C.2   207  NAP207      0.4393
     18  N6A      -18.7660  -26.7230   36.4690 N.pl3 207  NAP207      0.2180
     19  N1A      -20.5210  -28.2750   36.4230 N.2   207  NAP207      0.0021
     20  C2A      -21.7670  -28.6950   36.8800 C.3   207  NAP207      0.5254
     21  N3A      -22.4310  -27.9760   37.8520 N.2   207  NAP207     -0.0055
     22  C4A      -21.8690  -26.8370   38.3370 C.2   207  NAP207      0.3518
     23  O3       -23.5730  -21.5440   44.4440 O.3   207  NAP207     -0.2703
     24  PN       -22.7300  -20.7060   45.5320 P.3   207  NAP207      0.2189
     25  O1N      -22.9780  -21.3970   46.8200 O.3   207  NAP207     -0.4371
     26  O2N      -21.3490  -20.6080   45.0120 O.2   207  NAP207     -0.5170
     27  O5D      -23.4420  -19.2570   45.6200 O.3   207  NAP207     -0.3112
     28  C5D      -24.7630  -19.1240   46.1200 C.3   207  NAP207      0.1813
     29  C4D      -24.8230  -17.8340   46.9300 C.3   207  NAP207      0.1799
     30  O4D      -24.5660  -16.7350   46.0750 O.3   207  NAP207     -0.3327
     31  C3D      -26.1750  -17.5490   47.5770 C.3   207  NAP207      0.2158
     32  O3D      -25.9510  -16.9660   48.8480 O.3   207  NAP207     -0.2175
     33  C2D      -26.8030  -16.5080   46.6980 C.3   207  NAP207      0.2309
     34  O2D      -27.6400  -15.6940   47.4690 O.3   207  NAP207     -0.2158
     35  C1D      -25.5730  -15.7430   46.2350 C.3   207  NAP207      0.2263
     36  N1N      -25.6640  -14.9500   44.9950 N.pl3 207  NAP207     -0.2787
     37  C2N      -25.4920  -13.6020   45.0810 C.3   207  NAP207      0.1244
     38  C3N      -25.5320  -12.8080   43.9430 C.2   207  NAP207      0.0544
     39  C7N      -25.2180  -11.3460   44.0200 C.2   207  NAP207      0.2818
     40  O7N      -25.1400  -10.6660   42.8050 O.2   207  NAP207     -0.2670
     41  N7N      -25.0190  -10.7320   45.1860 N.am  207  NAP207     -0.0839
     42  C4N      -25.7420  -13.3900   42.6930 C.2   207  NAP207      0.0033
     43  C5N      -25.9210  -14.7660   42.6150 C.2   207  NAP207      0.0157
     44  C6N      -25.8770  -15.5380   43.7760 C.2   207  NAP207      0.0633
     45  P2B      -25.0260  -29.2090   41.4850 P.3   207  NAP207      0.5328
     46  O1X      -24.6300  -29.4000   42.9430 O.3   207  NAP207     -0.1145
     47  O2X      -26.5220  -29.4300   41.3380 O.3   207  NAP207     -0.1145
     48  O3X      -24.2320  -30.1110   40.5580 O.2   207  NAP207     -0.2224
@<TRIPOS>BOND
     1    19    20    1
     2    19    17    2
     3    18    17    1
     4    20    21    1
     5    17    16    1
     6    21    22    2
     7    16    22    1
     8    16    15    2
     9    22    13    1
    10    15    14    1
    11    13    14    1
    12    13    12    1
    13    12     7    1
    14    12    10    1
    15    48    45    2
    16     7     6    1
    17    10    11    1
    18    10     8    1
    19    11    45    1
    20    47    45    1
    21    45    46    1
    22     2     1    2
    23     6     8    1
    24     6     5    1
    25     8     9    1
    26    43    42    1
    27    43    44    2
    28     4     1    1
    29     4     5    1
    30    42    38    2
    31     3     1    1
    32    40    39    2
    33     1    23    1
    34    44    36    1
    35    38    39    1
    36    38    37    1
    37    39    41   am
    38    23    24    1
    39    36    37    1
    40    36    35    1
    41    26    24    2
    42    24    27    1
    43    24    25    1
    44    27    28    1
    45    30    35    1
    46    30    29    1
    47    28    29    1
    48    35    33    1
    49    33    34    1
    50    33    31    1
    51    29    31    1
    52    31    32    1
