@<TRIPOS>MOLECULE
3i8p_840_A_1.pdb
 33 38 0 0 0
SMALL
GASTEIGER

@<TRIPOS>ATOM
      1  C1        -4.9610   68.5130   68.3230 C.2   501  840501      0.2458
      2  C2        -4.0750   69.4110   69.1300 C.3   501  840501      0.0876
      3  C3        -2.6710   68.8180   69.1430 C.3   501  840501      0.0170
      4  C4        -1.7420   69.7090   70.0020 C.3   501  840501      0.0585
      5  C5        -1.9660   69.6850   71.5350 C.2   501  840501      0.1721
      6  C6        -1.3870   70.8030   72.3310 C.2   501  840501      0.0329
      7  C7        -0.4900   71.6830   71.8560 C.2   501  840501     -0.0212
      8  C8         0.0840   71.6480   70.4500 C.3   501  840501      0.0518
      9  C9        -0.6280   70.6340   69.4160 C.3   501  840501      0.0381
     10  C10       -0.4400   71.1210   67.8990 C.3   501  840501      0.0956
     11  C11        0.9000   71.2240   67.2660 C.3   501  840501      0.0319
     12  C12        0.7360   71.9990   68.5660 C.3   501  840501      0.0507
     13  C13        1.4840   72.2010   69.8450 C.3   501  840501      0.0114
     14  C14       -0.6670   73.0710   70.0430 C.3   501  840501      0.1802
     15  C15       -0.4580   73.0030   68.5940 C.3   501  840501      0.1228
     16  O16       -1.2980   72.2780   67.6000 O.3   501  840501     -0.3606
     17  C17       -0.1030   74.3490   67.9200 C.3   501  840501      0.0323
     18  C18       -0.7890   68.4940   70.2000 C.3   501  840501      0.0078
     19  O19       -2.6680   68.7910   72.0370 O.2   501  840501     -0.2914
     20  O20       -5.4650   67.5090   68.8250 O.2   501  840501     -0.2730
     21  C21       -5.7910   64.8330   64.2400 C.2   501  840501      0.3909
     22  C22       -6.2430   66.1900   64.6880 C.ar  501  840501      0.1201
     23  C23       -5.5120   66.8800   65.6760 C.ar  501  840501      0.2203
     24  C24       -5.9350   68.1640   66.0650 C.ar  501  840501      0.1511
     25  C25       -7.0390   68.7450   65.5070 C.ar  501  840501      0.2140
     26  C26       -7.7770   68.0630   64.5270 C.ar  501  840501      0.0438
     27  C27       -7.3760   66.8070   64.1300 C.ar  501  840501      0.0132
     28  N28       -5.1560   68.8590   67.0660 N.am  501  840501     -0.1727
     29  O30       -7.4280   69.9740   65.8720 O.3   501  840501     -0.2851
     30  O31       -4.3950   66.4040   66.2950 O.3   501  840501     -0.2848
     31  O32       -4.7480   64.3550   64.6780 O.co2 501  840501     -0.2404
     32  O33       -6.5720   64.3160   63.3550 O.co2 501  840501     -0.2404
     33  O34        0.0080   74.1250   70.6210 O.3   501  840501     -0.2203
@<TRIPOS>BOND
     1    32    21   ar
     2    27    26   ar
     3    27    22   ar
     4    21    31   ar
     5    21    22    1
     6    26    25   ar
     7    22    23   ar
     8    25    29    1
     9    25    24   ar
    10    23    24   ar
    11    23    30    1
    12    24    28    1
    13    28     1   am
    14    11    10    1
    15    11    12    1
    16    16    10    1
    17    16    15    1
    18    10    12    1
    19    10     9    1
    20    17    15    1
    21     1    20    2
    22     1     2    1
    23    12    15    1
    24    12    13    1
    25    15    14    1
    26     2     3    1
    27     3     4    1
    28     9     4    1
    29     9     8    1
    30    13     8    1
    31     4    18    1
    32     4     5    1
    33    14     8    1
    34    14    33    1
    35     8     7    1
    36     5    19    2
    37     5     6    1
    38     7     6    2
