@<TRIPOS>MOLECULE
3i8r_HEM_A_1.pdb
 43 50 0 0 0
SMALL
GASTEIGER

@<TRIPOS>ATOM
      1  CHA       26.9560   -9.8720    0.5700 C.2   901  HEM901      0.0000
      2  CHB       24.4310   -5.9760    2.2470 C.2   901  HEM901      0.0000
      3  CHC       20.3560   -8.0230    0.4240 C.2   901  HEM901      0.0000
      4  CHD       23.0000  -11.2980   -1.9870 C.2   901  HEM901      0.0000
      5  C1A       26.5690   -8.6690    1.1840 C.2   901  HEM901      0.0000
      6  C2A       27.5360   -7.8660    1.9550 C.2   901  HEM901      0.0000
      7  C3A       26.8480   -6.8090    2.3890 C.2   901  HEM901      0.0000
      8  C4A       25.4490   -6.8950    2.0060 C.2   901  HEM901      0.0000
      9  CMA       27.3580   -5.6680    3.2410 C.3   901  HEM901      0.0000
     10  CAA       29.0230   -8.2190    2.1080 C.3   901  HEM901      0.0000
     11  CBA       29.1700   -9.0320    3.3980 C.3   901  HEM901      0.0000
     12  CGA       30.6720   -9.1780    3.7380 C.2   901  HEM901      0.0000
     13  O1A       31.5220   -9.6830    2.8550 O.co2 901  HEM901      0.0000
     14  O2A       31.1450   -8.7440    4.8620 O.co2 901  HEM901      0.0000
     15  C1B       23.1290   -6.1500    1.9280 C.ar  901  HEM901      0.0000
     16  C2B       21.9970   -5.4260    2.2440 C.ar  901  HEM901      0.0000
     17  C3B       20.7970   -5.9400    1.7770 C.ar  901  HEM901      0.0000
     18  C4B       21.2700   -7.1800    1.0670 C.ar  901  HEM901      0.0000
     19  CMB       22.1090   -4.1100    3.0780 C.3   901  HEM901      0.0000
     20  CAB       19.3300   -5.5140    1.9380 C.2   901  HEM901      0.0000
     21  CBB       18.8380   -5.0420    3.1220 C.2   901  HEM901      0.0000
     22  C1C       20.7350   -9.0560   -0.3910 C.2   901  HEM901      0.0000
     23  C2C       19.7790   -9.8230   -1.2070 C.2   901  HEM901      0.0000
     24  C3C       20.5330  -10.6890   -1.8620 C.2   901  HEM901      0.0000
     25  C4C       21.9200  -10.5960   -1.5000 C.2   901  HEM901      0.0000
     26  CMC       18.2620   -9.6340   -1.3080 C.3   901  HEM901      0.0000
     27  CAC       19.9870  -11.7180   -2.8530 C.3   901  HEM901      0.0000
     28  CBC       20.5660  -11.6780   -4.0550 C.3   901  HEM901      0.0000
     29  C1D       24.2470  -11.2390   -1.4370 C.ar  901  HEM901      0.0000
     30  C2D       25.2290  -12.2260   -1.5830 C.ar  901  HEM901      0.0000
     31  C3D       26.4430  -11.8360   -0.7910 C.ar  901  HEM901      0.0000
     32  C4D       26.0800  -10.5300   -0.2740 C.ar  901  HEM901      0.0000
     33  CMD       25.0580  -13.4590   -2.4640 C.3   901  HEM901      0.0000
     34  CAD       27.7560  -12.6580   -0.6320 C.3   901  HEM901      0.0000
     35  CBD       27.4730  -13.3730    0.7680 C.3   901  HEM901      0.0000
     36  CGD       26.1510  -14.1350    1.1790 C.2   901  HEM901      0.0000
     37  O1D       25.4760  -13.9680    2.2580 O.co2 901  HEM901      0.0000
     38  O2D       25.6770  -15.0680    0.4850 O.co2 901  HEM901      0.0000
     39  NA        25.3390   -8.0670    1.2320 N.2   901  HEM901      0.0000
     40  NB        22.6630   -7.2290    1.1370 N.ar  901  HEM901      0.0000
     41  NC        22.0160   -9.4930   -0.6150 N.2   901  HEM901      0.0000
     42  ND        24.7900  -10.3020   -0.5290 N.ar  901  HEM901      0.0000
     43 FE         23.6830   -8.8200    0.3080 Fe    901  HEM901      0.0000
@<TRIPOS>BOND
     1    28    27    1
     2    27    24    1
     3    33    30    1
     4     4    25    1
     5     4    29    2
     6    24    25    1
     7    24    23    2
     8    30    29   ar
     9    30    31   ar
    10    25    41    2
    11    29    42   ar
    12    26    23    1
    13    23    22    1
    14    31    34    1
    15    31    32   ar
    16    34    35    1
    17    41    22    1
    18    41    43    1
    19    42    32   ar
    20    42    43    1
    21    22     3    2
    22    32     1    2
    23    43    40    1
    24    43    39    1
    25     3    18    1
    26    38    36   ar
    27     1     5    1
    28    35    36    1
    29    18    40   ar
    30    18    17   ar
    31    40    15   ar
    32    36    37   ar
    33     5    39    2
    34     5     6    1
    35    39     8    1
    36    17    20    1
    37    17    16   ar
    38    15    16   ar
    39    15     2    1
    40    20    21    2
    41     6    10    1
    42     6     7    2
    43     8     2    2
    44     8     7    1
    45    10    11    1
    46    16    19    1
    47     7     9    1
    48    13    12   ar
    49    11    12    1
    50    12    14   ar
