@<TRIPOS>MOLECULE
3i8t_LBT_A_1.pdb
 23 24 0 0 0
SMALL
GASTEIGER

@<TRIPOS>ATOM
      1  C1        -1.0970   75.1660   21.3100 C.3   165  LBT165      0.2695
      2  C2        -0.1650   75.9540   20.3790 C.3   165  LBT165      0.2406
      3  C3        -0.1630   75.2540   19.0070 C.3   165  LBT165      0.2198
      4  C4         0.1020   73.7560   19.1530 C.3   165  LBT165      0.2144
      5  C5        -0.9200   73.1400   20.0960 C.3   165  LBT165      0.1835
      6  C6        -0.8120   71.5940   20.2170 C.3   165  LBT165      0.2142
      7  O1        -1.0060   75.6920   22.6070 O.3   165  LBT165     -0.3257
      8  O2        -0.5990   77.3000   20.2360 O.3   165  LBT165     -0.2149
      9  O3         0.8090   75.8110   18.1590 O.3   165  LBT165     -0.2174
     10  O4         1.3860   73.5060   19.6730 O.3   165  LBT165     -0.2176
     11  O5        -0.7440   73.7710   21.3470 O.3   165  LBT165     -0.3256
     12  O6        -1.6520   71.1550   21.2660 O.3   165  LBT165     -0.2176
     13  C1'       -3.2190   75.5210   26.1340 C.3   165  LBT165      0.3023
     14  C2'       -2.0890   74.5100   25.9460 C.3   165  LBT165      0.2433
     15  C3'       -1.1290   74.9400   24.8430 C.3   165  LBT165      0.2168
     16  C4'       -1.9130   75.2320   23.5750 C.3   165  LBT165      0.1804
     17  C5'       -3.0630   76.2430   23.8410 C.3   165  LBT165      0.1804
     18  C6'       -3.9840   76.4580   22.6260 C.3   165  LBT165      0.2141
     19  O1'       -2.6860   76.7170   26.6810 O.3   165  LBT165     -0.1869
     20  O2'       -1.4010   74.4110   27.1660 O.3   165  LBT165     -0.2148
     21  O3'       -0.1840   73.9230   24.6490 O.3   165  LBT165     -0.2175
     22  O5'       -3.8820   75.7820   24.9080 O.3   165  LBT165     -0.3237
     23  O6'       -4.6870   75.2570   22.2790 O.3   165  LBT165     -0.2176
@<TRIPOS>BOND
     1     9     3    1
     2     3     4    1
     3     3     2    1
     4     4    10    1
     5     4     5    1
     6     5     6    1
     7     5    11    1
     8     6    12    1
     9     8     2    1
    10     2     1    1
    11     1    11    1
    12     1     7    1
    13    23    18    1
    14     7    16    1
    15    18    17    1
    16    16    17    1
    17    16    15    1
    18    17    22    1
    19    21    15    1
    20    15    14    1
    21    22    13    1
    22    14    13    1
    23    14    20    1
    24    13    19    1
