@<TRIPOS>MOLECULE
3i8u_18B_X_1.pdb
 43 46 0 0 0
SMALL
GASTEIGER

@<TRIPOS>ATOM
      1  NA        -0.8660  -19.2470   -0.1240 N.2   2030  18B2030    -0.4104
      2  NB         1.5060  -17.3060   -0.1110 N.2   2030  18B2030    -0.3375
      3  OB         3.6360  -16.8240   -0.8510 O.2   2030  18B2030    -0.2096
      4  NC         2.9350  -20.3450   -3.1570 N.2   2030  18B2030    -0.3371
      5  OC         4.2750  -18.4300   -3.2240 O.2   2030  18B2030    -0.2096
      6  ND         0.4660  -21.8600   -1.8330 N.2   2030  18B2030    -0.4104
      7  C1A       -1.7400  -20.2470    0.0780 C.2   2030  18B2030     0.1114
      8  O1A       -5.1630  -23.2780    2.1980 O.co2 2030  18B2030    -0.2456
      9  C1B        0.5040  -16.4970    0.3220 C.2   2030  18B2030     0.1254
     10  C1C        4.1640  -19.7290   -3.3960 C.1   2030  18B2030     0.2003
     11  C1D        0.7930  -22.7480   -2.8340 C.2   2030  18B2030     0.1115
     12  O1D       -5.2970  -24.4720   -2.0540 O.co2 2030  18B2030    -0.2456
     13  C2A       -2.8120  -19.9700    1.0410 C.2   2030  18B2030     0.0024
     14  O2A       -4.1380  -23.4580    4.1100 O.co2 2030  18B2030    -0.2456
     15  C2B        0.8650  -15.0950    0.3570 C.2   2030  18B2030     0.0128
     16  C2C        5.2030  -20.5480   -3.8320 C.2   2030  18B2030     0.0749
     17  C2D       -0.1450  -23.7540   -2.9880 C.2   2030  18B2030     0.0021
     18  O2D       -5.7320  -23.3480   -3.9180 O.co2 2030  18B2030    -0.2456
     19  C3A       -2.5840  -18.5820    1.3920 C.2   2030  18B2030     0.0021
     20  C3B        2.2240  -15.0830   -0.1420 C.2   2030  18B2030     0.0706
     21  C3C        4.5330  -21.8430   -3.9100 C.2   2030  18B2030     0.0347
     22  C3D       -1.2030  -23.4060   -2.1800 C.2   2030  18B2030     0.0024
     23  C4A       -1.3410  -18.2760    0.7210 C.2   2030  18B2030     0.1114
     24  C4B        2.4960  -16.4390   -0.3930 C.1   2030  18B2030     0.2000
     25  C4C        3.1640  -21.6120   -3.4670 C.2   2030  18B2030     0.1293
     26  C4D       -0.7990  -22.2530   -1.5070 C.2   2030  18B2030     0.1114
     27  CAA       -3.9280  -20.8590    1.5150 C.3   2030  18B2030     0.0402
     28  CAB        3.0660  -13.8850   -0.3500 C.3   2030  18B2030     0.0390
     29  CAC        5.0000  -23.2200   -4.2160 C.2   2030  18B2030     0.0027
     30  CAD       -2.5750  -24.0600   -2.0790 C.3   2030  18B2030     0.0402
     31  CBA       -3.4260  -21.6790    2.7030 C.3   2030  18B2030     0.1188
     32  CBB        3.8180  -13.9130    0.9640 C.3   2030  18B2030     0.0058
     33  CBC        6.2870  -23.5450   -4.2420 C.2   2030  18B2030     0.0001
     34  CBD       -3.4970  -23.3040   -3.0600 C.3   2030  18B2030     0.1188
     35  CGA       -4.2920  -22.8940    3.0100 C.2   2030  18B2030     0.3652
     36  CGD       -4.9550  -23.7410   -3.0040 C.2   2030  18B2030     0.3652
     37  CHA       -1.6670  -21.5750   -0.5220 C.3   2030  18B2030     0.1170
     38  CHB       -0.8080  -16.9200    0.7350 C.3   2030  18B2030     0.1181
     39  CHD        2.1650  -22.6990   -3.3410 C.3   2030  18B2030     0.1184
     40  CMA       -3.3780  -17.7370    2.3540 C.3   2030  18B2030     0.0331
     41  CMB        0.0090  -13.9500    0.7900 C.3   2030  18B2030     0.0339
     42  CMC        6.6180  -20.2240   -4.2010 C.3   2030  18B2030     0.0448
     43  CMD       -0.1080  -24.9270   -3.9210 C.3   2030  18B2030     0.0331
@<TRIPOS>BOND
     1    33    29    2
     2    29    21    1
     3    42    16    1
     4    43    17    1
     5    18    36   ar
     6    21    16    2
     7    21    25    1
     8    16    10    1
     9    25    39    1
    10    25     4    2
    11    10     5    2
    12    10     4    2
    13    39    11    1
    14    34    36    1
    15    34    30    1
    16    36    12   ar
    17    17    11    1
    18    17    22    2
    19    11     6    2
    20    22    30    1
    21    22    26    1
    22     6    26    2
    23    26    37    1
    24     3    24    2
    25    37     7    1
    26    24    20    1
    27    24     2    2
    28    28    20    1
    29    28    32    1
    30    20    15    2
    31     1     7    2
    32     1    23    2
    33     2     9    2
    34     7    13    1
    35     9    15    1
    36     9    38    1
    37    15    41    1
    38    23    38    1
    39    23    19    1
    40    13    19    2
    41    13    27    1
    42    19    40    1
    43    27    31    1
    44     8    35   ar
    45    31    35    1
    46    35    14   ar
