@<TRIPOS>MOLECULE
3i8v_0MO_A_1.pdb
 20 21 0 0 0
SMALL
GASTEIGER

@<TRIPOS>ATOM
      1  C1        45.5220   20.9330  -26.8440 C.3     1  0MO1        0.0001
      2  N1        41.1290   18.1830  -19.9670 N.2     1  0MO1       -0.1848
      3  O1        43.5100   17.8270  -26.9260 O.3     1  0MO1       -0.4724
      4  C2        45.4280   19.7130  -27.7280 C.3     1  0MO1        0.0038
      5  N2        39.8160   16.8840  -21.1200 N.2     1  0MO1       -0.1865
      6  O2        41.2320   17.0380  -28.5340 O.3     1  0MO1       -0.4684
      7  C3        45.8770   18.4580  -26.9920 C.3     1  0MO1        0.0473
      8  O3        39.8870   16.5530  -18.9130 O.2     1  0MO1       -0.2023
      9  C4        44.7320   17.8600  -26.1760 C.3     1  0MO1        0.2056
     10  C5        42.3490   17.3720  -26.3560 C.ar    1  0MO1        0.1719
     11  C6        41.1710   16.9600  -27.1640 C.ar    1  0MO1        0.1724
     12  C7        40.2680   16.4050  -29.3720 C.3     1  0MO1        0.2526
     13  C8        40.0170   16.5170  -26.5110 C.ar    1  0MO1        0.0397
     14  C9        39.9860   16.4430  -25.1200 C.ar    1  0MO1       -0.0009
     15  C10       41.0990   16.8360  -24.3700 C.ar    1  0MO1       -0.0169
     16  C11       41.1390   16.7360  -22.8740 C.3     1  0MO1        0.0537
     17  C12       40.3460   17.7500  -22.1250 C.3     1  0MO1        0.1457
     18  C13       41.2500   18.6890  -21.3280 C.3     1  0MO1        0.1647
     19  C14       40.2660   17.1640  -19.9110 C.1     1  0MO1        0.2387
     20  C15       42.2620   17.2880  -24.9770 C.ar    1  0MO1        0.0358
@<TRIPOS>BOND
     1    12     6    1
     2     6    11    1
     3     4     7    1
     4     4     1    1
     5    11    13   ar
     6    11    10   ar
     7     7     9    1
     8     3    10    1
     9     3     9    1
    10    13    14   ar
    11    10    20   ar
    12    14    15   ar
    13    20    15   ar
    14    15    16    1
    15    16    17    1
    16    17    18    1
    17    17     5    1
    18    18     2    1
    19     5    19    2
    20     2    19    2
    21    19     8    2
