@<TRIPOS>MOLECULE
3i8w_CB5_A_1.pdb
 23 40 0 0 0
SMALL
GASTEIGER

@<TRIPOS>ATOM
      1  B7         0.5180   50.1660   45.8310 B     100  CB5100      0.0000
      2 CO          1.8550   49.5310   44.3420 Co.oh 100  CB5100      0.0000
      3  B24        3.2920   49.2920   42.7620 B     100  CB5100      0.0000
      4  B29        4.9400   49.8250   43.0510 B     100  CB5100      0.0000
      5  B25        4.5720   48.0900   42.9820 B     100  CB5100      0.0000
      6  B30        5.7450   48.6960   44.1870 B     100  CB5100      0.0000
      7  B32        5.1550   50.2560   44.8090 B     100  CB5100      0.0000
      8  B31        4.8960   48.8290   45.7530 B     100  CB5100      0.0000
      9  B26        4.5170   47.5150   44.6430 B     100  CB5100      0.0000
     10  C22        3.3090   48.5720   45.2690 C.3   100  CB5100      0.0000
     11  B27        3.5820   50.0490   45.6670 B     100  CB5100      0.0000
     12  B8         0.1530   48.5280   45.2040 B     100  CB5100      0.0000
     13  B4         0.1540   48.6690   43.4560 B     100  CB5100      0.0000
     14  B9        -1.3870   48.6590   44.3080 B     100  CB5100      0.0000
     15  B5        -1.1410   49.8070   42.9640 B     100  CB5100      0.0000
     16  B12       -1.1660   49.5680   45.8230 B     100  CB5100      0.0000
     17  B11       -0.8260   51.2510   45.4090 B     100  CB5100      0.0000
     18  B6        -0.8240   51.4010   43.6560 B     100  CB5100      0.0000
     19  C2         0.6230   51.1290   44.5400 C.3   100  CB5100      0.0000
     20  C1         0.4590   50.4010   43.1270 C.3   100  CB5100      0.0000
     21  B28        3.5840   50.4070   44.0150 B     100  CB5100      0.0000
     22  C21        3.0860   47.9830   43.8090 C.3   100  CB5100      0.0000
     23  B10       -1.9940   50.3320   44.4360 B     100  CB5100      0.0000
@<TRIPOS>BOND
     1     3     5    1
     2     3     4    1
     3     3    22    1
     4     3    21    1
     5    15    20    1
     6    15    14    1
     7    15    23    1
     8     5     4    1
     9     5    22    1
    10     5     9    1
    11     4    21    1
    12     4     6    1
    13    20    13    1
    14    20    18    1
    15    20    19    1
    16    13    14    1
    17    13    12    1
    18    18    23    1
    19    18    19    1
    20    18    17    1
    21    22     9    1
    22    22    10    1
    23    21     7    1
    24    21    11    1
    25     6     7    1
    26     6     8    1
    27    14    23    1
    28    14    16    1
    29    23    17    1
    30    19    17    1
    31    19     1    1
    32     9    10    1
    33     9     8    1
    34     7    11    1
    35     7     8    1
    36    12     1    1
    37    10    11    1
    38    10     8    1
    39    17    16    1
    40    16     1    1
