@<TRIPOS>MOLECULE
3i8x_GDP_A_1.pdb
 28 30 0 0 0
SMALL
GASTEIGER

@<TRIPOS>ATOM
      1  PB        15.5090    6.2760   79.6280 P.3   275  GDP275      0.5373
      2  O1B       14.8450    5.6770   80.8330 O.3   275  GDP275     -0.1143
      3  O2B       16.4260    5.2210   79.1210 O.3   275  GDP275     -0.1143
      4  O3B       14.3570    6.5140   78.6790 O.2   275  GDP275     -0.2221
      5  O3A       16.3410    7.6140   79.9630 O.3   275  GDP275     -0.2261
      6  PA        16.0750    9.2020   79.6220 P.3   275  GDP275      0.2231
      7  O1A       14.8220    9.8070   80.2270 O.3   275  GDP275     -0.4370
      8  O2A       16.2980    9.6430   78.2030 O.2   275  GDP275     -0.5169
      9  O5'       17.3300    9.8550   80.3770 O.3   275  GDP275     -0.3111
     10  C5'       17.4990    9.8180   81.7860 C.3   275  GDP275      0.1813
     11  C4'       18.0950   11.1550   82.2260 C.3   275  GDP275      0.1799
     12  O4'       19.4220   11.2630   81.7210 O.3   275  GDP275     -0.3326
     13  C3'       17.3410   12.3400   81.6450 C.3   275  GDP275      0.2158
     14  O3'       17.3110   13.4330   82.5530 O.3   275  GDP275     -0.2175
     15  C2'       18.1230   12.7590   80.4190 C.3   275  GDP275      0.2310
     16  O2'       17.9390   14.1480   80.1260 O.3   275  GDP275     -0.2158
     17  C1'       19.5420   12.3740   80.8080 C.3   275  GDP275      0.2293
     18  N9        20.4130   11.9820   79.6560 N.pl3 275  GDP275     -0.2354
     19  C8        20.0940   11.2790   78.5520 C.3   275  GDP275      0.2246
     20  N7        21.1860   11.1240   77.7540 N.2   275  GDP275     -0.2322
     21  C5        22.2300   11.7210   78.3480 C.2   275  GDP275      0.2182
     22  C6        23.6810   11.9310   78.0600 C.1   275  GDP275      0.2372
     23  O6        24.2060   11.4980   77.0260 O.2   275  GDP275     -0.2069
     24  N1        24.4180   12.5910   78.9530 N.2   275  GDP275     -0.2485
     25  C2        23.8700   13.0780   80.0830 C.1   275  GDP275      0.2531
     26  N2        24.6440   13.7420   80.9440 N.pl3 275  GDP275     -0.0226
     27  N3        22.5620   12.9440   80.4250 N.2   275  GDP275     -0.3074
     28  C4        21.7120   12.2750   79.6080 C.2   275  GDP275      0.2300
@<TRIPOS>BOND
     1    23    22    2
     2    20    21    2
     3    20    19    1
     4    22    21    1
     5    22    24    2
     6     8     6    2
     7    21    28    1
     8    19    18    1
     9     4     1    2
    10    24    25    2
    11     3     1    1
    12    28    18    1
    13    28    27    2
    14     6     5    1
    15     6     7    1
    16     6     9    1
    17     1     5    1
    18     1     2    1
    19    18    17    1
    20    25    27    2
    21    25    26    1
    22    16    15    1
    23     9    10    1
    24    15    17    1
    25    15    13    1
    26    17    12    1
    27    13    11    1
    28    13    14    1
    29    12    11    1
    30    10    11    1
