@<TRIPOS>MOLECULE
3i93_DUP_A_1.pdb
 28 29 0 0 0
SMALL
GASTEIGER

@<TRIPOS>ATOM
      1  O4        16.7710   14.8940   41.4790 O.2   201  DUP201     -0.2085
      2  C4        15.8870   14.0900   40.9220 C.1   201  DUP201      0.2182
      3  C5        16.2600   12.8790   40.3620 C.2   201  DUP201      0.1242
      4  C6        15.2770   12.0870   39.7810 C.2   201  DUP201      0.0928
      5  N3        14.6190   14.4930   40.8810 N.2   201  DUP201     -0.2452
      6  C2        13.6660   13.7150   40.3070 C.1   201  DUP201      0.2844
      7  O2        12.3800   14.1670   40.3090 O.2   201  DUP201     -0.1918
      8  N1        14.0000   12.5190   39.7690 N.am  201  DUP201     -0.1790
      9  C1'       12.9770   11.6840   39.1510 C.3   201  DUP201      0.2090
     10  C2'       13.1620   11.7660   37.6430 C.3   201  DUP201      0.0874
     11  C3'       13.9020   10.4760   37.3280 C.3   201  DUP201      0.1857
     12  O3'       13.6410   10.0170   36.0060 O.3   201  DUP201     -0.2203
     13  O4'       13.1800   10.3180   39.5600 O.3   201  DUP201     -0.3339
     14  C4'       13.3460    9.5410   38.3770 C.3   201  DUP201      0.1774
     15  C5'       14.2760    8.3810   38.6620 C.3   201  DUP201      0.1848
     16  O5'       15.5450    8.9100   39.0720 O.3   201  DUP201     -0.2775
     17  PA        16.5950    7.8430   39.6900 P.3   201  DUP201      0.4623
     18  O1A       17.8490    8.6180   40.0770 O.3   201  DUP201     -0.1255
     19  O2A       16.6920    6.7250   38.6760 O.2   201  DUP201     -0.2354
     20  N3A       15.8400    7.2740   41.0960 N.3   201  DUP201     -0.0179
     21  PB        15.6790    5.6490   41.5100 P.3   201  DUP201      0.4700
     22  O1B       16.6440    4.7280   40.7760 O.2   201  DUP201     -0.2350
     23  O2B       15.7760    5.5570   43.0220 O.3   201  DUP201     -0.1252
     24  O3B       14.1610    5.1820   41.1350 O.3   201  DUP201     -0.1901
     25  PG        13.7590    4.3230   39.8120 P.3   201  DUP201      0.5397
     26  O2G       13.7600    2.8860   40.2680 O.3   201  DUP201     -0.1143
     27  O1G       12.3850    4.8980   39.4790 O.3   201  DUP201     -0.1143
     28  O3G       14.8040    4.6460   38.7480 O.2   201  DUP201     -0.2220
@<TRIPOS>BOND
     1    12    11    1
     2    11    10    1
     3    11    14    1
     4    10     9    1
     5    14    15    1
     6    14    13    1
     7    15    16    1
     8    19    17    2
     9    28    25    2
    10    16    17    1
    11     9    13    1
    12     9     8    1
    13    27    25    1
    14    17    18    1
    15    17    20    1
    16     8     4    1
    17     8     6   am
    18     4     3    2
    19    25    26    1
    20    25    24    1
    21     6     7    2
    22     6     5    2
    23     3     2    1
    24    22    21    2
    25     5     2    2
    26     2     1    2
    27    20    21    1
    28    24    21    1
    29    21    23    1
