@<TRIPOS>MOLECULE
3i94_BL3_A_1.pdb
 43 46 0 0 0
SMALL
GASTEIGER

@<TRIPOS>ATOM
      1  NA        -0.6390  -19.2850   42.5820 N.2   2130  BL32130    -0.4104
      2  NB         1.6750  -17.3000   42.4030 N.2   2130  BL32130    -0.3371
      3  OB         3.8050  -16.9850   41.5300 O.2   2130  BL32130    -0.2096
      4  NC         3.1830  -20.5020   39.3210 N.2   2130  BL32130    -0.3371
      5  OC         4.4970  -18.5870   39.1590 O.2   2130  BL32130    -0.2096
      6  ND         0.5640  -21.7660   40.6560 N.2   2130  BL32130    -0.4104
      7  C1A       -1.5460  -20.3570   42.7130 C.2   2130  BL32130     0.1114
      8  O1A       -4.9420  -23.1930   44.7570 O.co2 2130  BL32130    -0.2456
      9  C1B        0.7110  -16.4810   42.9270 C.2   2130  BL32130     0.1293
     10  C1C        4.3940  -19.8520   39.0780 C.1   2130  BL32130     0.2003
     11  C1D        1.0430  -22.7290   39.7350 C.2   2130  BL32130     0.1115
     12  O1D       -5.1590  -24.4520   40.6070 O.co2 2130  BL32130    -0.2456
     13  C2A       -2.5530  -19.9200   43.6230 C.2   2130  BL32130     0.0024
     14  O2A       -3.9430  -23.4620   46.6930 O.co2 2130  BL32130    -0.2456
     15  C2B        1.1930  -15.1330   42.8820 C.2   2130  BL32130     0.0347
     16  C2C        5.3510  -20.8420   38.7340 C.2   2130  BL32130     0.0749
     17  C2D       -0.0010  -23.6780   39.5640 C.2   2130  BL32130     0.0021
     18  O2D       -5.6150  -23.4410   38.7400 O.co2 2130  BL32130    -0.2456
     19  C3A       -2.3010  -18.6280   43.9740 C.2   2130  BL32130     0.0021
     20  C3B        2.4370  -15.1510   42.2960 C.2   2130  BL32130     0.0749
     21  C3C        4.7140  -22.0820   38.7210 C.2   2130  BL32130     0.0347
     22  C3D       -1.0310  -23.3190   40.3850 C.2   2130  BL32130     0.0024
     23  C4A       -1.1150  -18.2240   43.3370 C.2   2130  BL32130     0.1115
     24  C4B        2.7510  -16.4970   42.0400 C.1   2130  BL32130     0.2003
     25  C4C        3.3140  -21.8400   39.0930 C.2   2130  BL32130     0.1293
     26  C4D       -0.7090  -22.1920   41.0810 C.2   2130  BL32130     0.1114
     27  CAA       -3.6490  -20.8150   44.1170 C.3   2130  BL32130     0.0402
     28  CAB        0.4190  -14.0130   43.3320 C.2   2130  BL32130     0.0027
     29  CAC        5.2390  -23.3330   38.4670 C.2   2130  BL32130     0.0027
     30  CAD       -2.3940  -23.9850   40.4370 C.3   2130  BL32130     0.0402
     31  CBA       -3.2170  -21.6950   45.3070 C.3   2130  BL32130     0.1188
     32  CBB        0.9160  -12.7720   43.6630 C.2   2130  BL32130     0.0001
     33  CBC        6.5290  -23.7660   38.3660 C.2   2130  BL32130     0.0001
     34  CBD       -3.3810  -23.3210   39.5080 C.3   2130  BL32130     0.1188
     35  CGA       -4.1030  -22.8360   45.6290 C.2   2130  BL32130     0.3652
     36  CGD       -4.8030  -23.7870   39.6340 C.2   2130  BL32130     0.3652
     37  CHA       -1.5300  -21.5640   42.0420 C.3   2130  BL32130     0.1170
     38  CHB       -0.5170  -16.9230   43.4100 C.3   2130  BL32130     0.1184
     39  CHD        2.3250  -22.8020   39.1980 C.3   2130  BL32130     0.1184
     40  CMA       -3.0830  -17.7610   44.9000 C.3   2130  BL32130     0.0331
     41  CMB        3.4280  -14.0520   41.9880 C.3   2130  BL32130     0.0448
     42  CMC        6.7740  -20.4890   38.4600 C.3   2130  BL32130     0.0448
     43  CMD        0.0650  -24.8490   38.6210 C.3   2130  BL32130     0.0331
@<TRIPOS>BOND
     1    33    29    2
     2    42    16    1
     3    29    21    1
     4    43    17    1
     5    21    16    2
     6    21    25    1
     7    16    10    1
     8    18    36   ar
     9    10     5    2
    10    10     4    2
    11    25    39    1
    12    25     4    2
    13    39    11    1
    14    34    36    1
    15    34    30    1
    16    17    11    1
    17    17    22    2
    18    36    12   ar
    19    11     6    2
    20    22    30    1
    21    22    26    1
    22     6    26    2
    23    26    37    1
    24     3    24    2
    25    41    20    1
    26    24    20    1
    27    24     2    2
    28    37     7    1
    29    20    15    2
    30     2     9    2
    31     1     7    2
    32     1    23    2
    33     7    13    1
    34    15     9    1
    35    15    28    1
    36     9    38    1
    37    28    32    2
    38    23    38    1
    39    23    19    1
    40    13    19    2
    41    13    27    1
    42    19    40    1
    43    27    31    1
    44     8    35   ar
    45    31    35    1
    46    35    14   ar
