@<TRIPOS>MOLECULE
3i95_BLA_A_1.pdb
 43 46 0 0 0
SMALL
GASTEIGER

@<TRIPOS>ATOM
      1  CHA       -1.8280  -21.7220   42.3670 C.3   1130  BLA1130     0.1170
      2  NA        -1.0290  -19.4330   42.8370 N.2   1130  BLA1130    -0.4104
      3  C1A       -1.8610  -20.4680   43.0910 C.2   1130  BLA1130     0.1114
      4  C2A       -2.9850  -20.1490   43.9770 C.2   1130  BLA1130     0.0024
      5  C3A       -2.7550  -18.7600   44.3390 C.2   1130  BLA1130     0.0021
      6  C4A       -1.5210  -18.4490   43.6230 C.2   1130  BLA1130     0.1114
      7  CMA       -3.5480  -17.8950   45.2740 C.3   1130  BLA1130     0.0331
      8  CAA       -4.0950  -21.0500   44.4360 C.3   1130  BLA1130     0.0402
      9  CBA       -3.5530  -21.8870   45.5900 C.3   1130  BLA1130     0.1188
     10  CGA       -4.4310  -23.0870   45.9020 C.2   1130  BLA1130     0.3652
     11  O1A       -5.3110  -23.4300   45.0820 O.co2 1130  BLA1130    -0.2456
     12  O2A       -4.2280  -23.6870   46.9770 O.co2 1130  BLA1130    -0.2456
     13  CHB       -0.9830  -17.0930   43.6340 C.3   1130  BLA1130     0.1181
     14  NB         1.3090  -17.4170   42.7960 N.2   1130  BLA1130    -0.3372
     15  C1B        0.3050  -16.6070   43.1820 C.2   1130  BLA1130     0.1257
     16  C2B        0.6180  -15.1700   43.1580 C.2   1130  BLA1130     0.0168
     17  C3B        1.9890  -15.1530   42.6770 C.2   1130  BLA1130     0.0929
     18  C4B        2.3200  -16.5800   42.4910 C.1   1130  BLA1130     0.2041
     19  CMB       -0.2870  -14.0290   43.5080 C.3   1130  BLA1130     0.0342
     20  OB         3.4650  -16.9760   42.0760 O.2   1130  BLA1130    -0.2093
     21  CAB        2.8400  -13.9780   42.3960 C.2   1130  BLA1130     0.0124
     22  CBB        3.9210  -14.0850   41.6600 C.2   1130  BLA1130     0.0008
     23  NC         2.7790  -20.4270   39.6960 N.2   1130  BLA1130    -0.3371
     24  C1C        3.9260  -19.7730   39.4080 C.1   1130  BLA1130     0.2003
     25  C2C        5.0380  -20.6170   38.9530 C.2   1130  BLA1130     0.0749
     26  C3C        4.4240  -21.9470   38.9870 C.2   1130  BLA1130     0.0347
     27  C4C        3.0560  -21.7200   39.4290 C.2   1130  BLA1130     0.1293
     28  CMC        6.4160  -20.2180   38.5580 C.3   1130  BLA1130     0.0448
     29  OC         4.0510  -18.4990   39.5260 O.2   1130  BLA1130    -0.2096
     30  CAC        4.9710  -23.2730   38.6330 C.2   1130  BLA1130     0.0027
     31  CBC        6.2590  -23.5440   38.5950 C.2   1130  BLA1130     0.0001
     32  CHD        2.1090  -22.8130   39.5960 C.3   1130  BLA1130     0.1184
     33  ND         0.3110  -21.8890   41.0490 N.2   1130  BLA1130    -0.4104
     34  C1D        0.7490  -22.7920   40.1190 C.2   1130  BLA1130     0.1115
     35  C2D       -0.2120  -23.8640   39.8260 C.2   1130  BLA1130     0.0021
     36  C3D       -1.3490  -23.5150   40.6470 C.2   1130  BLA1130     0.0024
     37  C4D       -0.9480  -22.2940   41.3480 C.2   1130  BLA1130     0.1114
     38  CMD       -0.0870  -25.0280   38.8870 C.3   1130  BLA1130     0.0331
     39  CAD       -2.6850  -24.1890   40.6920 C.3   1130  BLA1130     0.0402
     40  CBD       -3.6090  -23.4180   39.7480 C.3   1130  BLA1130     0.1188
     41  CGD       -5.0530  -23.8430   39.8670 C.2   1130  BLA1130     0.3652
     42  O1D       -5.3950  -24.5140   40.8650 O.co2 1130  BLA1130    -0.2456
     43  O2D       -5.8170  -23.4870   38.9470 O.co2 1130  BLA1130    -0.2456
@<TRIPOS>BOND
     1    28    25    1
     2    31    30    2
     3    30    26    1
     4    38    35    1
     5    43    41   ar
     6    25    26    2
     7    25    24    1
     8    26    27    1
     9    24    29    2
    10    24    23    2
    11    27    32    1
    12    27    23    2
    13    32    34    1
    14    40    41    1
    15    40    39    1
    16    35    34    1
    17    35    36    2
    18    41    42   ar
    19    34    33    2
    20    36    39    1
    21    36    37    1
    22    33    37    2
    23    37     1    1
    24    22    21    2
    25    20    18    2
    26     1     3    1
    27    21    17    1
    28    18    17    1
    29    18    14    2
    30    17    16    2
    31    14    15    2
    32     2     3    2
    33     2     6    2
    34     3     4    1
    35    16    15    1
    36    16    19    1
    37    15    13    1
    38     6    13    1
    39     6     5    1
    40     4     5    2
    41     4     8    1
    42     5     7    1
    43     8     9    1
    44    11    10   ar
    45     9    10    1
    46    10    12   ar
