@<TRIPOS>MOLECULE
3i9g_S1P_L_1.pdb
 25 24 0 0 0
SMALL
GASTEIGER

@<TRIPOS>ATOM
      1  C1         1.1760   14.7560   38.5570 C.3   401  S1P401      0.1756
      2  O1         2.5760   15.0240   38.4680 O.3   401  S1P401     -0.2686
      3  C2         0.6880   14.3200   37.1820 C.3   401  S1P401      0.1563
      4  N2         1.3870   13.0990   36.7580 N.3   401  S1P401     -0.1272
      5  C3         0.9260   15.4380   36.1540 C.3   401  S1P401      0.1936
      6  O3         0.0420   16.5200   36.4520 O.3   401  S1P401     -0.2167
      7  C4         0.6190   14.9580   34.7490 C.2   401  S1P401      0.0031
      8  C5         1.5760   15.0020   33.8280 C.2   401  S1P401     -0.0282
      9  C6         1.2970   14.5280   32.4220 C.3   401  S1P401      0.0258
     10  C7         1.7270   15.6480   31.4700 C.3   401  S1P401      0.0047
     11  C8         0.5170   16.1000   30.6910 C.3   401  S1P401      0.0003
     12  C9        -0.2110   17.3160   31.2030 C.3   401  S1P401      0.0000
     13  C10       -0.6850   18.0290   29.9490 C.3   401  S1P401      0.0000
     14  C11       -2.1900   17.9870   29.6930 C.3   401  S1P401      0.0000
     15  C12       -2.4610   18.5280   28.2870 C.3   401  S1P401      0.0000
     16  C13       -3.4740   19.6620   28.3910 C.3   401  S1P401      0.0000
     17  C14       -3.5330   20.6290   27.1900 C.3   401  S1P401      0.0000
     18  C15       -2.7350   21.9200   27.4140 C.3   401  S1P401      0.0000
     19  C16       -3.1600   22.7410   28.6320 C.3   401  S1P401      0.0000
     20  C17       -2.2580   23.9510   28.7960 C.3   401  S1P401      0.0000
     21  C18       -2.8160   24.9620   29.7800 C.3   401  S1P401      0.0000
     22  P22        3.6270   14.2890   39.4550 P.3   401  S1P401      0.5326
     23  O23        3.0530   14.3370   40.8090 O.3   401  S1P401     -0.1145
     24  O24        4.8970   15.0190   39.1860 O.3   401  S1P401     -0.1145
     25  O25        3.7750   12.8800   38.8880 O.2   401  S1P401     -0.2224
@<TRIPOS>BOND
     1    17    18    1
     2    17    16    1
     3    18    19    1
     4    15    16    1
     5    15    14    1
     6    19    20    1
     7    20    21    1
     8    14    13    1
     9    13    12    1
    10    11    12    1
    11    11    10    1
    12    10     9    1
    13     9     8    1
    14     8     7    2
    15     7     5    1
    16     5     6    1
    17     5     3    1
    18     4     3    1
    19     3     1    1
    20     2     1    1
    21     2    22    1
    22    25    22    2
    23    24    22    1
    24    22    23    1
