@<TRIPOS>MOLECULE
3i9j_AVV_B_1.pdb
 36 39 0 0 0
SMALL
GASTEIGER

@<TRIPOS>ATOM
      1  PA         2.4100    0.8740  -19.6700 P.3   301  AVV301      0.2189
      2  PN         4.5680   -0.8920  -20.4400 P.3   301  AVV301      0.2189
      3  F1A        9.1820    7.4210  -17.7930 F     301  AVV301     -0.0976
      4  N1A        9.6020    7.2920  -20.1480 N.2   301  AVV301     -0.2971
      5  O1A        1.2500    1.0080  -18.7050 O.3   301  AVV301     -0.4371
      6  O1N        4.5970   -0.0180  -21.7280 O.2   301  AVV301     -0.5170
      7  C2A        8.7790    7.1520  -19.0600 C.1   301  AVV301      0.2998
      8  O2A        2.1710    1.1910  -21.1400 O.2   301  AVV301     -0.5170
      9  O2N        4.6000   -2.4300  -20.5890 O.3   301  AVV301     -0.4371
     10  O3         3.1650   -0.5690  -19.6570 O.3   301  AVV301     -0.2703
     11  N3A        7.5130    6.7420  -19.2210 N.2   301  AVV301     -0.3001
     12  C4A        7.0610    6.4640  -20.4540 C.2   301  AVV301      0.2224
     13  C5A        7.8520    6.5870  -21.5760 C.2   301  AVV301      0.1707
     14  C6A        9.1660    7.0180  -21.3990 C.2   301  AVV301      0.2545
     15  N6A       10.0010    7.1690  -22.4460 N.pl3 301  AVV301     -0.0903
     16  N7A        7.0670    6.2270  -22.6290 N.2   301  AVV301     -0.2401
     17  C8A        5.8340    5.8890  -22.1580 C.3   301  AVV301      0.2238
     18  N9A        5.8660    6.0600  -20.8260 N.pl3 301  AVV301     -0.2359
     19 C1'A        4.8680    5.8310  -19.7650 C.3   301  AVV301      0.2293
     20 C1'N        8.9660   -1.6080  -17.3770 C.3   301  AVV301      0.1777
     21 C2'A        3.4370    5.6140  -20.2430 C.3   301  AVV301      0.2310
     22 O2'A        2.6180    6.6670  -19.7100 O.3   301  AVV301     -0.2158
     23 C2'N        8.2360   -1.7480  -16.0600 C.3   301  AVV301      0.2140
     24 O2'N        9.0860   -2.3820  -15.1100 O.3   301  AVV301     -0.2176
     25 C3'A        3.0610    4.2240  -19.7190 C.3   301  AVV301      0.2158
     26 O3'A        2.0310    4.1880  -18.7020 O.3   301  AVV301     -0.2175
     27 C3'N        6.9750   -2.5230  -16.4730 C.3   301  AVV301      0.2140
     28 O3'N        7.2730   -3.9120  -16.6080 O.3   301  AVV301     -0.2176
     29 C4'A        4.3200    3.6710  -19.0800 C.3   301  AVV301      0.1799
     30 O4'A        5.3610    4.6320  -19.1520 O.3   301  AVV301     -0.3326
     31 C4'N        6.6580   -1.9840  -17.8720 C.3   301  AVV301      0.1780
     32 O4'N        7.8990   -1.4920  -18.3520 O.3   301  AVV301     -0.3482
     33 C5'A        4.6530    2.3660  -19.7500 C.3   301  AVV301      0.1813
     34 O5'A        3.6950    1.6160  -19.0300 O.3   301  AVV301     -0.3112
     35 C5'N        5.7540   -0.7720  -17.9700 C.3   301  AVV301      0.1812
     36 O5'N        5.7020   -0.4080  -19.3440 O.3   301  AVV301     -0.3112
@<TRIPOS>BOND
     1    16    17    1
     2    16    13    2
     3    15    14    1
     4    17    18    1
     5     6     2    2
     6    13    14    1
     7    13    12    1
     8    14     4    2
     9     8     1    2
    10    18    12    1
    11    18    19    1
    12     9     2    1
    13    12    11    2
    14     2    10    1
    15     2    36    1
    16    21    19    1
    17    21    25    1
    18    21    22    1
    19     4     7    2
    20    19    30    1
    21    33    29    1
    22    33    34    1
    23    25    29    1
    24    25    26    1
    25     1    10    1
    26     1    34    1
    27     1     5    1
    28    36    35    1
    29    11     7    2
    30    30    29    1
    31     7     3    1
    32    32    31    1
    33    32    20    1
    34    35    31    1
    35    31    27    1
    36    20    23    1
    37    28    27    1
    38    27    23    1
    39    23    24    1
