@<TRIPOS>MOLECULE
3i9j_NFD_A_1.pdb
 45 49 0 0 0
SMALL
GASTEIGER

@<TRIPOS>ATOM
      1  PA         1.5110    2.0120   19.3710 P.3   301  NFD301      0.2189
      2  PN         0.5470    4.6670   20.2380 P.3   301  NFD301      0.2189
      3  N1A        9.2480    5.6510   22.0010 N.2   301  NFD301     -0.2971
      4  O1A        0.9430    1.0360   18.3420 O.2   301  NFD301     -0.5170
      5  NN1        3.2210    8.2450   17.3340 N.pl3 301  NFD301     -0.2787
      6  O1N       -0.9380    5.1710   20.3430 O.2   301  NFD301     -0.5170
      7  C2A        8.4390    4.5640   22.0990 C.1   301  NFD301      0.2998
      8  F2A        8.0060    4.1510   23.2980 F     301  NFD301     -0.0976
      9  O2A        1.7590    1.6580   20.7790 O.3   301  NFD301     -0.4371
     10  C2N        4.0090    7.9220   16.2820 C.3   301  NFD301      0.1244
     11  O2N        1.5000    4.6870   21.4460 O.3   301  NFD301     -0.4371
     12  O3         0.3810    3.2480   19.4080 O.3   301  NFD301     -0.2703
     13  N3A        8.0390    3.8780   21.0060 N.2   301  NFD301     -0.3001
     14  C3N        5.3230    7.4230   16.4940 C.2   301  NFD301      0.0544
     15  C4A        8.4400    4.2420   19.7580 C.2   301  NFD301      0.2224
     16  C4N        5.7920    7.2410   17.7800 C.2   301  NFD301      0.0033
     17  C5A        9.2740    5.3550   19.6290 C.2   301  NFD301      0.1707
     18  C5N        4.9510    7.5660   18.8480 C.2   301  NFD301      0.0157
     19  C6A        9.6710    6.0670   20.7810 C.2   301  NFD301      0.2545
     20  N6A       10.4780    7.1540   20.7160 N.pl3 301  NFD301     -0.0903
     21  C6N        3.6690    8.0650   18.5960 C.2   301  NFD301      0.0633
     22  N7A        9.5190    5.4840   18.2950 N.2   301  NFD301     -0.2401
     23  C7N        6.2640    7.0250   15.3550 C.2   301  NFD301      0.2818
     24  NN7        5.9820    7.4380   14.1030 N.am  301  NFD301     -0.0839
     25  O7N        7.3570    6.2520   15.5380 O.2   301  NFD301     -0.2670
     26  C8A        8.8570    4.5000   17.6240 C.3   301  NFD301      0.2238
     27  N9A        8.1860    3.7400   18.5190 N.pl3 301  NFD301     -0.2359
     28 C1'A        7.3660    2.5170   18.2190 C.3   301  NFD301      0.2293
     29 C1'N        1.8350    8.7420   17.2120 C.3   301  NFD301      0.2263
     30 C2'A        7.5980    1.6450   19.4470 C.3   301  NFD301      0.2310
     31 O2'A        8.4060    0.4960   19.1230 O.3   301  NFD301     -0.2158
     32 C2'N        1.1930    8.2320   15.9500 C.3   301  NFD301      0.2309
     33 O2'N        0.7690    9.4560   15.3690 O.3   301  NFD301     -0.2158
     34 C3'A        6.2170    1.2820   19.9590 C.3   301  NFD301      0.2158
     35 O3'A        6.1710   -0.1500   20.0610 O.3   301  NFD301     -0.2175
     36 C3'N       -0.0460    7.3810   16.3840 C.3   301  NFD301      0.2158
     37 O3'N       -1.2860    8.1080   16.4420 O.3   301  NFD301     -0.2175
     38 C4'A        5.2000    1.9220   18.9850 C.3   301  NFD301      0.1799
     39 O4'A        5.9460    2.7060   18.0460 O.3   301  NFD301     -0.3326
     40 C4'N        0.2080    7.0520   17.8440 C.3   301  NFD301      0.1799
     41 O4'N        0.9720    8.2130   18.2490 O.3   301  NFD301     -0.3327
     42 C5'A        4.1460    2.8200   19.6690 C.3   301  NFD301      0.1813
     43 O5'A        2.9220    2.7680   18.9160 O.3   301  NFD301     -0.3112
     44 C5'N        0.9930    5.7560   17.8620 C.3   301  NFD301      0.1813
     45 O5'N        1.4750    5.4560   19.1600 O.3   301  NFD301     -0.3112
@<TRIPOS>BOND
     1    24    23   am
     2    23    25    2
     3    23    14    1
     4    33    32    1
     5    32    36    1
     6    32    29    1
     7    10    14    1
     8    10     5    1
     9    36    37    1
    10    36    40    1
    11    14    16    2
    12    29     5    1
    13    29    41    1
    14     5    21    1
    15    26    22    1
    16    26    27    1
    17    16    18    1
    18    40    44    1
    19    40    41    1
    20    44    45    1
    21    39    28    1
    22    39    38    1
    23    28    27    1
    24    28    30    1
    25    22    17    2
    26     4     1    2
    27    27    15    1
    28    21    18    2
    29    43     1    1
    30    43    42    1
    31    38    42    1
    32    38    34    1
    33    31    30    1
    34    45     2    1
    35     1    12    1
    36     1     9    1
    37    12     2    1
    38    30    34    1
    39    17    15    1
    40    17    19    1
    41    15    13    2
    42    34    35    1
    43     2     6    2
    44     2    11    1
    45    20    19    1
    46    19     3    2
    47    13     7    2
    48     3     7    2
    49     7     8    1
