@<TRIPOS>MOLECULE
3i9k_NAD_B_1.pdb
 44 48 0 0 0
SMALL
GASTEIGER

@<TRIPOS>ATOM
      1  PA        20.8070   -9.0980   23.4560 P.3   301  NAD301      0.2189
      2  O1A       19.3640   -9.5250   23.4730 O.2   301  NAD301     -0.5170
      3  O2A       21.8300  -10.1600   23.5180 O.3   301  NAD301     -0.4371
      4  O5B       21.1210   -8.1160   22.1950 O.3   301  NAD301     -0.3112
      5  C5B       20.1800   -7.1930   21.7060 C.3   301  NAD301      0.1813
      6  C4B       20.3570   -7.0410   20.2030 C.3   301  NAD301      0.1821
      7  O4B       21.7070   -7.2310   19.8070 O.3   301  NAD301     -0.3135
      8  C3B       19.5130   -8.1310   19.5510 C.3   301  NAD301      0.2184
      9  O3B       18.3950   -7.5470   18.9190 O.3   301  NAD301     -0.2174
     10  C2B       20.4390   -8.8270   18.5700 C.3   301  NAD301      0.2570
     11  O2B       20.1170   -8.4460   17.2580 O.3   301  NAD301     -0.2130
     12  C1B       21.8330   -8.3000   18.8580 C.3   301  NAD301      0.3186
     13  N9A       22.6290   -9.4820   19.3060 N.pl3 301  NAD301     -0.1439
     14  C8A       22.5140  -10.1240   20.5210 C.3   301  NAD301      0.3377
     15  N7A       23.3830  -11.1630   20.5710 N.2   301  NAD301     -0.2095
     16  C5A       24.0600  -11.2170   19.3800 C.2   301  NAD301      0.2526
     17  C6A       25.0640  -12.0770   18.8860 C.2   301  NAD301      0.4393
     18  N6A       25.7720  -12.8170   19.7450 N.pl3 301  NAD301      0.2180
     19  N1A       25.5690  -11.8840   17.6010 N.2   301  NAD301      0.0021
     20  C2A       25.0920  -10.8540   16.8010 C.3   301  NAD301      0.5254
     21  N3A       24.1050  -10.0050   17.2970 N.2   301  NAD301     -0.0055
     22  C4A       23.5880  -10.1720   18.5650 C.2   301  NAD301      0.3518
     23  O3        21.0880   -8.1130   24.7450 O.3   301  NAD301     -0.2703
     24  PN        22.2110   -6.9420   24.9730 P.3   301  NAD301      0.2189
     25  O1N       22.2220   -6.7620   26.4990 O.3   301  NAD301     -0.4371
     26  O2N       23.4680   -7.3520   24.2440 O.2   301  NAD301     -0.5170
     27  O5D       21.4210   -5.6790   24.2330 O.3   301  NAD301     -0.3112
     28  C5D       20.1560   -5.2750   24.7090 C.3   301  NAD301      0.1813
     29  C4D       20.3010   -4.0720   25.6430 C.3   301  NAD301      0.1799
     30  O4D       20.9350   -2.9230   24.9950 O.3   301  NAD301     -0.3327
     31  C3D       18.8700   -3.4810   25.9090 C.3   301  NAD301      0.2158
     32  O3D       18.7770   -2.7630   27.1410 O.3   301  NAD301     -0.2175
     33  C2D       18.5770   -2.6230   24.6890 C.3   301  NAD301      0.2309
     34  O2D       17.8580   -1.5250   25.1240 O.3   301  NAD301     -0.2158
     35  C1D       19.9720   -2.2490   24.1890 C.3   301  NAD301      0.2263
     36  N1N       20.1110   -2.5760   22.7380 N.pl3 301  NAD301     -0.2787
     37  C2N       19.0770   -2.3710   21.8810 C.3   301  NAD301      0.1244
     38  C3N       19.2140   -2.6940   20.5500 C.2   301  NAD301      0.0544
     39  C7N       18.0650   -2.4430   19.6250 C.2   301  NAD301      0.2818
     40  O7N       18.2870   -2.7460   18.2870 O.2   301  NAD301     -0.2670
     41  N7N       16.9030   -2.0070   20.1010 N.am  301  NAD301     -0.0839
     42  C4N       20.3880   -3.2240   20.0370 C.2   301  NAD301      0.0033
     43  C5N       21.4460   -3.4510   20.9150 C.2   301  NAD301      0.0157
     44  C6N       21.2890   -3.1010   22.2760 C.2   301  NAD301      0.0633
@<TRIPOS>BOND
     1    20    21    1
     2    20    19    1
     3    11    10    1
     4    21    22    2
     5    19    17    2
     6    40    39    2
     7    22    13    1
     8    22    16    1
     9    10    12    1
    10    10     8    1
    11    12    13    1
    12    12     7    1
    13    17    16    1
    14    17    18    1
    15     9     8    1
    16    13    14    1
    17    16    15    2
    18     8     6    1
    19    39    41   am
    20    39    38    1
    21     7     6    1
    22    42    38    2
    23    42    43    1
    24     6     5    1
    25    14    15    1
    26    38    37    1
    27    43    44    2
    28     5     4    1
    29    37    36    1
    30     4     1    1
    31    44    36    1
    32    36    35    1
    33     1     2    2
    34     1     3    1
    35     1    23    1
    36    35    33    1
    37    35    30    1
    38    27    28    1
    39    27    24    1
    40    26    24    2
    41    33    34    1
    42    33    31    1
    43    28    29    1
    44    23    24    1
    45    24    25    1
    46    30    29    1
    47    29    31    1
    48    31    32    1
