@<TRIPOS>MOLECULE
3i9l_N1C_A_1.pdb
 35 39 0 0 0
SMALL
GASTEIGER

@<TRIPOS>ATOM
      1  O1B      -11.3060   11.8190   17.3070 O.2   301  N1C301     -0.5170
      2  PB       -12.0270   11.2460   18.5040 P.3   301  N1C301      0.2189
      3  O3A      -11.7000    9.6540   18.6090 O.3   301  N1C301     -0.2703
      4  O2B      -11.7190   11.9800   19.7950 O.3   301  N1C301     -0.4371
      5  O5D      -13.6420   11.0930   18.3400 O.3   301  N1C301     -0.3112
      6  C5D      -14.5230   12.1320   17.9720 C.3   301  N1C301      0.1813
      7  C4D      -15.9100   12.1110   18.4570 C.3   301  N1C301      0.1799
      8  C3D      -15.6470   11.6050   19.8430 C.3   301  N1C301      0.2158
      9  O3D      -16.0100   12.5910   20.7750 O.3   301  N1C301     -0.2175
     10  C2D      -16.5000   10.3960   19.8880 C.3   301  N1C301      0.2311
     11  O2D      -17.7920   10.6900   20.4250 O.3   301  N1C301     -0.2158
     12  O4D      -16.3870   11.0990   17.5960 O.3   301  N1C301     -0.3325
     13  C1D      -16.7940   10.0670   18.4650 C.3   301  N1C301      0.2314
     14  N1       -16.2290    8.7190   18.3900 N.am  301  N1C301     -0.2045
     15  C6       -16.9170    7.6660   19.1300 C.2   301  N1C301      0.2787
     16  O6       -18.2890    7.8350   19.5580 O.2   301  N1C301     -0.2678
     17  C5       -16.3080    6.3670   18.9120 C.2   301  N1C301      0.2156
     18  N7       -16.6810    5.1510   19.3860 N.2   301  N1C301     -0.2122
     19  C8       -15.6900    4.2840   19.0460 C.3   301  N1C301      0.3376
     20  C2       -15.0070    8.5210   17.8550 C.3   301  N1C301      0.3662
     21  N3       -14.4400    7.3300   17.8140 N.2   301  N1C301     -0.0394
     22  C4       -15.0600    6.2530   18.3410 C.2   301  N1C301      0.3457
     23  N9       -14.7380    4.9530   18.3820 N.pl3 301  N1C301     -0.1440
     24  C1'      -13.4640    4.4180   17.9150 C.3   301  N1C301      0.3186
     25  O4'      -12.5020    4.9940   18.8650 O.3   301  N1C301     -0.3135
     26  C2'      -13.0170    4.9180   16.5410 C.3   301  N1C301      0.2570
     27  O2'      -13.3720    4.0520   15.4660 O.3   301  N1C301     -0.2130
     28  C3'      -11.6180    4.7280   16.9480 C.3   301  N1C301      0.2184
     29  O3'      -10.9520    3.6140   16.6190 O.3   301  N1C301     -0.2174
     30  C4'      -11.5340    5.5720   17.9550 C.3   301  N1C301      0.1821
     31  C5'      -10.9900    6.9840   18.0970 C.3   301  N1C301      0.1813
     32  O5'      -11.4130    7.4110   19.4040 O.3   301  N1C301     -0.3112
     33  PA       -11.0220    8.9200   19.8820 P.3   301  N1C301      0.2189
     34  O1A       -9.5060    9.1150   19.8270 O.2   301  N1C301     -0.5170
     35  O2A      -11.7870    9.2200   21.1520 O.3   301  N1C301     -0.4371
@<TRIPOS>BOND
     1    27    26    1
     2    26    28    1
     3    26    24    1
     4    29    28    1
     5    28    30    1
     6     1     2    2
     7    12     7    1
     8    12    13    1
     9    21    20    1
    10    21    22    2
    11    20    14    1
    12    24    23    1
    13    24    25    1
    14    30    31    1
    15    30    25    1
    16     6     5    1
    17     6     7    1
    18    31    32    1
    19     5     2    1
    20    22    23    1
    21    22    17    1
    22    23    19    1
    23    14    13    1
    24    14    15   am
    25     7     8    1
    26    13    10    1
    27     2     3    1
    28     2     4    1
    29     3    33    1
    30    17    15    1
    31    17    18    2
    32    19    18    1
    33    15    16    2
    34    32    33    1
    35    34    33    2
    36     8    10    1
    37     8     9    1
    38    33    35    1
    39    10    11    1
