@<TRIPOS>MOLECULE
3i9m_AVU_A_1.pdb
 35 38 0 0 0
SMALL
GASTEIGER

@<TRIPOS>ATOM
      1  N1         1.6770   -4.3740    5.2360 N.2   301  AVU301      0.0021
      2  C2         2.9890   -4.5350    5.4710 C.3   301  AVU301      0.5254
      3  N3         3.9110   -3.7920    4.8290 N.2   301  AVU301     -0.0055
      4  C4         3.4830   -2.8060    3.9810 C.2   301  AVU301      0.3518
      5  C5         2.1350   -2.5950    3.7250 C.2   301  AVU301      0.2526
      6  C6         1.2130   -3.3880    4.4040 C.2   301  AVU301      0.4393
      7  N6        -0.1210   -3.2050    4.1920 N.pl3 301  AVU301      0.2180
      8  N7         2.0200   -1.5520    2.8480 N.2   301  AVU301     -0.2095
      9  C8         3.2760   -1.1790    2.5630 C.3   301  AVU301      0.3377
     10  N9         4.1640   -1.9710    3.2300 N.pl3 301  AVU301     -0.1439
     11  PA         7.1860    3.5900    4.7620 P.3   301  AVU301      0.2189
     12  PB         4.5470    4.7670    4.2550 P.3   301  AVU301      0.2189
     13  C1'        5.6440   -1.9390    3.2870 C.3   301  AVU301      0.3186
     14  O1A        8.2870    4.3630    4.1280 O.2   301  AVU301     -0.5170
     15  O1B        4.9790    6.2070    4.2170 O.2   301  AVU301     -0.5170
     16  C1R        2.7180    2.9180   -0.6820 C.3   301  AVU301      0.1801
     17  C2'        6.2940   -1.3480    2.0500 C.3   301  AVU301      0.2570
     18  O2'        7.4560   -2.1580    1.8180 O.3   301  AVU301     -0.2130
     19  O2A        6.9380    3.8260    6.2220 O.3   301  AVU301     -0.4371
     20  O2B        3.7430    4.2020    5.3780 O.3   301  AVU301     -0.4371
     21  C2R        2.1410    1.6000   -0.1360 C.3   301  AVU301      0.2229
     22  F2R        3.2570    0.7780   -0.0020 F     301  AVU301     -0.2317
     23  C3'        6.6970    0.0250    2.4760 C.3   301  AVU301      0.2184
     24  O3'        7.8880    0.3440    1.7520 O.3   301  AVU301     -0.2174
     25  O3A        5.8210    3.8510    3.9040 O.3   301  AVU301     -0.2703
     26  C3R        1.5780    2.0190    1.2060 C.3   301  AVU301      0.2162
     27  O3R        0.1470    2.1030    1.1780 O.3   301  AVU301     -0.2174
     28  C4'        6.8990   -0.1220    3.9940 C.3   301  AVU301      0.1821
     29  O4'        6.0170   -1.1490    4.4240 O.3   301  AVU301     -0.3135
     30  C4R        2.1470    3.3830    1.5340 C.3   301  AVU301      0.1782
     31  O4R        3.0040    3.7290    0.4580 O.3   301  AVU301     -0.3480
     32  C5'        6.5450    1.0660    4.8610 C.3   301  AVU301      0.1813
     33  O5'        7.4610    2.0850    4.4920 O.3   301  AVU301     -0.3112
     34  C5R        3.0970    3.2460    2.7300 C.3   301  AVU301      0.1812
     35  O5R        3.6650    4.5270    2.9420 O.3   301  AVU301     -0.3112
@<TRIPOS>BOND
     1    16    21    1
     2    16    31    1
     3    21    22    1
     4    21    26    1
     5    31    30    1
     6    27    26    1
     7    26    30    1
     8    30    34    1
     9    24    23    1
    10    18    17    1
    11    17    23    1
    12    17    13    1
    13    23    28    1
    14     9     8    1
    15     9    10    1
    16    34    35    1
    17     8     5    2
    18    35    12    1
    19    10    13    1
    20    10     4    1
    21    13    29    1
    22     5     4    1
    23     5     6    1
    24    25    12    1
    25    25    11    1
    26     4     3    2
    27    28    29    1
    28    28    32    1
    29    14    11    2
    30     7     6    1
    31    15    12    2
    32    12    20    1
    33     6     1    2
    34    33    11    1
    35    33    32    1
    36    11    19    1
    37     3     2    1
    38     1     2    1
