@<TRIPOS>MOLECULE
3i9n_AVW_A_1.pdb
 35 38 0 0 0
SMALL
GASTEIGER

@<TRIPOS>ATOM
      1  PA         4.4020    3.6450    6.5150 P.3   301  AVW301      0.2189
      2  PN         3.7170    4.6000    4.0000 P.3   301  AVW301      0.2189
      3  N1A       11.0260    2.4700    7.5470 N.2   301  AVW301      0.0021
      4  O1A        4.5670    4.4550    7.7730 O.3   301  AVW301     -0.4371
      5  O1N        3.4900    6.0180    3.6370 O.2   301  AVW301     -0.5170
      6  C2A        9.6870    2.4840    7.3260 C.3   301  AVW301      0.5254
      7  O2A        3.9120    2.2340    6.8010 O.2   301  AVW301     -0.5170
      8  O2N        5.0890    4.0030    3.7220 O.3   301  AVW301     -0.4371
      9  O3         3.3620    4.4890    5.5500 O.3   301  AVW301     -0.2703
     10  N3A        9.1700    2.1440    6.1110 N.2   301  AVW301     -0.0055
     11  C4A        9.9750    1.7610    5.0540 C.2   301  AVW301      0.3518
     12  C5A       11.3610    1.7420    5.2700 C.2   301  AVW301      0.2526
     13  C6A       11.8830    2.0990    6.5320 C.2   301  AVW301      0.4393
     14  N6A       13.2360    2.0770    6.7130 N.pl3 301  AVW301      0.2180
     15  N7A       11.9350    1.3500    4.1140 N.2   301  AVW301     -0.2095
     16  C8A       10.9470    1.1410    3.2040 C.3   301  AVW301      0.3377
     17  N9A        9.7360    1.3750    3.7600 N.pl3 301  AVW301     -0.1439
     18 C1'A        8.3920    1.2250    3.0560 C.3   301  AVW301      0.3186
     19 C1'N        0.8800    2.9850    0.0800 C.3   301  AVW301      0.1801
     20 C2'A        7.6690   -0.1300    3.3300 C.3   301  AVW301      0.2570
     21 O2'A        7.3400   -0.9240    2.1620 O.3   301  AVW301     -0.2130
     22 C2'N       -0.5500    3.0540    0.5260 C.3   301  AVW301      0.2229
     23 F2'N       -1.2950    3.3630   -0.5840 F     301  AVW301     -0.2317
     24 C3'A        6.3710    0.1870    4.0560 C.3   301  AVW301      0.2184
     25 O3'A        5.2550   -0.4090    3.3570 O.3   301  AVW301     -0.2174
     26 C3'N       -0.5710    4.1200    1.6110 C.3   301  AVW301      0.2162
     27 O3'N       -1.2760    5.2130    1.2080 O.3   301  AVW301     -0.2174
     28 C4'A        6.3150    1.7200    4.1060 C.3   301  AVW301      0.1821
     29 O4'A        7.4940    2.2670    3.4860 O.3   301  AVW301     -0.3135
     30 C4'N        0.8540    4.6010    1.8300 C.3   301  AVW301      0.1782
     31 O4'N        1.5990    4.0260    0.7370 O.3   301  AVW301     -0.3480
     32 C5'A        6.3320    2.2480    5.5340 C.3   301  AVW301      0.1813
     33 O5'A        5.8140    3.5810    5.6370 O.3   301  AVW301     -0.3112
     34 C5'N        1.3160    3.9520    3.1270 C.3   301  AVW301      0.1812
     35 O5'N        2.7270    3.6520    3.1430 O.3   301  AVW301     -0.3112
@<TRIPOS>BOND
     1    23    22    1
     2    19    22    1
     3    19    31    1
     4    22    26    1
     5    31    30    1
     6    27    26    1
     7    26    30    1
     8    30    34    1
     9    21    20    1
    10    18    20    1
    11    18    29    1
    12    18    17    1
    13    34    35    1
    14    35     2    1
    15    16    17    1
    16    16    15    1
    17    20    24    1
    18    25    24    1
    19    29    28    1
    20     5     2    2
    21     8     2    1
    22    17    11    1
    23     2     9    1
    24    24    28    1
    25    28    32    1
    26    15    12    2
    27    11    12    1
    28    11    10    2
    29    12    13    1
    30    32    33    1
    31     9     1    1
    32    33     1    1
    33    10     6    1
    34     1     7    2
    35     1     4    1
    36    13    14    1
    37    13     3    2
    38     6     3    1
