@<TRIPOS>MOLECULE
3i9o_AVW_A_1.pdb
 35 38 0 0 0
SMALL
GASTEIGER

@<TRIPOS>ATOM
      1  PA        -1.3610   -2.4330   19.2950 P.3   301  AVW301      0.2189
      2  PN        -0.5060   -5.0920   20.0750 P.3   301  AVW301      0.2189
      3  N1A       -7.3590   -1.9170   12.8090 N.2   301  AVW301      0.0021
      4  O1A       -1.2670   -1.7190   20.6010 O.3   301  AVW301     -0.4371
      5  O1N        0.9540   -5.5350   20.0750 O.2   301  AVW301     -0.5170
      6  C2A       -7.7460   -2.9640   13.5640 C.3   301  AVW301      0.5254
      7  O2A       -1.1910   -1.7820   17.9430 O.2   301  AVW301     -0.5170
      8  O2N       -1.3390   -4.9160   21.3430 O.3   301  AVW301     -0.4371
      9  O3        -0.3150   -3.6500   19.3350 O.3   301  AVW301     -0.2703
     10  N3A       -7.2590   -3.1390   14.8090 N.2   301  AVW301     -0.0055
     11  C4A       -6.3520   -2.2450   15.3250 C.2   301  AVW301      0.3518
     12  C5A       -5.9410   -1.1580   14.5740 C.2   301  AVW301      0.2526
     13  C6A       -6.4700   -1.0060   13.2920 C.2   301  AVW301      0.4393
     14  N6A       -6.0860    0.0410   12.5290 N.pl3 301  AVW301      0.2180
     15  N7A       -5.0530   -0.4530   15.3230 N.2   301  AVW301     -0.2095
     16  C8A       -4.9150   -1.0780   16.5150 C.3   301  AVW301      0.3377
     17  N9A       -5.7080   -2.1640   16.5010 N.pl3 301  AVW301     -0.1439
     18 C1'A       -5.8840   -3.1660   17.5910 C.3   301  AVW301      0.3186
     19 C1'N       -1.6760   -9.2480   16.8370 C.3   301  AVW301      0.1801
     20 C2'A       -5.0020   -4.3990   17.3270 C.3   301  AVW301      0.2570
     21 O2'A       -5.7460   -5.4350   16.6310 O.3   301  AVW301     -0.2130
     22 C2'N       -0.7370   -8.8740   15.6960 C.3   301  AVW301      0.2229
     23 F2'N       -0.1080   -9.9890   15.1630 F     301  AVW301     -0.2317
     24 C3'A       -4.4900   -4.8320   18.7020 C.3   301  AVW301      0.2184
     25 O3'A       -4.8950   -6.1890   19.0130 O.3   301  AVW301     -0.2174
     26 C3'N        0.2350   -7.8410   16.2830 C.3   301  AVW301      0.2162
     27 O3'N        1.6120   -8.2990   16.3120 O.3   301  AVW301     -0.2174
     28 C4'A       -4.9340   -3.7350   19.6890 C.3   301  AVW301      0.1821
     29 O4'A       -5.5240   -2.6740   18.8980 O.3   301  AVW301     -0.3135
     30 C4'N       -0.2500   -7.5980   17.7200 C.3   301  AVW301      0.1782
     31 O4'N       -1.1790   -8.6280   18.0260 O.3   301  AVW301     -0.3480
     32 C5'A       -3.6970   -3.1570   20.3520 C.3   301  AVW301      0.1813
     33 O5'A       -2.7630   -3.2170   19.2790 O.3   301  AVW301     -0.3112
     34 C5'N       -0.9940   -6.2840   17.8160 C.3   301  AVW301      0.1812
     35 O5'N       -1.3820   -6.0530   19.1400 O.3   301  AVW301     -0.3112
@<TRIPOS>BOND
     1    14    13    1
     2     3    13    2
     3     3     6    1
     4    13    12    1
     5     6    10    1
     6    12    15    2
     7    12    11    1
     8    10    11    2
     9    23    22    1
    10    15    16    1
    11    11    17    1
    12    22    26    1
    13    22    19    1
    14    26    27    1
    15    26    30    1
    16    17    16    1
    17    17    18    1
    18    21    20    1
    19    19    31    1
    20    20    18    1
    21    20    24    1
    22    18    29    1
    23    30    34    1
    24    30    31    1
    25    34    35    1
    26     7     1    2
    27    24    25    1
    28    24    28    1
    29    29    28    1
    30    35     2    1
    31    33     1    1
    32    33    32    1
    33     1     9    1
    34     1     4    1
    35     9     2    1
    36    28    32    1
    37     5     2    2
    38     2     8    1
