@<TRIPOS>MOLECULE
3i9t_HEM_A_1.pdb
 43 50 0 0 0
SMALL
GASTEIGER

@<TRIPOS>ATOM
      1  CHA       -3.8500  -25.5370 -168.3920 C.2   300  HEM300      0.0000
      2  CHB       -1.2110  -27.3830 -172.0340 C.2   300  HEM300      0.0000
      3  CHC        0.2560  -31.1240 -169.2290 C.2   300  HEM300      0.0000
      4  CHD       -3.0090  -29.6910 -165.9530 C.2   300  HEM300      0.0000
      5  C1A       -3.1820  -25.6910 -169.5880 C.ar  300  HEM300      0.0000
      6  C2A       -3.1970  -24.7290 -170.6760 C.ar  300  HEM300      0.0000
      7  C3A       -2.4990  -25.2360 -171.6820 C.ar  300  HEM300      0.0000
      8  C4A       -1.9800  -26.5280 -171.2580 C.ar  300  HEM300      0.0000
      9  CMA       -2.2100  -24.5060 -173.0260 C.3   300  HEM300      0.0000
     10  CAA       -3.9090  -23.3450 -170.6220 C.3   300  HEM300      0.0000
     11  CBA       -2.9600  -22.3730 -169.9070 C.3   300  HEM300      0.0000
     12  CGA       -3.5180  -20.9630 -169.9250 C.2   300  HEM300      0.0000
     13  O1A       -4.2130  -20.5620 -170.9220 O.co2 300  HEM300      0.0000
     14  O2A       -3.2450  -20.2260 -168.9440 O.co2 300  HEM300      0.0000
     15  C1B       -0.6230  -28.5750 -171.6400 C.2   300  HEM300      0.0000
     16  C2B        0.1700  -29.4880 -172.4780 C.2   300  HEM300      0.0000
     17  C3B        0.5980  -30.4780 -171.6690 C.2   300  HEM300      0.0000
     18  C4B        0.0530  -30.2850 -170.3210 C.2   300  HEM300      0.0000
     19  CMB        0.4950  -29.2810 -173.9850 C.3   300  HEM300      0.0000
     20  CAB        1.4460  -31.6970 -172.0290 C.2   300  HEM300      0.0000
     21  CBB        2.5720  -31.4750 -172.6940 C.2   300  HEM300      0.0000
     22  C1C       -0.5060  -31.1180 -168.0970 C.ar  300  HEM300      0.0000
     23  C2C       -0.4890  -32.0870 -167.0130 C.ar  300  HEM300      0.0000
     24  C3C       -1.4450  -31.6610 -166.1230 C.ar  300  HEM300      0.0000
     25  C4C       -2.0230  -30.4110 -166.5800 C.ar  300  HEM300      0.0000
     26  CMC        0.3880  -33.3740 -166.8480 C.3   300  HEM300      0.0000
     27  CAC       -1.7650  -32.3320 -164.7450 C.2   300  HEM300      0.0000
     28  CBC       -2.3400  -33.5110 -164.5840 C.2   300  HEM300      0.0000
     29  C1D       -3.5090  -28.4500 -166.2570 C.2   300  HEM300      0.0000
     30  C2D       -4.4070  -27.6730 -165.4030 C.2   300  HEM300      0.0000
     31  C3D       -4.6720  -26.3930 -166.1370 C.2   300  HEM300      0.0000
     32  C4D       -3.9100  -26.4950 -167.3790 C.2   300  HEM300      0.0000
     33  CMD       -4.9510  -28.0820 -164.0330 C.3   300  HEM300      0.0000
     34  CAD       -5.5920  -25.2310 -165.6940 C.3   300  HEM300      0.0000
     35  CBD       -4.7020  -24.0790 -165.2130 C.3   300  HEM300      0.0000
     36  CGD       -5.6580  -23.0190 -164.7080 C.2   300  HEM300      0.0000
     37  O1D       -5.7130  -22.7520 -163.4760 O.co2 300  HEM300      0.0000
     38  O2D       -6.4260  -22.4830 -165.5460 O.co2 300  HEM300      0.0000
     39  NA        -2.4320  -26.7810 -169.9720 N.ar  300  HEM300      0.0000
     40  NB        -0.6380  -29.0850 -170.3510 N.2   300  HEM300      0.0000
     41  NC        -1.4620  -30.1180 -167.7920 N.ar  300  HEM300      0.0000
     42  ND        -3.2110  -27.6870 -167.3780 N.2   300  HEM300      0.0000
     43 FE         -1.9460  -28.4000 -168.8170 Fe    300  HEM300      0.0000
@<TRIPOS>BOND
     1    19    16    1
     2     9     7    1
     3    21    20    2
     4    16    17    2
     5    16    15    1
     6     2    15    1
     7     2     8    2
     8    20    17    1
     9     7     8   ar
    10     7     6   ar
    11    17    18    1
    12    15    40    2
    13     8    39   ar
    14    13    12   ar
    15     6    10    1
    16     6     5   ar
    17    10    11    1
    18    40    18    1
    19    40    43    1
    20    18     3    2
    21    39     5   ar
    22    39    43    1
    23    12    11    1
    24    12    14   ar
    25     5     1    2
    26     3    22    1
    27    43    41    1
    28    43    42    1
    29     1    32    1
    30    22    41   ar
    31    22    23   ar
    32    41    25   ar
    33    32    42    2
    34    32    31    1
    35    42    29    1
    36    23    26    1
    37    23    24   ar
    38    25    24   ar
    39    25     4    1
    40    29     4    2
    41    29    30    1
    42    31    34    1
    43    31    30    2
    44    24    27    1
    45    34    35    1
    46    38    36   ar
    47    30    33    1
    48    35    36    1
    49    27    28    2
    50    36    37   ar
