@<TRIPOS>MOLECULE
3i9u_HEM_A_1.pdb
 43 50 0 0 0
SMALL
GASTEIGER

@<TRIPOS>ATOM
      1  CHA       -3.7860  -25.7570 -167.8660 C.2   300  HEM300      0.0000
      2  CHB       -1.0590  -27.5580 -171.4750 C.2   300  HEM300      0.0000
      3  CHC        0.2800  -31.3060 -168.6690 C.2   300  HEM300      0.0000
      4  CHD       -3.0050  -29.8300 -165.4160 C.2   300  HEM300      0.0000
      5  C1A       -3.1610  -25.9270 -169.0860 C.ar  300  HEM300      0.0000
      6  C2A       -3.2850  -25.0700 -170.2570 C.ar  300  HEM300      0.0000
      7  C3A       -2.5140  -25.5480 -171.2250 C.ar  300  HEM300      0.0000
      8  C4A       -1.8840  -26.7390 -170.7210 C.ar  300  HEM300      0.0000
      9  CMA       -2.3220  -24.9730 -172.6690 C.3   300  HEM300      0.0000
     10  CAA       -4.1120  -23.7580 -170.3300 C.3   300  HEM300      0.0000
     11  CBA       -3.1450  -22.7520 -169.7010 C.3   300  HEM300      0.0000
     12  CGA       -3.6510  -21.3170 -169.6720 C.2   300  HEM300      0.0000
     13  O1A       -4.1620  -20.8080 -170.7160 O.co2 300  HEM300      0.0000
     14  O2A       -3.5080  -20.6560 -168.6020 O.co2 300  HEM300      0.0000
     15  C1B       -0.5070  -28.7770 -171.0790 C.2   300  HEM300      0.0000
     16  C2B        0.2920  -29.6960 -171.9200 C.2   300  HEM300      0.0000
     17  C3B        0.6380  -30.7110 -171.1010 C.2   300  HEM300      0.0000
     18  C4B        0.1040  -30.4690 -169.7570 C.2   300  HEM300      0.0000
     19  CMB        0.6100  -29.5130 -173.4460 C.3   300  HEM300      0.0000
     20  CAB        1.4610  -31.9740 -171.3960 C.2   300  HEM300      0.0000
     21  CBB        2.5970  -31.8540 -172.0710 C.2   300  HEM300      0.0000
     22  C1C       -0.4720  -31.2620 -167.5390 C.ar  300  HEM300      0.0000
     23  C2C       -0.5090  -32.2200 -166.4410 C.ar  300  HEM300      0.0000
     24  C3C       -1.4540  -31.7480 -165.6010 C.ar  300  HEM300      0.0000
     25  C4C       -2.0200  -30.5300 -166.0890 C.ar  300  HEM300      0.0000
     26  CMC        0.3400  -33.5080 -166.2660 C.3   300  HEM300      0.0000
     27  CAC       -1.9090  -32.2970 -164.2380 C.2   300  HEM300      0.0000
     28  CBC       -1.8720  -33.5860 -164.0090 C.2   300  HEM300      0.0000
     29  C1D       -3.5190  -28.5970 -165.6820 C.2   300  HEM300      0.0000
     30  C2D       -4.4400  -27.8230 -164.8440 C.2   300  HEM300      0.0000
     31  C3D       -4.6440  -26.5520 -165.6300 C.2   300  HEM300      0.0000
     32  C4D       -3.8630  -26.6830 -166.8430 C.2   300  HEM300      0.0000
     33  CMD       -5.0670  -28.1970 -163.4970 C.3   300  HEM300      0.0000
     34  CAD       -5.5400  -25.3640 -165.2800 C.3   300  HEM300      0.0000
     35  CBD       -4.6510  -24.2420 -164.7600 C.3   300  HEM300      0.0000
     36  CGD       -5.6620  -23.1980 -164.3180 C.2   300  HEM300      0.0000
     37  O1D       -5.8020  -22.9720 -163.0910 O.co2 300  HEM300      0.0000
     38  O2D       -6.3500  -22.6160 -165.1990 O.co2 300  HEM300      0.0000
     39  NA        -2.2990  -26.9270 -169.3980 N.ar  300  HEM300      0.0000
     40  NB        -0.5880  -29.2890 -169.7850 N.2   300  HEM300      0.0000
     41  NC        -1.4000  -30.2630 -167.2970 N.ar  300  HEM300      0.0000
     42  ND        -3.2060  -27.8800 -166.8090 N.2   300  HEM300      0.0000
     43 FE         -1.8850  -28.5850 -168.2830 Fe    300  HEM300      0.0000
@<TRIPOS>BOND
     1    19    16    1
     2     9     7    1
     3    21    20    2
     4    16    17    2
     5    16    15    1
     6     2    15    1
     7     2     8    2
     8    20    17    1
     9     7     8   ar
    10     7     6   ar
    11    17    18    1
    12    15    40    2
    13     8    39   ar
    14    13    12   ar
    15    10     6    1
    16    10    11    1
    17     6     5   ar
    18    40    18    1
    19    40    43    1
    20    18     3    2
    21    11    12    1
    22    12    14   ar
    23    39     5   ar
    24    39    43    1
    25     5     1    2
    26     3    22    1
    27    43    41    1
    28    43    42    1
    29     1    32    1
    30    22    41   ar
    31    22    23   ar
    32    41    25   ar
    33    32    42    2
    34    32    31    1
    35    42    29    1
    36    23    26    1
    37    23    24   ar
    38    25    24   ar
    39    25     4    1
    40    29     4    2
    41    29    30    1
    42    31    34    1
    43    31    30    2
    44    24    27    1
    45    34    35    1
    46    38    36   ar
    47    30    33    1
    48    35    36    1
    49    36    37   ar
    50    27    28    2
