@<TRIPOS>MOLECULE
3i9v_FMN_1_1.pdb
 31 33 0 0 0
SMALL
GASTEIGER

@<TRIPOS>ATOM
      1  N1       -23.5330    7.1400   36.5860 N.2   440  FMN440     -0.2887
      2  C2       -24.7650    7.6760   36.6960 C.1   440  FMN440      0.3669
      3  O2       -25.3930    7.4530   37.7110 O.2   440  FMN440     -0.1744
      4  N3       -25.2790    8.4330   35.6830 N.2   440  FMN440     -0.2300
      5  C4       -24.5400    8.6730   34.5550 C.1   440  FMN440      0.2513
      6  O4       -24.9950    9.3660   33.6550 O.2   440  FMN440     -0.2057
      7  C4A      -23.2850    8.1270   34.4320 C.2   440  FMN440      0.2703
      8  N5       -22.5130    8.3410   33.3080 N.2   440  FMN440     -0.3882
      9  C5A      -21.2620    7.7790   33.2320 C.2   440  FMN440      0.1277
     10  C6       -20.4840    7.9890   32.1120 C.3   440  FMN440      0.0820
     11  C7       -19.2290    7.4090   32.0700 C.2   440  FMN440     -0.0408
     12  C7M      -18.3740    7.6270   30.8670 C.3   440  FMN440      0.0265
     13  C8       -18.7630    6.6350   33.1270 C.2   440  FMN440     -0.0280
     14  C8M      -17.4170    5.9940   33.1120 C.3   440  FMN440      0.0304
     15  C9       -19.5470    6.4310   34.2420 C.2   440  FMN440      0.0123
     16  C9A      -20.7910    7.0160   34.2800 C.2   440  FMN440      0.0793
     17  N10      -21.5570    6.8200   35.3770 N.pl3 440  FMN440     -0.2545
     18  C10      -22.7970    7.3590   35.4610 C.2   440  FMN440      0.2449
     19  C1'      -21.0540    5.9740   36.4690 C.3   440  FMN440      0.1336
     20  C2'      -20.7140    6.8380   37.6470 C.3   440  FMN440      0.2048
     21  O2'      -19.3170    6.7680   37.8700 O.3   440  FMN440     -0.2185
     22  C3'      -21.5920    6.4250   38.8280 C.3   440  FMN440      0.2165
     23  O3'      -22.8280    7.0710   38.6000 O.3   440  FMN440     -0.2175
     24  C4'      -20.9610    6.7640   40.1980 C.3   440  FMN440      0.2147
     25  O4'      -20.1030    5.6640   40.4120 O.3   440  FMN440     -0.2176
     26  C5'      -21.9120    6.7350   41.4070 C.3   440  FMN440      0.1892
     27  O5'      -21.4660    5.7850   42.3770 O.3   440  FMN440     -0.2674
     28  P        -22.1800    4.3740   42.7660 P.3   440  FMN440      0.5327
     29  O1P      -22.0940    3.4150   41.5890 O.2   440  FMN440     -0.2224
     30  O2P      -21.5020    3.7580   43.9610 O.3   440  FMN440     -0.1145
     31  O3P      -23.6170    4.5930   43.1270 O.3   440  FMN440     -0.1145
@<TRIPOS>BOND
     1    12    11    1
     2    11    10    1
     3    11    13    2
     4    10     9    1
     5    14    13    1
     6    13    15    1
     7     9     8    2
     8     9    16    1
     9     8     7    2
    10     6     5    2
    11    15    16    2
    12    16    17    1
    13     7     5    1
    14     7    18    1
    15     5     4    2
    16    17    18    1
    17    17    19    1
    18    18     1    2
    19     4     2    2
    20    19    20    1
    21     1     2    2
    22     2     3    2
    23    20    21    1
    24    20    22    1
    25    23    22    1
    26    22    24    1
    27    24    25    1
    28    24    26    1
    29    26    27    1
    30    29    28    2
    31    27    28    1
    32    28    31    1
    33    28    30    1
