@<TRIPOS>MOLECULE
3ia3_HEM_B_1.pdb
 43 50 0 0 0
SMALL
GASTEIGER

@<TRIPOS>ATOM
      1  CHA       21.4090  -10.5660   34.0510 C.2   201  HEM201      0.0000
      2  CHB       19.2410   -9.1370   38.0550 C.2   201  HEM201      0.0000
      3  CHC       23.4100   -9.6410   40.4200 C.2   201  HEM201      0.0000
      4  CHD       25.5600  -11.0560   36.3660 C.2   201  HEM201      0.0000
      5  C1A       20.4570  -10.1340   34.9060 C.2   201  HEM201      0.0000
      6  C2A       19.0510   -9.8800   34.5710 C.2   201  HEM201      0.0000
      7  C3A       18.4470   -9.4620   35.7040 C.2   201  HEM201      0.0000
      8  C4A       19.4690   -9.4730   36.7390 C.2   201  HEM201      0.0000
      9  CMA       17.0140   -9.0730   35.9060 C.3   201  HEM201      0.0000
     10  CAA       18.4360  -10.0770   33.2260 C.3   201  HEM201      0.0000
     11  CBA       18.0480  -11.5660   33.1930 C.3   201  HEM201      0.0000
     12  CGA       17.4010  -12.1500   31.9640 C.2   201  HEM201      0.0000
     13  O1A       16.2700  -12.6830   32.1070 O.co2 201  HEM201      0.0000
     14  O2A       18.0470  -12.1030   30.8690 O.co2 201  HEM201      0.0000
     15  C1B       20.1550   -9.1580   39.0570 C.ar  201  HEM201      0.0000
     16  C2B       19.8730   -8.8330   40.4470 C.ar  201  HEM201      0.0000
     17  C3B       21.0480   -8.9830   41.1000 C.ar  201  HEM201      0.0000
     18  C4B       22.0500   -9.3880   40.1320 C.ar  201  HEM201      0.0000
     19  CMB       18.5400   -8.4240   41.0130 C.3   201  HEM201      0.0000
     20  CAB       21.3470   -8.7910   42.5310 C.2   201  HEM201      0.0000
     21  CBB       21.0460   -7.7550   43.2900 C.2   201  HEM201      0.0000
     22  C1C       24.4160  -10.0610   39.5500 C.2   201  HEM201      0.0000
     23  C2C       25.8430  -10.2870   39.8840 C.2   201  HEM201      0.0000
     24  C3C       26.4340  -10.6940   38.7180 C.2   201  HEM201      0.0000
     25  C4C       25.3820  -10.7070   37.6920 C.2   201  HEM201      0.0000
     26  CMC       26.4650  -10.0960   41.2490 C.3   201  HEM201      0.0000
     27  CAC       27.8450  -11.0590   38.4460 C.2   201  HEM201      0.0000
     28  CBC       28.5920  -11.9460   39.0840 C.2   201  HEM201      0.0000
     29  C1D       24.6160  -11.0660   35.3520 C.ar  201  HEM201      0.0000
     30  C2D       24.8900  -11.4050   33.9790 C.ar  201  HEM201      0.0000
     31  C3D       23.7030  -11.2350   33.3200 C.ar  201  HEM201      0.0000
     32  C4D       22.7190  -10.8370   34.3020 C.ar  201  HEM201      0.0000
     33  CMD       26.2280  -11.8180   33.4140 C.3   201  HEM201      0.0000
     34  CAD       23.4630  -11.3900   31.8680 C.3   201  HEM201      0.0000
     35  CBD       23.6000   -9.8960   31.3910 C.3   201  HEM201      0.0000
     36  CGD       23.3980   -9.7080   29.9300 C.2   201  HEM201      0.0000
     37  O1D       22.2720   -9.9750   29.4370 O.co2 201  HEM201      0.0000
     38  O2D       24.3870   -9.2490   29.2880 O.co2 201  HEM201      0.0000
     39  NA        20.6700   -9.8860   36.2140 N.2   201  HEM201      0.0000
     40  NB        21.4820   -9.5050   38.9040 N.ar  201  HEM201      0.0000
     41  NC        24.2140  -10.3160   38.2270 N.2   201  HEM201      0.0000
     42  ND        23.2990  -10.7270   35.4870 N.ar  201  HEM201      0.0000
     43 FE         22.4530  -10.1230   37.1710 Fe    201  HEM201      0.0000
@<TRIPOS>BOND
     1    38    36   ar
     2    37    36   ar
     3    36    35    1
     4    14    12   ar
     5    35    34    1
     6    34    31    1
     7    12    13   ar
     8    12    11    1
     9    11    10    1
    10    10     6    1
    11    31    30   ar
    12    31    32   ar
    13    33    30    1
    14    30    29   ar
    15     1    32    2
    16     1     5    1
    17    32    42   ar
    18     6     5    1
    19     6     7    2
    20     5    39    2
    21    29    42   ar
    22    29     4    2
    23    42    43    1
    24     7     9    1
    25     7     8    1
    26    39     8    1
    27    39    43    1
    28     4    25    1
    29     8     2    2
    30    43    41    1
    31    43    40    1
    32    25    41    2
    33    25    24    1
    34     2    15    1
    35    41    22    1
    36    27    24    1
    37    27    28    2
    38    24    23    2
    39    40    15   ar
    40    40    18   ar
    41    15    16   ar
    42    22    23    1
    43    22     3    2
    44    23    26    1
    45    18     3    1
    46    18    17   ar
    47    16    19    1
    48    16    17   ar
    49    17    20    1
    50    20    21    2
