@<TRIPOS>MOLECULE
3ia4_MTX_A_1.pdb
 33 35 0 0 0
SMALL
GASTEIGER

@<TRIPOS>ATOM
      1  N1        46.1280    2.1970  -18.4130 N.2   164  MTX164     -0.2684
      2  C2        46.9270    1.1100  -18.4630 C.1   164  MTX164      0.2519
      3  NA2       48.0850    1.1640  -17.7780 N.pl3 164  MTX164     -0.0226
      4  N3        46.5730    0.0110  -19.1930 N.2   164  MTX164     -0.3033
      5  C4        45.4050   -0.0170  -19.9040 C.2   164  MTX164      0.2728
      6  NA4       45.0940   -1.1100  -20.5580 N.pl3 164  MTX164     -0.0887
      7  C4A       44.6100    1.0860  -19.8890 C.2   164  MTX164      0.2518
      8  N5        43.4560    1.0890  -20.6380 N.2   164  MTX164     -0.3917
      9  C6        42.6520    2.2000  -20.6060 C.2   164  MTX164      0.1330
     10  C7        42.9730    3.3450  -19.8790 C.3   164  MTX164      0.1930
     11  N8        44.1650    3.3480  -19.1410 N.2   164  MTX164     -0.1998
     12  C8A       44.9590    2.2060  -19.1560 C.1   164  MTX164      0.1314
     13  C9        41.3680    2.1400  -21.4250 C.3   164  MTX164      0.1481
     14  N10       40.7140    3.4400  -21.5740 N.pl3 164  MTX164     -0.2999
     15  CM        39.3930    3.5950  -20.9180 C.3   164  MTX164      0.1125
     16  C11       42.4000    6.5420  -23.8590 C.ar  164  MTX164      0.0551
     17  C12       41.1910    6.7370  -23.2040 C.ar  164  MTX164      0.0058
     18  C13       40.6230    5.7200  -22.4640 C.ar  164  MTX164      0.0147
     19  C14       41.2880    4.4990  -22.3480 C.ar  164  MTX164      0.0482
     20  C15       42.5110    4.3420  -22.9960 C.ar  164  MTX164      0.0147
     21  C16       43.0430    5.3040  -23.8110 C.ar  164  MTX164      0.0058
     22  C         43.0810    7.6030  -24.6110 C.2   164  MTX164      0.2652
     23  O         42.3760    8.6530  -25.1780 O.2   164  MTX164     -0.2684
     24  N         44.4080    7.5150  -24.6660 N.am  164  MTX164     -0.1918
     25  CA        45.2400    8.3640  -25.4700 C.3   164  MTX164      0.1986
     26  CT        46.1670    7.5060  -26.3020 C.2   164  MTX164      0.3842
     27  O1        46.5260    6.3740  -25.8580 O.co2 164  MTX164     -0.2437
     28  O2        46.5900    7.9460  -27.4000 O.co2 164  MTX164     -0.2437
     29  CB        46.1210    9.2860  -24.6170 C.3   164  MTX164      0.0451
     30  CG        45.2790   10.2370  -23.7680 C.3   164  MTX164      0.1164
     31  CD        44.5000   11.2830  -24.5720 C.2   164  MTX164      0.3649
     32  OE1       43.7890   12.1550  -23.9920 O.co2 164  MTX164     -0.2457
     33  OE2       44.5390   11.3080  -25.8200 O.co2 164  MTX164     -0.2457
@<TRIPOS>BOND
     1    28    26   ar
     2    26    27   ar
     3    26    25    1
     4    33    31   ar
     5    25    24    1
     6    25    29    1
     7    23    22    2
     8    24    22   am
     9    29    30    1
    10    22    16    1
    11    31    32   ar
    12    31    30    1
    13    16    21   ar
    14    16    17   ar
    15    21    20   ar
    16    17    18   ar
    17    20    19   ar
    18    18    19   ar
    19    19    14    1
    20    14    13    1
    21    14    15    1
    22    13     9    1
    23     8     9    2
    24     8     7    2
    25     9    10    1
    26     6     5    1
    27     5     7    1
    28     5     4    2
    29     7    12    1
    30    10    11    1
    31     4     2    2
    32    12    11    2
    33    12     1    2
    34     2     1    2
    35     2     3    1
