@<TRIPOS>MOLECULE
3ia4_NDP_A_1.pdb
 48 52 0 0 0
SMALL
GASTEIGER

@<TRIPOS>ATOM
      1  PA        35.8620   -6.5930  -22.0050 P.3   163  NDP163      0.2189
      2  O1A       36.8300   -7.7160  -21.7370 O.3   163  NDP163     -0.4371
      3  O2A       36.3400   -5.2250  -22.3820 O.2   163  NDP163     -0.5170
      4  O5B       34.7390   -7.0070  -23.1200 O.3   163  NDP163     -0.3112
      5  C5B       34.1010   -8.2970  -23.0070 C.3   163  NDP163      0.1813
      6  C4B       33.3150   -8.4780  -24.3000 C.3   163  NDP163      0.1820
      7  O4B       34.2620   -8.8940  -25.2940 O.3   163  NDP163     -0.3136
      8  C3B       32.3830   -9.7120  -24.2160 C.3   163  NDP163      0.2157
      9  O3B       31.1520   -9.3530  -23.5970 O.3   163  NDP163     -0.2175
     10  C2B       32.2600  -10.1660  -25.6610 C.3   163  NDP163      0.2314
     11  O2B       31.5580   -9.2020  -26.4530 O.3   163  NDP163     -0.2630
     12  C1B       33.7050   -9.9870  -26.0810 C.3   163  NDP163      0.3158
     13  N9A       34.5290  -11.2040  -25.9200 N.pl3 163  NDP163     -0.1439
     14  C8A       35.1590  -11.5800  -24.7960 C.3   163  NDP163      0.3377
     15  N7A       35.9050  -12.6840  -25.0070 N.2   163  NDP163     -0.2095
     16  C5A       35.7580  -13.0110  -26.3210 C.2   163  NDP163      0.2526
     17  C6A       36.2830  -14.0300  -27.2410 C.2   163  NDP163      0.4393
     18  N6A       37.1220  -15.0350  -26.8280 N.pl3 163  NDP163      0.2180
     19  N1A       35.8490  -13.9320  -28.5440 N.2   163  NDP163      0.0021
     20  C2A       35.0520  -12.9850  -29.0270 C.3   163  NDP163      0.5254
     21  N3A       34.5490  -12.0380  -28.2390 N.2   163  NDP163     -0.0055
     22  C4A       34.8780  -12.0160  -26.9050 C.2   163  NDP163      0.3518
     23  O3        34.8250   -6.4330  -20.7730 O.3   163  NDP163     -0.2703
     24  PN        34.9080   -6.3870  -19.1670 P.3   163  NDP163      0.2189
     25  O1N       35.4900   -7.6640  -18.6840 O.2   163  NDP163     -0.5170
     26  O2N       33.5770   -5.9580  -18.6650 O.3   163  NDP163     -0.4371
     27  O5D       36.0210   -5.2940  -18.8870 O.3   163  NDP163     -0.3112
     28  C5D       35.6820   -3.9240  -19.0480 C.3   163  NDP163      0.1813
     29  C4D       36.0460   -3.1580  -17.7810 C.3   163  NDP163      0.1799
     30  O4D       37.5140   -3.0780  -17.6500 O.3   163  NDP163     -0.3327
     31  C3D       35.5540   -1.7030  -17.7620 C.3   163  NDP163      0.2158
     32  O3D       35.1860   -1.3580  -16.4130 O.3   163  NDP163     -0.2175
     33  C2D       36.7910   -0.8860  -18.1380 C.3   163  NDP163      0.2309
     34  O2D       36.7730    0.4780  -17.6480 O.3   163  NDP163     -0.2158
     35  C1D       37.8590   -1.6930  -17.4520 C.3   163  NDP163      0.2263
     36  N1N       39.2030   -1.5590  -18.0040 N.pl3 163  NDP163     -0.2787
     37  C2N       40.1840   -1.2120  -17.1690 C.3   163  NDP163      0.1244
     38  C3N       41.4810   -1.1860  -17.6160 C.2   163  NDP163      0.0544
     39  C7N       42.5510   -0.7760  -16.6530 C.2   163  NDP163      0.2818
     40  O7N       43.7070   -0.8930  -17.0030 O.2   163  NDP163     -0.2670
     41  N7N       42.2740   -0.4060  -15.3990 N.am  163  NDP163     -0.0839
     42  C4N       41.9140   -1.4990  -19.0400 C.2   163  NDP163      0.0033
     43  C5N       40.7480   -1.9240  -19.7950 C.2   163  NDP163      0.0157
     44  C6N       39.4720   -1.8930  -19.2860 C.2   163  NDP163      0.0633
     45  P2B       30.2520   -9.6330  -27.3160 P.3   163  NDP163      0.5328
     46  O1X       30.0740   -8.4810  -28.2050 O.2   163  NDP163     -0.2224
     47  O2X       30.6290  -10.9490  -27.9060 O.3   163  NDP163     -0.1145
     48  O3X       29.1750   -9.8730  -26.2940 O.3   163  NDP163     -0.1145
@<TRIPOS>BOND
     1    20    19    1
     2    20    21    1
     3    19    17    2
     4    21    22    2
     5    46    45    2
     6    47    45    1
     7    45    11    1
     8    45    48    1
     9    17    18    1
    10    17    16    1
    11    22    16    1
    12    22    13    1
    13    11    10    1
    14    16    15    2
    15    12    13    1
    16    12    10    1
    17    12     7    1
    18    13    14    1
    19    10     8    1
    20     7     6    1
    21    15    14    1
    22     6     8    1
    23     6     5    1
    24     8     9    1
    25     4     5    1
    26     4     1    1
    27     3     1    2
    28     1     2    1
    29     1    23    1
    30    23    24    1
    31    43    44    2
    32    43    42    1
    33    44    36    1
    34    24    27    1
    35    24    25    2
    36    24    26    1
    37    28    27    1
    38    28    29    1
    39    42    38    2
    40    33    31    1
    41    33    34    1
    42    33    35    1
    43    36    35    1
    44    36    37    1
    45    29    31    1
    46    29    30    1
    47    31    32    1
    48    30    35    1
    49    38    37    1
    50    38    39    1
    51    40    39    2
    52    39    41   am
