@<TRIPOS>MOLECULE
3ia6_UNT_A_1.pdb
 31 34 0 0 0
SMALL
GASTEIGER

@<TRIPOS>ATOM
      1  O1        20.1120   63.1870   20.2090 O.co2   1  UNT1       -0.2434
      2  C2        18.9330   63.4150   19.8110 C.2     1  UNT1        0.3888
      3  O3        17.8920   63.5780   20.5050 O.co2   1  UNT1       -0.2434
      4  C4        18.7030   63.5170   18.3010 C.3     1  UNT1        0.2319
      5  N5        19.8650   64.1860   17.7290 N.ar    1  UNT1       -0.1608
      6  N6        19.8420   65.5210   17.5970 N.ar    1  UNT1       -0.1486
      7  C7        21.0370   65.7440   17.0510 C.ar    1  UNT1        0.1442
      8  C8        21.7190   64.5160   16.8840 C.ar    1  UNT1        0.1442
      9  N9        20.9550   63.5160   17.3230 N.ar    1  UNT1       -0.1486
     10  C10       18.6030   62.0530   17.8940 C.3     1  UNT1        0.0642
     11  C11       18.2670   61.9260   16.4370 C.ar    1  UNT1       -0.0196
     12  C12       16.9700   62.0320   15.9730 C.ar    1  UNT1       -0.0045
     13  C13       16.6920   61.9110   14.6290 C.ar    1  UNT1       -0.0046
     14  C14       17.7190   61.6840   13.7330 C.ar    1  UNT1       -0.0222
     15  C15       19.0100   61.5750   14.1940 C.ar    1  UNT1       -0.0046
     16  C16       19.2810   61.6940   15.5330 C.ar    1  UNT1       -0.0045
     17  C17       17.5050   61.5320   12.2670 C.3     1  UNT1        0.0268
     18  C18       16.5400   62.5180   11.6710 C.3     1  UNT1        0.0119
     19  C19       16.7020   62.4240   10.1710 C.3     1  UNT1        0.0586
     20  C20       17.2150   63.6770    9.6000 C.2     1  UNT1        0.1298
     21  N21       16.4230   64.7950    9.5350 N.2     1  UNT1       -0.3730
     22  C22       17.2020   65.6960    8.9790 C.2     1  UNT1        0.2771
     23  O23       18.4500   65.2560    8.6670 O.2     1  UNT1       -0.4486
     24  C24       18.4520   63.9600    9.0690 C.3     1  UNT1        0.2159
     25  C25       19.6910   63.1950    8.8590 C.3     1  UNT1        0.0549
     26  C26       16.9140   67.0690    8.6560 C.ar    1  UNT1        0.0660
     27  C27       17.8920   67.8860    8.1270 C.ar    1  UNT1        0.0058
     28  C28       17.6060   69.1990    7.8220 C.ar    1  UNT1        0.0002
     29  C29       16.3430   69.7010    8.0460 C.ar    1  UNT1        0.0000
     30  C30       15.3640   68.8890    8.5740 C.ar    1  UNT1        0.0002
     31  C31       15.6520   67.5770    8.8790 C.ar    1  UNT1        0.0058
@<TRIPOS>BOND
     1    28    29   ar
     2    28    27   ar
     3    29    30   ar
     4    27    26   ar
     5    30    31   ar
     6    26    31   ar
     7    26    22    1
     8    23    22    1
     9    23    24    1
    10    25    24    1
    11    22    21    2
    12    24    20    1
    13    21    20    2
    14    20    19    1
    15    19    18    1
    16    18    17    1
    17    17    14    1
    18    14    15   ar
    19    14    13   ar
    20    15    16   ar
    21    13    12   ar
    22    16    11   ar
    23    12    11   ar
    24    11    10    1
    25     8     7   ar
    26     8     9   ar
    27     7     6   ar
    28     9     5   ar
    29     6     5   ar
    30     5     4    1
    31    10     4    1
    32     4     2    1
    33     2     1   ar
    34     2     3   ar
