@<TRIPOS>MOLECULE
3ia8_HEM_A_1.pdb
 43 50 0 0 0
SMALL
GASTEIGER

@<TRIPOS>ATOM
      1  CHA       27.1980   24.6660   53.1550 C.2     1  HEM1        0.0000
      2  CHB       25.1330   28.3270   50.7660 C.2     1  HEM1        0.0000
      3  CHC       29.2110   30.9370   51.4750 C.2     1  HEM1        0.0000
      4  CHD       31.4980   27.0730   53.3020 C.2     1  HEM1        0.0000
      5  C1A       26.2850   25.4300   52.4800 C.ar    1  HEM1        0.0000
      6  C2A       24.9280   25.0360   52.1880 C.ar    1  HEM1        0.0000
      7  C3A       24.3590   26.0450   51.5080 C.ar    1  HEM1        0.0000
      8  C4A       25.3290   27.1090   51.3790 C.ar    1  HEM1        0.0000
      9  CMA       22.9250   26.1140   50.9510 C.3     1  HEM1        0.0000
     10  CAA       24.3550   23.6540   52.5740 C.3     1  HEM1        0.0000
     11  CBA       23.5630   23.7640   53.8670 C.3     1  HEM1        0.0000
     12  CGA       23.2830   22.3940   54.4450 C.2     1  HEM1        0.0000
     13  O1A       22.2130   22.2680   55.0840 O.co2   1  HEM1        0.0000
     14  O2A       24.0980   21.4420   54.2710 O.co2   1  HEM1        0.0000
     15  C1B       26.0470   29.3630   50.7820 C.2     1  HEM1        0.0000
     16  C2B       25.8190   30.7180   50.3090 C.2     1  HEM1        0.0000
     17  C3B       26.9520   31.4260   50.4920 C.2     1  HEM1        0.0000
     18  C4B       27.9240   30.5590   51.1270 C.2     1  HEM1        0.0000
     19  CMB       24.5250   31.2350   49.6600 C.3     1  HEM1        0.0000
     20  CAB       27.2140   32.9180   50.1510 C.2     1  HEM1        0.0000
     21  CBB       26.2450   33.8270   50.2550 C.2     1  HEM1        0.0000
     22  C1C       30.2050   30.1370   52.0050 C.ar    1  HEM1        0.0000
     23  C2C       31.5750   30.5180   52.2990 C.ar    1  HEM1        0.0000
     24  C3C       32.2150   29.4430   52.7950 C.ar    1  HEM1        0.0000
     25  C4C       31.2650   28.3530   52.8440 C.ar    1  HEM1        0.0000
     26  CMC       32.1970   31.9120   52.0770 C.3     1  HEM1        0.0000
     27  CAC       33.6890   29.3800   53.2370 C.2     1  HEM1        0.0000
     28  CBC       34.4010   28.2500   53.1000 C.2     1  HEM1        0.0000
     29  C1D       30.5370   26.0890   53.4390 C.2     1  HEM1        0.0000
     30  C2D       30.7800   24.7710   53.9940 C.2     1  HEM1        0.0000
     31  C3D       29.4360   24.0580   53.9380 C.2     1  HEM1        0.0000
     32  C4D       28.5220   24.9870   53.3560 C.2     1  HEM1        0.0000
     33  CMD       32.1030   24.1970   54.5320 C.3     1  HEM1        0.0000
     34  CAD       29.0690   22.6300   54.3750 C.3     1  HEM1        0.0000
     35  CBD       29.8280   21.6590   53.4810 C.3     1  HEM1        0.0000
     36  CGD       29.4450   20.2920   53.9750 C.2     1  HEM1        0.0000
     37  O1D       28.2470   19.9120   53.8160 O.co2   1  HEM1        0.0000
     38  O2D       30.3420   19.6020   54.5330 O.co2   1  HEM1        0.0000
     39  NA        26.4990   26.6980   51.9960 N.ar    1  HEM1        0.0000
     40  NB        27.3340   29.3010   51.2830 N.2     1  HEM1        0.0000
     41  NC        30.0570   28.8160   52.3660 N.ar    1  HEM1        0.0000
     42  ND        29.1940   26.1790   53.0790 N.2     1  HEM1        0.0000
     43 FE         28.1880   27.8470   52.4430 Fe      1  HEM1        0.0000
@<TRIPOS>BOND
     1    19    16    1
     2    20    21    2
     3    20    17    1
     4    16    17    2
     5    16    15    1
     6    17    18    1
     7     2    15    1
     8     2     8    2
     9    15    40    2
    10     9     7    1
    11    18    40    1
    12    18     3    2
    13    40    43    1
    14     8     7   ar
    15     8    39   ar
    16     3    22    1
    17     7     6   ar
    18    39    43    1
    19    39     5   ar
    20    22    23   ar
    21    22    41   ar
    22    26    23    1
    23     6     5   ar
    24     6    10    1
    25    23    24   ar
    26    41    43    1
    27    41    25   ar
    28    43    42    1
    29     5     1    2
    30    10    11    1
    31    24    25   ar
    32    24    27    1
    33    25     4    1
    34    42    32    2
    35    42    29    1
    36    28    27    2
    37     1    32    1
    38     4    29    2
    39    32    31    1
    40    29    30    1
    41    35    36    1
    42    35    34    1
    43    37    36   ar
    44    11    12    1
    45    31    30    2
    46    31    34    1
    47    36    38   ar
    48    30    33    1
    49    14    12   ar
    50    12    13   ar
