@<TRIPOS>MOLECULE
3iaa_TYD_A_1.pdb
 25 26 0 0 0
SMALL
GASTEIGER

@<TRIPOS>ATOM
      1  PA        31.2420   24.1590   31.2850 P.3   398  TYD398      0.2231
      2  O1A       30.4860   23.5820   30.2130 O.2   398  TYD398     -0.5169
      3  O2A       31.2520   23.3200   32.3860 O.3   398  TYD398     -0.4370
      4  O3A       30.7830   25.5900   31.6940 O.3   398  TYD398     -0.2261
      5  PB        30.1960   26.8100   30.8920 P.3   398  TYD398      0.5373
      6  O1B       28.7900   26.7120   30.8940 O.3   398  TYD398     -0.1143
      7  O2B       30.5070   27.7930   31.7530 O.3   398  TYD398     -0.1143
      8  O3B       30.8560   27.0580   29.6900 O.2   398  TYD398     -0.2221
      9  O5'       32.6880   24.4720   30.8540 O.3   398  TYD398     -0.3111
     10  C5'       33.1430   24.6740   29.5350 C.3   398  TYD398      0.1812
     11  C4'       34.1370   23.6160   29.1810 C.3   398  TYD398      0.1773
     12  O4'       35.1690   23.6580   30.1300 O.3   398  TYD398     -0.3339
     13  C3'       33.5610   22.2170   29.2530 C.3   398  TYD398      0.1857
     14  O3'       33.7170   21.5510   28.0260 O.3   398  TYD398     -0.2203
     15  C2'       34.2730   21.5410   30.3850 C.3   398  TYD398      0.0874
     16  C1'       35.5110   22.3800   30.5290 C.3   398  TYD398      0.2090
     17  N1        36.0680   22.5510   31.8210 N.am  398  TYD398     -0.1794
     18  C2        37.1200   21.7850   32.2510 C.1   398  TYD398      0.2844
     19  O2        37.5830   20.9190   31.5740 O.2   398  TYD398     -0.1918
     20  N3        37.6360   21.9430   33.4430 N.2   398  TYD398     -0.2455
     21  C4        37.2000   22.8470   34.2570 C.1   398  TYD398      0.2134
     22  O4        37.7230   22.9590   35.3180 O.2   398  TYD398     -0.2088
     23  C5        36.0980   23.6850   33.8280 C.2   398  TYD398      0.0891
     24  C5M       35.5130   24.7600   34.6600 C.3   398  TYD398      0.0462
     25  C6        35.5870   23.4890   32.5790 C.2   398  TYD398      0.0877
@<TRIPOS>BOND
     1    14    13    1
     2    11    13    1
     3    11    10    1
     4    11    12    1
     5    13    15    1
     6    10     9    1
     7     8     5    2
     8    12    16    1
     9     2     1    2
    10    15    16    1
    11    16    17    1
    12     9     1    1
    13     5     6    1
    14     5     4    1
    15     5     7    1
    16     1     4    1
    17     1     3    1
    18    19    18    2
    19    17    18   am
    20    17    25    1
    21    18    20    2
    22    25    23    2
    23    20    21    2
    24    23    21    1
    25    23    24    1
    26    21    22    2
