@<TRIPOS>MOLECULE
3iad_15X_A_1.pdb
 29 31 0 0 0
SMALL
GASTEIGER

@<TRIPOS>ATOM
      1  C1        22.7280   -6.9260   32.5510 C.ar  901  15X901      0.0067
      2  C2        23.7980   -7.6260   32.0000 C.ar  901  15X901      0.0242
      3  C3        24.0620   -8.9420   32.3790 C.ar  901  15X901      0.1429
      4  C4        23.2290   -9.5510   33.3150 C.ar  901  15X901      0.0241
      5  C5        22.1500   -8.8520   33.8610 C.ar  901  15X901      0.0017
      6  C6        21.8910   -7.5420   33.4750 C.ar  901  15X901      0.0003
      7  C13       21.9200   -2.9210   31.0500 C.ar  901  15X901      0.0014
      8  C14       21.9750   -3.9730   30.1330 C.ar  901  15X901      0.0099
      9  C15       22.2490   -5.3420   30.6390 C.ar  901  15X901      0.1393
     10  C16       22.4640   -5.5410   32.0890 C.ar  901  15X901      0.0612
     11  C17       22.3830   -4.3650   32.9880 C.ar  901  15X901      0.1408
     12  C18       22.1160   -3.1070   32.4250 C.ar  901  15X901      0.0367
     13  C26       21.7650   -3.7260   28.6470 C.3   901  15X901      0.0549
     14  C28       20.6390   -4.5900   28.1350 C.ar  901  15X901     -0.0176
     15  C30       20.8920   -5.7970   27.4800 C.ar  901  15X901     -0.0026
     16  C31       19.8420   -6.5970   27.0240 C.ar  901  15X901      0.0163
     17  C32       18.5120   -6.1960   27.2040 C.ar  901  15X901      0.0750
     18  C33       18.2840   -4.9860   27.8660 C.ar  901  15X901      0.0163
     19  C34       19.3260   -4.1850   28.3270 C.ar  901  15X901     -0.0026
     20  C43       22.8380   -3.4540   35.2200 C.3   901  15X901      0.2525
     21  O43       22.5770   -4.5430   34.3370 O.3   901  15X901     -0.4714
     22  N47       25.1590   -9.6290   31.8220 N.pl3 901  15X901      0.0577
     23  O49       25.3700  -10.8050   32.0950 O.2   901  15X901     -0.1261
     24  N51       17.3810   -6.8720   26.8370 N.am  901  15X901     -0.1596
     25  O51       26.0270   -8.9730   30.9450 O.2   901  15X901     -0.1261
     26  C53       17.2050   -8.1250   26.3590 C.2   901  15X901      0.3632
     27  N55       18.1480   -9.0010   25.9820 N.am  901  15X901     -0.0676
     28  O57       16.0460   -8.5010   26.2890 O.2   901  15X901     -0.2471
     29  F59       22.3170   -6.4070   29.8180 F     901  15X901     -0.2044
@<TRIPOS>BOND
     1    27    26   am
     2    28    26    2
     3    26    24   am
     4    24    17    1
     5    16    17   ar
     6    16    15   ar
     7    17    18   ar
     8    15    14   ar
     9    18    19   ar
    10    14    19   ar
    11    14    13    1
    12    13     8    1
    13    29     9    1
    14     8     9   ar
    15     8     7   ar
    16     9    10   ar
    17    25    22    2
    18     7    12   ar
    19    22    23    2
    20    22     3    1
    21     2     3   ar
    22     2     1   ar
    23    10     1    1
    24    10    11   ar
    25     3     4   ar
    26    12    11   ar
    27     1     6   ar
    28    11    21    1
    29     4     5   ar
    30     6     5   ar
    31    21    20    1
