@<TRIPOS>MOLECULE
3iae_D7K_A_1.pdb
 39 41 0 0 0
SMALL
GASTEIGER

@<TRIPOS>ATOM
      1  PA        -2.9350  -50.0030  -29.7900 P.3   571  D7K571      0.2230
      2  O1A       -3.4690  -50.3920  -31.2990 O.2   571  D7K571     -0.5169
      3  O2A       -2.1510  -51.1960  -29.3770 O.3   571  D7K571     -0.4370
      4  O1B       -6.5320  -49.3790  -28.0370 O.3   571  D7K571     -0.1143
      5  PB        -5.2280  -48.6220  -28.7190 P.3   571  D7K571      0.5373
      6  O2B       -5.3710  -48.1810  -30.3110 O.2   571  D7K571     -0.2221
      7  O3B       -4.7880  -47.4280  -27.9440 O.3   571  D7K571     -0.1143
      8  O3A       -4.0870  -49.8160  -28.6440 O.3   571  D7K571     -0.2261
      9  O01       -2.1400  -48.5730  -29.8520 O.3   571  D7K571     -0.3134
     10  C01       -1.3480  -48.1590  -28.7760 C.3   571  D7K571      0.1544
     11  C05       -1.0560  -46.6940  -29.0850 C.3   571  D7K571      0.0661
     12  C04        0.0210  -46.0960  -28.1720 C.2   571  D7K571      0.0164
     13  C03        1.5350  -45.9340  -28.5530 C.2   571  D7K571      0.0279
     14  CM4        2.1690  -46.3630  -29.8810 C.3   571  D7K571      0.0473
     15  S1        -0.2430  -45.5120  -26.6440 S.3   571  D7K571     -0.0943
     16  C02        1.4000  -45.0210  -26.2400 C.3   571  D7K571      0.1691
     17  N3         2.3460  -45.2760  -27.4010 N.pl3 571  D7K571     -0.2963
     18  C7,        3.7810  -45.0010  -27.4720 C.3   571  D7K571      0.1238
     19  C5,        4.6090  -46.2880  -27.4480 C.2   571  D7K571      0.0654
     20  C6,        5.5100  -46.6180  -28.5840 C.2   571  D7K571      0.1115
     21  C4,        4.5560  -47.1930  -26.2470 C.2   571  D7K571      0.2292
     22  N4,        3.7200  -46.9170  -25.1240 N.pl3 571  D7K571     -0.0925
     23  N3,        5.3490  -48.3900  -26.1750 N.2   571  D7K571     -0.3368
     24  C2,        6.2510  -48.7460  -27.2810 C.1   571  D7K571      0.0663
     25  N1,        6.3070  -47.8450  -28.4850 N.2   571  D7K571     -0.1861
     26  CM2        7.0560  -50.0310  -27.1810 C.3   571  D7K571      0.1291
     27  O12        2.8270  -42.2120  -26.5240 O.2   571  D7K571     -0.2525
     28  P8         1.6620  -42.3300  -25.3850 P.3   571  D7K571      0.4024
     29  O11        0.3650  -41.8580  -25.9190 O.3   571  D7K571     -0.1374
     30  O9         2.0310  -41.4840  -23.9720 O.3   571  D7K571     -0.2881
     31  C10        1.0330  -40.8810  -23.1800 C.3   571  D7K571      0.1840
     32  C7         1.6530  -44.1680  -24.9640 C.3   571  D7K571      0.2653
     33  O7         2.9620  -44.4340  -24.4670 O.3   571  D7K571     -0.2059
     34  C2         0.5300  -44.5120  -23.9190 C.ar  571  D7K571      0.0188
     35  C3         0.7560  -45.6130  -22.8370 C.ar  571  D7K571     -0.0012
     36  C4        -0.3190  -45.9570  -21.8040 C.ar  571  D7K571     -0.0002
     37  C5        -1.6820  -45.2160  -21.8230 C.ar  571  D7K571     -0.0000
     38  C6        -1.9280  -44.1240  -22.8780 C.ar  571  D7K571     -0.0002
     39  C1        -0.8340  -43.7810  -23.9220 C.ar  571  D7K571     -0.0012
@<TRIPOS>BOND
     1     2     1    2
     2     6     5    2
     3    14    13    1
     4     9     1    1
     5     9    10    1
     6     1     3    1
     7     1     8    1
     8    11    10    1
     9    11    12    1
    10     5     8    1
    11     5     4    1
    12     5     7    1
    13    20    25    1
    14    20    19    2
    15    13    12    2
    16    13    17    1
    17    25    24    2
    18    12    15    1
    19    18    19    1
    20    18    17    1
    21    19    21    1
    22    17    16    1
    23    24    26    1
    24    24    23    2
    25    15    16    1
    26    27    28    2
    27    21    23    2
    28    21    22    1
    29    16    32    1
    30    29    28    1
    31    28    32    1
    32    28    30    1
    33    32    33    1
    34    32    34    1
    35    30    31    1
    36    39    34   ar
    37    39    38   ar
    38    34    35   ar
    39    38    37   ar
    40    35    36   ar
    41    37    36   ar
