@<TRIPOS>MOLECULE
3iaf_TPP_A_1.pdb
 26 27 0 0 0
SMALL
GASTEIGER

@<TRIPOS>ATOM
      1  N1'       39.2110  -27.5420   -5.3240 N.2   571  TPP571     -0.1861
      2  C2'       39.4600  -28.2390   -6.4910 C.1   571  TPP571      0.0663
      3  CM2       39.8490  -29.6910   -6.4800 C.3   571  TPP571      0.1291
      4  N3'       39.3120  -27.6210   -7.7150 N.2   571  TPP571     -0.3368
      5  C4'       38.9120  -26.3010   -7.7880 C.2   571  TPP571      0.2292
      6  N4'       38.7770  -25.7250   -8.9800 N.pl3 571  TPP571     -0.0925
      7  C5'       38.6690  -25.5810   -6.6180 C.2   571  TPP571      0.0654
      8  C6'       38.8070  -26.2200   -5.3870 C.2   571  TPP571      0.1115
      9  C7'       38.2010  -24.1360   -6.6580 C.3   571  TPP571      0.1237
     10  N3        39.2070  -23.0980   -6.6700 N.pl3 571  TPP571     -0.2970
     11  C2        39.4110  -22.2830   -7.7600 C.3   571  TPP571      0.1543
     12  S1        40.5530  -21.1970   -7.5340 S.3   571  TPP571     -0.0951
     13  C5        40.8350  -21.6980   -6.0490 C.2   571  TPP571      0.0164
     14  C4        40.0300  -22.7560   -5.6460 C.2   571  TPP571      0.0279
     15  CM4       40.0830  -23.4080   -4.2910 C.3   571  TPP571      0.0473
     16  C6        41.9210  -20.9260   -5.3480 C.3   571  TPP571      0.0661
     17  C7        43.1990  -21.7590   -5.2480 C.3   571  TPP571      0.1544
     18  O7        44.3280  -20.9160   -5.2880 O.3   571  TPP571     -0.3134
     19  PA        45.5380  -20.9910   -4.2220 P.3   571  TPP571      0.2230
     20  O1A       46.1760  -22.3550   -4.2270 O.2   571  TPP571     -0.5169
     21  O2A       45.1170  -20.6300   -2.8210 O.3   571  TPP571     -0.4370
     22  O3A       46.5720  -19.9090   -4.8060 O.3   571  TPP571     -0.2261
     23  PB        46.0390  -18.4820   -5.3270 P.3   571  TPP571      0.5373
     24  O1B       45.4230  -17.7500   -4.1630 O.3   571  TPP571     -0.1143
     25  O2B       45.0070  -18.6640   -6.4110 O.2   571  TPP571     -0.2221
     26  O3B       47.1950  -17.6780   -5.8680 O.3   571  TPP571     -0.1143
@<TRIPOS>BOND
     1     6     5    1
     2     5     4    2
     3     5     7    1
     4    11    12    1
     5    11    10    1
     6     4     2    2
     7    12    13    1
     8    10     9    1
     9    10    14    1
    10     9     7    1
    11     7     8    2
    12     2     3    1
    13     2     1    2
    14    25    23    2
    15    13    14    2
    16    13    16    1
    17    26    23    1
    18    14    15    1
    19     8     1    1
    20    16    17    1
    21    23    22    1
    22    23    24    1
    23    18    17    1
    24    18    19    1
    25    22    19    1
    26    20    19    2
    27    19    21    1
