@<TRIPOS>MOLECULE
3iah_NAP_A_1.pdb
 48 52 0 0 0
SMALL
GASTEIGER

@<TRIPOS>ATOM
      1  PA         6.3150   13.5750   12.4550 P.3   254  NAP254      0.2189
      2  O1A        5.3680   14.3280   11.6320 O.2   254  NAP254     -0.5170
      3  O2A        5.8320   12.2680   12.9330 O.3   254  NAP254     -0.4371
      4  O5B        7.6560   13.2420   11.6890 O.3   254  NAP254     -0.3112
      5  C5B        8.5820   12.3400   12.2250 C.3   254  NAP254      0.1813
      6  C4B        9.6160   12.0790   11.1390 C.3   254  NAP254      0.1820
      7  O4B       10.5390   11.1850   11.7240 O.3   254  NAP254     -0.3136
      8  C3B        9.0300   11.4190    9.8970 C.3   254  NAP254      0.2157
      9  O3B        9.6770   11.8050    8.7050 O.3   254  NAP254     -0.2175
     10  C2B        9.2960    9.9730   10.1950 C.3   254  NAP254      0.2314
     11  O2B        9.2660    9.1330    9.0610 O.3   254  NAP254     -0.2630
     12  C1B       10.6630   10.0760   10.8990 C.3   254  NAP254      0.3158
     13  N9A       10.8300    8.7800   11.5330 N.pl3 254  NAP254     -0.1439
     14  C8A       10.0900    8.1980   12.5210 C.3   254  NAP254      0.3377
     15  N7A       10.5970    6.9650   12.7380 N.2   254  NAP254     -0.2095
     16  C5A       11.6310    6.7680   11.8910 C.2   254  NAP254      0.2526
     17  C6A       12.4860    5.7010   11.6740 C.2   254  NAP254      0.4393
     18  N6A       12.3550    4.5830   12.3920 N.pl3 254  NAP254      0.2180
     19  N1A       13.4800    5.8090   10.7110 N.2   254  NAP254      0.0021
     20  C2A       13.6110    6.9590    9.9550 C.3   254  NAP254      0.5254
     21  N3A       12.7530    8.0210   10.1700 N.2   254  NAP254     -0.0055
     22  C4A       11.7780    7.9040   11.1230 C.2   254  NAP254      0.3518
     23  O3         6.7960   14.3810   13.7340 O.3   254  NAP254     -0.2703
     24  PN         7.2350   15.8680   13.9470 P.3   254  NAP254      0.2189
     25  O1N        7.5490   16.4790   12.6250 O.2   254  NAP254     -0.5170
     26  O2N        6.3060   16.4850   14.9090 O.3   254  NAP254     -0.4371
     27  O5D        8.5800   15.5980   14.7620 O.3   254  NAP254     -0.3112
     28  C5D        9.8290   16.0590   14.3220 C.3   254  NAP254      0.1813
     29  C4D       10.7150   16.1570   15.5440 C.3   254  NAP254      0.1799
     30  O4D       10.1920   17.1760   16.3490 O.3   254  NAP254     -0.3327
     31  C3D       10.7810   14.9090   16.4240 C.3   254  NAP254      0.2158
     32  O3D       12.1290   14.6920   16.8570 O.3   254  NAP254     -0.2175
     33  C2D        9.8910   15.2650   17.6040 C.3   254  NAP254      0.2309
     34  O2D       10.2450   14.5890   18.7750 O.3   254  NAP254     -0.2158
     35  C1D       10.1260   16.7260   17.7140 C.3   254  NAP254      0.2263
     36  N1N        9.1050   17.5430   18.3990 N.pl3 254  NAP254     -0.2787
     37  C2N        7.8920   17.7540   17.7840 C.3   254  NAP254      0.1244
     38  C3N        6.9310   18.5200   18.4270 C.2   254  NAP254      0.0544
     39  C7N        5.5860   18.7880   17.7680 C.2   254  NAP254      0.2818
     40  O7N        4.7110   19.5330   18.5280 O.2   254  NAP254     -0.2670
     41  N7N        5.3070   18.3370   16.5410 N.am  254  NAP254     -0.0839
     42  C4N        7.2170   19.0610   19.6860 C.2   254  NAP254      0.0033
     43  C5N        8.4630   18.8330   20.3010 C.2   254  NAP254      0.0157
     44  C6N        9.3900   18.0630   19.6330 C.2   254  NAP254      0.0633
     45  P2B        7.8960    8.6870    8.2690 P.3   254  NAP254      0.5328
     46  O1X        8.1890    7.4540    7.5020 O.3   254  NAP254     -0.1145
     47  O2X        6.7900    8.3760    9.2370 O.3   254  NAP254     -0.1145
     48  O3X        7.4560    9.7310    7.2870 O.2   254  NAP254     -0.2224
@<TRIPOS>BOND
     1    48    45    2
     2    46    45    1
     3    45    11    1
     4    45    47    1
     5     9     8    1
     6    11    10    1
     7     8    10    1
     8     8     6    1
     9    20    21    1
    10    20    19    1
    11    21    22    2
    12    10    12    1
    13    19    17    2
    14    12    13    1
    15    12     7    1
    16    22    13    1
    17    22    16    1
    18     6     7    1
    19     6     5    1
    20    13    14    1
    21     2     1    2
    22    17    16    1
    23    17    18    1
    24     4     5    1
    25     4     1    1
    26    16    15    2
    27     1     3    1
    28     1    23    1
    29    14    15    1
    30    25    24    2
    31    23    24    1
    32    24    27    1
    33    24    26    1
    34    28    27    1
    35    28    29    1
    36    29    30    1
    37    29    31    1
    38    30    35    1
    39    31    32    1
    40    31    33    1
    41    41    39   am
    42    33    35    1
    43    33    34    1
    44    35    36    1
    45    39    38    1
    46    39    40    2
    47    37    36    1
    48    37    38    1
    49    36    44    1
    50    38    42    2
    51    44    43    2
    52    42    43    1
