@<TRIPOS>MOLECULE
3iai_AZM_A_1.pdb
 13 13 0 0 0
SMALL
GASTEIGER

@<TRIPOS>ATOM
      1  C1        70.4670   52.9550   12.8870 C.ar  263  AZM263      0.2590
      2  C2        70.8910   50.7440   12.2320 C.ar  263  AZM263      0.2093
      3  C3        70.7900   49.1400   10.3470 C.2   263  AZM263      0.2478
      4  C4        71.5490   47.9640    9.8240 C.3   263  AZM263      0.0969
      5  N1        69.2730   54.8750   14.4190 N.3   263  AZM263      0.0413
      6  N2        71.2710   50.9860   13.4700 N.ar  263  AZM263     -0.1222
      7  N3        71.0220   52.2890   13.8430 N.ar  263  AZM263     -0.1189
      8  N4        71.1110   49.5070   11.6550 N.am  263  AZM263     -0.1528
      9  O1        71.2990   55.3390   13.1470 O.2   263  AZM263     -0.1483
     10  O2        69.1620   54.9580   11.9710 O.2   263  AZM263     -0.1483
     11  O3        69.9580   49.7490    9.7010 O.2   263  AZM263     -0.2729
     12  S1        70.0440   54.6760   13.0570 S.O2  263  AZM263      0.1178
     13  S2        70.1710   52.0930   11.4220 S.2   263  AZM263     -0.0087
@<TRIPOS>BOND
     1    11     3    2
     2     4     3    1
     3     3     8   am
     4    13     2   ar
     5    13     1   ar
     6     8     2    1
     7    10    12    2
     8     2     6   ar
     9     1    12    1
    10     1     7   ar
    11    12     9    2
    12    12     5    1
    13     6     7   ar
