@<TRIPOS>MOLECULE
3iai_MAN_A_1.pdb
 11 11 0 0 0
SMALL
GASTEIGER

@<TRIPOS>ATOM
      1  C1        71.1440   83.8110   20.4850 C.3   268  MAN268      0.1777
      2  C2        72.6120   83.8030   20.9930 C.3   268  MAN268      0.2141
      3  C3        73.2350   82.3950   20.8500 C.3   268  MAN268      0.2173
      4  C4        72.3700   81.3160   21.5390 C.3   268  MAN268      0.2142
      5  C5        70.9160   81.3480   20.9890 C.3   268  MAN268      0.1810
      6  C6        69.9620   80.4540   21.7780 C.3   268  MAN268      0.2141
      7  O2        72.6390   84.2180   22.3630 O.3   268  MAN268     -0.2176
      8  O3        74.5390   82.4000   21.4270 O.3   268  MAN268     -0.2175
      9  O4        72.9380   80.0350   21.2840 O.3   268  MAN268     -0.2176
     10  O5        70.3590   82.7100   21.0450 O.3   268  MAN268     -0.3481
     11  O6        68.7750   80.1780   21.0410 O.3   268  MAN268     -0.2176
@<TRIPOS>BOND
     1     1     2    1
     2     1    10    1
     3     3     2    1
     4     3     8    1
     5     3     4    1
     6     5    10    1
     7     5     4    1
     8     5     6    1
     9     2     7    1
    10    11     6    1
    11     9     4    1
