@<TRIPOS>MOLECULE
3iak_EV1_A_1.pdb
 25 27 0 0 0
SMALL
GASTEIGER

@<TRIPOS>ATOM
      1  C25       19.3910  -12.1420   19.1400 C.3   415  EV1415      0.2526
      2  O24       20.2170  -11.4800   20.1010 O.3   415  EV1415     -0.4684
      3  C16       20.7990  -10.2660   19.8140 C.ar  415  EV1415      0.1721
      4  C15       20.0650   -8.9860   20.0360 C.ar  415  EV1415      0.1724
      5  O22       18.7830   -8.9780   20.5340 O.3   415  EV1415     -0.4684
      6  C23       18.3790   -7.9960   21.4930 C.3   415  EV1415      0.2526
      7  C14       20.7010   -7.7870   19.7220 C.ar  415  EV1415      0.0397
      8  C13       21.9970   -7.7820   19.2200 C.ar  415  EV1415     -0.0006
      9  C17       22.0980  -10.2040   19.3080 C.ar  415  EV1415      0.0362
     10  C12       22.6860   -8.9720   19.0120 C.ar  415  EV1415     -0.0130
     11  C11       24.0940   -8.9410   18.4710 C.3   415  EV1415      0.0721
     12  C10       24.3240   -7.7890   17.5180 C.ar  415  EV1415      0.0635
     13  N9        24.7590   -6.5990   18.0020 N.ar  415  EV1415     -0.2478
     14  C8        24.9880   -5.5360   17.2080 C.ar  415  EV1415      0.0985
     15  C7        24.8060   -5.5710   15.8230 C.ar  415  EV1415      0.0208
     16  C2        24.3680   -6.7380   15.2030 C.ar  415  EV1415      0.0059
     17  C3        24.1010   -7.9330   16.0490 C.ar  415  EV1415      0.0171
     18  C4        23.6600   -9.1170   15.4630 C.ar  415  EV1415      0.0412
     19  C5        23.4680   -9.1760   14.0810 C.ar  415  EV1415      0.1724
     20  O20       23.0390  -10.3280   13.4780 O.3   415  EV1415     -0.4684
     21  C21       22.0500  -11.1470   14.0920 C.3   415  EV1415      0.2526
     22  C6        23.7410   -7.9840   13.2320 C.ar  415  EV1415      0.1724
     23  C1        24.1780   -6.7960   13.8240 C.ar  415  EV1415      0.0401
     24  O18       23.5390   -8.0810   11.8750 O.3   415  EV1415     -0.4684
     25  C19       24.2370   -7.2560   10.9380 C.3   415  EV1415      0.2526
@<TRIPOS>BOND
     1    25    24    1
     2    24    22    1
     3    22    23   ar
     4    22    19   ar
     5    20    19    1
     6    20    21    1
     7    23    16   ar
     8    19    18   ar
     9    16    15   ar
    10    16    17   ar
    11    18    17   ar
    12    15    14   ar
    13    17    12   ar
    14    14    13   ar
    15    12    13   ar
    16    12    11    1
    17    11    10    1
    18    10     8   ar
    19    10     9   ar
    20     1     2    1
    21     8     7   ar
    22     9     3   ar
    23     7     4   ar
    24     3     4   ar
    25     3     2    1
    26     4     5    1
    27     5     6    1
