@<TRIPOS>MOLECULE
3ial_PR8_A_1.pdb
 30 33 0 0 0
SMALL
GASTEIGER

@<TRIPOS>ATOM
      1  C         52.6970   84.8030   15.5210 C.2   601  PR8601      0.3369
      2  N         53.7310   85.9300   17.4620 N.3   601  PR8601     -0.2085
      3  O         53.5010   83.8950   15.7450 O.2   601  PR8601     -0.2483
      4  P         51.7710   83.4670   13.5840 P.3   601  PR8601      0.2723
      5  N1        58.0160   78.0200    8.4510 N.2   601  PR8601      0.0021
      6  C2        58.0290   79.2070    7.8470 C.3   601  PR8601      0.5254
      7  N3        57.2340   80.1960    8.2390 N.2   601  PR8601     -0.0055
      8  C4        56.3880   80.0330    9.2620 C.2   601  PR8601      0.3518
      9  C5        56.3560   78.8030    9.9130 C.2   601  PR8601      0.2526
     10  C6        57.1980   77.7820    9.4890 C.2   601  PR8601      0.4393
     11  N6        57.1940   76.5950   10.1040 N.pl3 601  PR8601      0.2180
     12  N7        55.4590   78.8900   10.8850 N.2   601  PR8601     -0.2095
     13  C8        54.9370   80.1170   10.8500 C.3   601  PR8601      0.3377
     14  N9        55.4950   80.8220    9.8590 N.pl3 601  PR8601     -0.1439
     15  CA        52.6760   86.0580   16.4230 C.3   601  PR8601      0.1717
     16  CB        53.0280   87.2490   15.5480 C.3   601  PR8601      0.0303
     17  CD        54.7170   86.9670   17.1530 C.3   601  PR8601      0.0893
     18  CG        54.5270   87.2930   15.6720 C.3   601  PR8601      0.0208
     19  C1'       55.1670   82.2390    9.5280 C.3   601  PR8601      0.3186
     20  O10       51.7750   84.8120   14.5070 O.3   601  PR8601     -0.4091
     21  O1P       51.3350   82.2640   14.3260 O.3   601  PR8601     -0.4273
     22  C2'       53.7740   82.5100    8.9180 C.3   601  PR8601      0.2570
     23  O2'       53.8650   83.6040    7.9950 O.3   601  PR8601     -0.2130
     24  O2P       50.7660   83.8390   12.3710 O.2   601  PR8601     -0.5082
     25  C3'       52.9920   83.0440   10.0810 C.3   601  PR8601      0.2184
     26  O3'       51.9240   83.8510    9.5720 O.3   601  PR8601     -0.2174
     27  C4'       54.0770   83.9300   10.6820 C.3   601  PR8601      0.1822
     28  O4'       55.2000   83.0220   10.7670 O.3   601  PR8601     -0.3135
     29  C5'       53.6660   84.4370   12.0600 C.3   601  PR8601      0.1823
     30  O5'       53.2380   83.3620   12.9110 O.3   601  PR8601     -0.3024
@<TRIPOS>BOND
     1     6     7    1
     2     6     5    1
     3    23    22    1
     4     7     8    2
     5     5    10    2
     6    22    19    1
     7    22    25    1
     8     8    14    1
     9     8     9    1
    10    10     9    1
    11    10    11    1
    12    19    14    1
    13    19    28    1
    14    26    25    1
    15    14    13    1
    16     9    12    2
    17    25    27    1
    18    27    28    1
    19    27    29    1
    20    13    12    1
    21    29    30    1
    22    24     4    2
    23    30     4    1
    24     4    21    1
    25     4    20    1
    26    20     1    1
    27     1     3    2
    28     1    15    1
    29    16    18    1
    30    16    15    1
    31    18    17    1
    32    15     2    1
    33    17     2    1
