@<TRIPOS>MOLECULE
3iam_NAI_1_1.pdb
 44 48 0 0 0
SMALL
GASTEIGER

@<TRIPOS>ATOM
      1  PA       -15.0810    2.7410   38.0610 P.3   441  NAI441      0.2189
      2  O1A      -14.2670    1.7740   37.3620 O.2   441  NAI441     -0.5170
      3  O2A      -14.1710    4.1140   38.1780 O.3   441  NAI441     -0.4371
      4  O5B      -15.5880    2.2930   39.5810 O.3   441  NAI441     -0.3112
      5  C5B      -16.6030    3.1140   40.1740 C.3   441  NAI441      0.1813
      6  C4B      -16.6140    3.2830   41.6260 C.3   441  NAI441      0.1821
      7  O4B      -15.6500    2.5620   42.2980 O.3   441  NAI441     -0.3135
      8  C3B      -16.4490    4.5970   42.0520 C.3   441  NAI441      0.2184
      9  O3B      -17.3520    4.8590   43.0420 O.3   441  NAI441     -0.2174
     10  C2B      -15.1840    4.6700   42.5870 C.3   441  NAI441      0.2570
     11  O2B      -15.1650    5.6880   43.5070 O.3   441  NAI441     -0.2130
     12  C1B      -15.0010    3.4130   43.1360 C.3   441  NAI441      0.3186
     13  N9A      -13.6270    2.9200   43.3080 N.pl3 441  NAI441     -0.1439
     14  C8A      -12.9270    1.9570   42.4040 C.3   441  NAI441      0.3377
     15  N7A      -11.6900    1.7150   42.8910 N.2   441  NAI441     -0.2095
     16  C5A      -11.5200    2.5240   44.1680 C.2   441  NAI441      0.2526
     17  C6A      -10.3410    2.6670   45.1570 C.2   441  NAI441      0.4393
     18  N6A       -9.0480    2.0070   44.9260 N.pl3 441  NAI441      0.2180
     19  N1A      -10.4700    3.4070   46.1350 N.2   441  NAI441      0.0021
     20  C2A      -11.7960    4.1730   46.3490 C.3   441  NAI441      0.5254
     21  N3A      -12.8240    4.0490   45.4800 N.2   441  NAI441     -0.0055
     22  C4A      -12.6860    3.2180   44.3820 C.2   441  NAI441      0.3518
     23  O3       -16.4860    2.9430   37.1750 O.3   441  NAI441     -0.2703
     24  PN       -17.2600    4.3800   36.8770 P.3   441  NAI441      0.2189
     25  O1N      -17.4770    5.3160   38.2160 O.3   441  NAI441     -0.4371
     26  O2N      -16.4140    5.1580   36.0220 O.2   441  NAI441     -0.5170
     27  O5D      -18.7100    4.0460   36.0830 O.3   441  NAI441     -0.3112
     28  C5D      -18.9280    2.9390   35.1950 C.3   441  NAI441      0.1813
     29  C4D      -20.3680    2.7110   34.9850 C.3   441  NAI441      0.1799
     30  O4D      -20.9910    3.9070   34.7250 O.3   441  NAI441     -0.3327
     31  C3D      -20.6950    1.9030   33.9180 C.3   441  NAI441      0.2158
     32  O3D      -20.7430    0.5390   34.2000 O.3   441  NAI441     -0.2175
     33  C2D      -21.9360    2.4500   33.4340 C.3   441  NAI441      0.2309
     34  O2D      -22.9860    1.5480   33.3090 O.3   441  NAI441     -0.2158
     35  C1D      -22.2050    3.4780   34.2960 C.3   441  NAI441      0.2263
     36  N1N      -23.0190    4.4860   33.8110 N.pl3 441  NAI441     -0.2787
     37  C2N      -24.3060    4.8770   34.4650 C.3   441  NAI441      0.1244
     38  C3N      -25.1170    5.8480   34.0250 C.2   441  NAI441      0.0544
     39  C7N      -26.4580    6.2510   34.7270 C.2   441  NAI441      0.2818
     40  O7N      -27.1230    7.1240   34.2570 O.2   441  NAI441     -0.2670
     41  N7N      -26.9350    5.6050   35.9340 N.am  441  NAI441     -0.0839
     42  C4N      -24.7150    6.6140   32.7550 C.2   441  NAI441      0.0033
     43  C5N      -23.3520    6.1310   32.1230 C.2   441  NAI441      0.0157
     44  C6N      -22.6160    5.1560   32.6400 C.2   441  NAI441      0.0633
@<TRIPOS>BOND
     1    43    44    2
     2    43    42    1
     3    44    36    1
     4    42    38    2
     5    34    33    1
     6    33    31    1
     7    33    35    1
     8    36    35    1
     9    36    37    1
    10    31    32    1
    11    31    29    1
    12    38    37    1
    13    38    39    1
    14    40    39    2
    15    35    30    1
    16    30    29    1
    17    39    41   am
    18    29    28    1
    19    28    27    1
    20    26    24    2
    21    27    24    1
    22    24    23    1
    23    24    25    1
    24    23     1    1
    25     2     1    2
    26     1     3    1
    27     1     4    1
    28     4     5    1
    29     5     6    1
    30     6     8    1
    31     6     7    1
    32     8    10    1
    33     8     9    1
    34     7    12    1
    35    14    15    1
    36    14    13    1
    37    10    12    1
    38    10    11    1
    39    15    16    2
    40    12    13    1
    41    13    22    1
    42    16    22    1
    43    16    17    1
    44    22    21    2
    45    18    17    1
    46    17    19    2
    47    21    20    1
    48    19    20    1
