@<TRIPOS>MOLECULE
3iam_FMN_1_1.pdb
 31 33 0 0 0
SMALL
GASTEIGER

@<TRIPOS>ATOM
      1  N1       -23.7320    7.7670   37.2300 N.2   440  FMN440     -0.2887
      2  C2       -24.9830    8.2990   37.3670 C.1   440  FMN440      0.3669
      3  O2       -25.5810    8.0900   38.4110 O.2   440  FMN440     -0.1744
      4  N3       -25.5410    9.0420   36.3380 N.2   440  FMN440     -0.2300
      5  C4       -24.8280    9.2550   35.1580 C.1   440  FMN440      0.2513
      6  O4       -25.2830    9.9160   34.2080 O.2   440  FMN440     -0.2057
      7  C4A      -23.5600    8.7080   35.0300 C.2   440  FMN440      0.2703
      8  N5       -22.8160    8.8920   33.8770 N.2   440  FMN440     -0.3882
      9  C5A      -21.5450    8.3290   33.7900 C.2   440  FMN440      0.1277
     10  C6       -20.7720    8.5010   32.6500 C.3   440  FMN440      0.0820
     11  C7       -19.5090    7.9380   32.5750 C.2   440  FMN440     -0.0408
     12  C7M      -18.6930    8.1290   31.3360 C.3   440  FMN440      0.0265
     13  C8       -19.0060    7.2100   33.6390 C.2   440  FMN440     -0.0280
     14  C8M      -17.6420    6.6130   33.5290 C.3   440  FMN440      0.0304
     15  C9       -19.7640    7.0340   34.7850 C.2   440  FMN440      0.0123
     16  C9A      -21.0270    7.6010   34.8440 C.2   440  FMN440      0.0793
     17  N10      -21.7930    7.4270   35.9500 N.pl3 440  FMN440     -0.2545
     18  C10      -23.0330    7.9720   36.0730 C.2   440  FMN440      0.2449
     19  C1'      -21.2080    6.6440   37.0410 C.3   440  FMN440      0.1336
     20  C2'      -20.8050    7.6370   38.0880 C.3   440  FMN440      0.2048
     21  O2'      -19.3810    7.5800   38.1920 O.3   440  FMN440     -0.2185
     22  C3'      -21.7130    7.1940   39.2450 C.3   440  FMN440      0.2165
     23  O3'      -22.9430    7.9070   39.2800 O.3   440  FMN440     -0.2175
     24  C4'      -21.1700    7.1420   40.6540 C.3   440  FMN440      0.2147
     25  O4'      -20.0860    6.2370   40.6610 O.3   440  FMN440     -0.2176
     26  C5'      -22.3800    6.6540   41.4530 C.3   440  FMN440      0.1892
     27  O5'      -22.0820    6.1420   42.7250 O.3   440  FMN440     -0.2674
     28  P        -22.6910    4.7060   43.0330 P.3   440  FMN440      0.5327
     29  O1P      -21.9580    3.6960   42.1880 O.2   440  FMN440     -0.2224
     30  O2P      -22.4910    4.4120   44.4880 O.3   440  FMN440     -0.1145
     31  O3P      -24.1390    4.6640   42.6870 O.3   440  FMN440     -0.1145
@<TRIPOS>BOND
     1    12    11    1
     2    11    10    1
     3    11    13    2
     4    10     9    1
     5    14    13    1
     6    13    15    1
     7     9     8    2
     8     9    16    1
     9     8     7    2
    10     6     5    2
    11    15    16    2
    12    16    17    1
    13     7     5    1
    14     7    18    1
    15     5     4    2
    16    17    18    1
    17    17    19    1
    18    18     1    2
    19     4     2    2
    20    19    20    1
    21     1     2    2
    22     2     3    2
    23    20    21    1
    24    20    22    1
    25    22    23    1
    26    22    24    1
    27    24    25    1
    28    24    26    1
    29    26    27    1
    30    29    28    2
    31    31    28    1
    32    27    28    1
    33    28    30    1
