@<TRIPOS>MOLECULE
3iar_3D1_A_1.pdb
 18 20 0 0 0
SMALL
GASTEIGER

@<TRIPOS>ATOM
      1  O5'        7.5630   -0.5100    2.9120 O.3   501  3D1501     -0.2176
      2  C5'        8.5610   -1.4860    3.2370 C.3   501  3D1501      0.2142
      3  C4'        8.9980   -2.3440    2.0460 C.3   501  3D1501      0.1824
      4  O4'        7.8980   -3.1870    1.5730 O.3   501  3D1501     -0.3154
      5  C1'        8.1610   -3.5760    0.1520 C.3   501  3D1501      0.2874
      6  N9         6.8170   -3.4220   -0.4010 N.pl3 501  3D1501     -0.1460
      7  C4         5.9390   -4.4550   -0.6630 C.2   501  3D1501      0.3518
      8  N3         6.1840   -5.7760   -0.5700 N.2   501  3D1501     -0.0055
      9  C2         5.1260   -6.4970   -0.9400 C.3   501  3D1501      0.5254
     10  N1         3.9270   -6.0360   -1.3480 N.2   501  3D1501      0.0021
     11  C6         3.6820   -4.6920   -1.3490 C.2   501  3D1501      0.4393
     12  N6         2.4370   -4.2490   -1.5710 N.pl3 501  3D1501      0.2180
     13  C5         4.7770   -3.8400   -1.0520 C.2   501  3D1501      0.2526
     14  N7         4.8960   -2.4590   -1.0420 N.2   501  3D1501     -0.2095
     15  C8         6.1340   -2.2440   -0.6510 C.3   501  3D1501      0.3377
     16  C2'        9.2450   -2.6510   -0.3450 C.3   501  3D1501      0.1151
     17  C3'        9.3860   -1.5720    0.7720 C.3   501  3D1501      0.1884
     18  O3'       10.7180   -1.0980    0.8440 O.3   501  3D1501     -0.2202
@<TRIPOS>BOND
     1    12    11    1
     2    11    10    2
     3    11    13    1
     4    10     9    1
     5    13    14    2
     6    13     7    1
     7    14    15    1
     8     9     8    1
     9     7     8    2
    10     7     6    1
    11    15     6    1
    12     6     5    1
    13    16     5    1
    14    16    17    1
    15     5     4    1
    16    17    18    1
    17    17     3    1
    18     4     3    1
    19     3     2    1
    20     1     2    1
