@<TRIPOS>MOLECULE
3ias_FMN_1_1.pdb
 31 33 0 0 0
SMALL
GASTEIGER

@<TRIPOS>ATOM
      1  N1        14.5180  111.7960    5.9450 N.2   440  FMN440     -0.2887
      2  C2        15.0420  112.5460    4.9170 C.1   440  FMN440      0.3669
      3  O2        14.9300  113.7620    4.9230 O.2   440  FMN440     -0.1744
      4  N3        15.7010  111.9440    3.8800 N.2   440  FMN440     -0.2300
      5  C4        15.8430  110.5740    3.8490 C.1   440  FMN440      0.2513
      6  O4        16.4390  110.0380    2.9160 O.2   440  FMN440     -0.2057
      7  C4A       15.3110  109.7970    4.8840 C.2   440  FMN440      0.2706
      8  N5        15.4330  108.4140    4.8860 N.2   440  FMN440     -0.3841
      9  C5A       14.9150  107.6640    5.9060 C.2   440  FMN440      0.1452
     10  C6        15.0480  106.2890    5.9110 C.2   440  FMN440      0.0252
     11  C7        14.5010  105.5750    6.9660 C.2   440  FMN440     -0.0375
     12  C7M       14.6420  104.0970    6.9550 C.3   440  FMN440      0.0268
     13  C8        13.8270  106.2030    8.0120 C.3   440  FMN440      0.0417
     14  C8M       13.2280  105.4360    9.1520 C.3   440  FMN440      0.0091
     15  C9        13.7050  107.5850    8.0010 C.2   440  FMN440     -0.0049
     16  C9A       14.2560  108.3050    6.9440 C.2   440  FMN440      0.0795
     17  N10       14.1460  109.6670    6.9530 N.pl3 440  FMN440     -0.2545
     18  C10       14.6420  110.4220    5.9280 C.2   440  FMN440      0.2449
     19  C1'       13.4070  110.3430    8.0300 C.3   440  FMN440      0.1336
     20  C2'       14.1820  110.5350    9.2940 C.3   440  FMN440      0.2048
     21  O2'       13.6590  109.6650   10.2760 O.3   440  FMN440     -0.2185
     22  C3'       13.8020  111.9890    9.4890 C.3   440  FMN440      0.2165
     23  O3'       14.7370  112.8570    8.8930 O.3   440  FMN440     -0.2175
     24  C4'       13.5120  112.4950   10.8800 C.3   440  FMN440      0.2147
     25  O4'       12.5260  111.7070   11.5280 O.3   440  FMN440     -0.2176
     26  C5'       12.9950  113.8620   10.4620 C.3   440  FMN440      0.1892
     27  O5'       12.6820  114.7030   11.5210 O.3   440  FMN440     -0.2674
     28  P         11.4950  115.7120   11.1550 P.3   440  FMN440      0.5327
     29  O1P       10.4500  114.8810   10.4200 O.3   440  FMN440     -0.1145
     30  O2P       10.9490  116.3260   12.4390 O.3   440  FMN440     -0.1145
     31  O3P       12.0170  116.8010   10.2330 O.2   440  FMN440     -0.2224
@<TRIPOS>BOND
     1     6     5    2
     2     5     4    2
     3     5     7    1
     4     4     2    2
     5     7     8    2
     6     7    18    1
     7     8     9    2
     8     2     3    2
     9     2     1    2
    10     9    10    1
    11     9    16    1
    12    10    11    2
    13    18     1    2
    14    18    17    1
    15    16    17    1
    16    16    15    2
    17    17    19    1
    18    12    11    1
    19    11    13    1
    20    15    13    1
    21    13    14    1
    22    19    20    1
    23    23    22    1
    24    20    22    1
    25    20    21    1
    26    22    24    1
    27    31    28    2
    28    29    28    1
    29    26    24    1
    30    26    27    1
    31    24    25    1
    32    28    27    1
    33    28    30    1
