@<TRIPOS>MOLECULE
3iay_DCP_A_1.pdb
 28 29 0 0 0
SMALL
GASTEIGER

@<TRIPOS>ATOM
      1  N1         3.6700   -1.3870   34.1910 N.am  986  DCP986     -0.1802
      2  C2         4.0020   -1.9370   32.9290 C.1   986  DCP986      0.2756
      3  N3         4.2590   -1.1230   31.8650 N.2   986  DCP986     -0.3024
      4  C4         4.1890    0.2220   32.0000 C.2   986  DCP986      0.2346
      5  C5         3.8580    0.7860   33.2450 C.2   986  DCP986      0.0687
      6  C6         3.6030   -0.0560   34.3390 C.2   986  DCP986      0.0835
      7  O2         4.0750   -3.1910   32.8100 O.2   986  DCP986     -0.1925
      8  N4         4.4430    1.0150   30.9300 N.pl3 986  DCP986     -0.0921
      9  C1'        3.4510   -2.3180   35.3210 C.3   986  DCP986      0.2090
     10  C2'        4.8340   -2.7810   35.7670 C.3   986  DCP986      0.0874
     11  C3'        5.1820   -1.7610   36.8490 C.3   986  DCP986      0.1857
     12  C4'        3.8340   -1.6050   37.5320 C.3   986  DCP986      0.1773
     13  O4'        2.8930   -1.6210   36.4500 O.3   986  DCP986     -0.3339
     14  O3'        6.2700   -2.1810   37.7020 O.3   986  DCP986     -0.2203
     15  C5'        3.6760   -0.3270   38.3550 C.3   986  DCP986      0.1812
     16  O5'        3.6970    0.7790   37.4620 O.3   986  DCP986     -0.3112
     17  PA         4.5800    2.0750   37.8140 P.3   986  DCP986      0.2189
     18  O1A        4.4920    2.4100   39.2860 O.3   986  DCP986     -0.4371
     19  O2A        4.2230    3.1500   36.8460 O.2   986  DCP986     -0.5170
     20  O3A        6.0630    1.6140   37.4460 O.3   986  DCP986     -0.2700
     21  PB         7.2360    1.0540   38.3750 P.3   986  DCP986      0.2277
     22  O1B        7.8700   -0.0120   37.5360 O.2   986  DCP986     -0.5168
     23  O2B        6.8370    0.5900   39.7740 O.3   986  DCP986     -0.4368
     24  O3B        8.2660    2.2760   38.3940 O.3   986  DCP986     -0.2258
     25  PG         8.5230    3.4540   39.4800 P.3   986  DCP986      0.5373
     26  O1G        8.6950    4.6740   38.6090 O.2   986  DCP986     -0.2221
     27  O2G        9.8170    3.0310   40.1220 O.3   986  DCP986     -0.1143
     28  O3G        7.3130    3.5160   40.3740 O.3   986  DCP986     -0.1143
@<TRIPOS>BOND
     1     8     4    1
     2     3     4    2
     3     3     2    2
     4     4     5    1
     5     7     2    2
     6     2     1   am
     7     5     6    2
     8     1     6    1
     9     1     9    1
    10     9    10    1
    11     9    13    1
    12    10    11    1
    13    13    12    1
    14    19    17    2
    15    11    12    1
    16    11    14    1
    17    20    17    1
    18    20    21    1
    19    16    17    1
    20    16    15    1
    21    12    15    1
    22    22    21    2
    23    17    18    1
    24    21    24    1
    25    21    23    1
    26    24    25    1
    27    26    25    2
    28    25    27    1
    29    25    28    1
