@<TRIPOS>MOLECULE
3iaz_AIN_A_1.pdb
 13 13 0 0 0
SMALL
GASTEIGER

@<TRIPOS>ATOM
      1  O1         9.1080   18.6640   20.6770 O.co2 1202  AIN1202    -0.2404
      2  C7         8.1780   18.0550   19.9370 C.2   1202  AIN1202     0.3907
      3  O2         7.1720   17.6220   20.4830 O.co2 1202  AIN1202    -0.2404
      4  C3         8.2850   17.6170   18.4780 C.ar  1202  AIN1202     0.1137
      5  C4         7.1480   17.1070   17.8640 C.ar  1202  AIN1202     0.0096
      6  C5         7.2250   16.6910   16.5370 C.ar  1202  AIN1202     0.0004
      7  C6         8.4270   16.7750   15.8250 C.ar  1202  AIN1202     0.0031
      8  C1         9.6030   17.2830   16.4020 C.ar  1202  AIN1202     0.0372
      9  C2         9.5640   17.7230   17.7310 C.ar  1202  AIN1202     0.1477
     10  O3        10.5860   18.2330   18.5090 O.3   1202  AIN1202    -0.4505
     11  C8        11.8940   18.8550   18.3080 C.3   1202  AIN1202     0.3178
     12  O4        12.1680   19.5830   19.2460 O.3   1202  AIN1202    -0.1745
     13  C9        11.9370   19.3550   16.8900 C.3   1202  AIN1202     0.0855
@<TRIPOS>BOND
     1     7     8   ar
     2     7     6   ar
     3     8     9   ar
     4     6     5   ar
     5    13    11    1
     6     9     4   ar
     7     9    10    1
     8     5     4   ar
     9    11    10    1
    10    11    12    1
    11     4     2    1
    12     2     3   ar
    13     2     1   ar
