@<TRIPOS>MOLECULE
3ib0_DIF_A_1.pdb
 19 20 0 0 0
SMALL
GASTEIGER

@<TRIPOS>ATOM
      1  C1        12.8360   13.5580   15.3010 C.ar  701  DIF701      0.0128
      2  C2        11.6650   14.2720   15.5420 C.ar  701  DIF701      0.0737
      3 CL2        10.1760   13.5050   15.1030 Cl    701  DIF701     -0.0809
      4  C3        11.7290   15.5570   16.1060 C.ar  701  DIF701      0.0915
      5  C4        12.9880   16.0710   16.4350 C.ar  701  DIF701      0.0737
      6 CL4        13.1440   17.6410   17.1500 Cl    701  DIF701     -0.0809
      7  C5        14.1490   15.3430   16.1910 C.ar  701  DIF701      0.0128
      8  C6        14.0810   14.0810   15.6230 C.ar  701  DIF701      0.0018
      9  N1        10.6540   16.3240   16.4040 N.pl3 701  DIF701     -0.2111
     10  C7         8.5080   17.2640   16.5300 C.ar  701  DIF701      0.0043
     11  C8         9.5540   16.7620   15.7350 C.ar  701  DIF701      0.0671
     12  C9         9.4200   16.7450   14.3390 C.ar  701  DIF701      0.0162
     13  C10        8.2650   17.2070   13.7210 C.ar  701  DIF701      0.0013
     14  C11        7.2260   17.7030   14.4940 C.ar  701  DIF701     -0.0002
     15  C12        7.3590   17.7260   15.8770 C.ar  701  DIF701     -0.0024
     16  C13        8.6960   17.2750   18.0850 C.3   701  DIF701      0.1416
     17  C14        7.6700   17.7520   19.1510 C.2   701  DIF701      0.3693
     18  O1         6.5800   18.2850   18.8460 O.co2 701  DIF701     -0.2453
     19  O2         8.0550   17.5730   20.3260 O.co2 701  DIF701     -0.2453
@<TRIPOS>BOND
     1    13    12   ar
     2    13    14   ar
     3    12    11   ar
     4    14    15   ar
     5     3     2    1
     6     1     2   ar
     7     1     8   ar
     8     2     4   ar
     9     8     7   ar
    10    11     9    1
    11    11    10   ar
    12    15    10   ar
    13     4     9    1
    14     4     5   ar
    15     7     5   ar
    16     5     6    1
    17    10    16    1
    18    16    17    1
    19    18    17   ar
    20    17    19   ar
