@<TRIPOS>MOLECULE
3ib0_MAN_A_1.pdb
 11 11 0 0 0
SMALL
GASTEIGER

@<TRIPOS>ATOM
      1  C1        22.2890   11.5970   -5.9480 C.3    11  MAN11       0.1777
      2  C2        20.8400   11.4080   -6.2550 C.3    11  MAN11       0.2141
      3  C3        20.3490   12.3540   -7.3210 C.3    11  MAN11       0.2173
      4  C4        20.8570   13.7810   -7.1600 C.3    11  MAN11       0.2142
      5  C5        21.8230   13.9580   -5.9760 C.3    11  MAN11       0.1810
      6  C6        21.0860   14.7260   -4.9050 C.3    11  MAN11       0.2141
      7  O2        20.1740   11.7080   -5.0650 O.3    11  MAN11      -0.2176
      8  O3        18.9490   12.3760   -7.1810 O.3    11  MAN11      -0.2175
      9  O4        21.3420   14.2480   -8.4210 O.3    11  MAN11      -0.2176
     10  O5        22.2320   12.8100   -5.2820 O.3    11  MAN11      -0.3481
     11  O6        19.8990   14.2100   -4.3300 O.3    11  MAN11      -0.2176
@<TRIPOS>BOND
     1     9     4    1
     2     3     8    1
     3     3     4    1
     4     3     2    1
     5     4     5    1
     6     2     1    1
     7     2     7    1
     8     5    10    1
     9     5     6    1
    10     1    10    1
    11     6    11    1
