@<TRIPOS>MOLECULE
3ib1_IMN_A_1.pdb
 25 27 0 0 0
SMALL
GASTEIGER

@<TRIPOS>ATOM
      1  C         11.1090   18.3650   14.8580 C.ar  701  IMN701      0.0664
      2  C1        10.0190   18.7660   15.8130 C.ar  701  IMN701      0.0169
      3  C2        10.0380   20.0450   16.3670 C.ar  701  IMN701      0.0381
      4  C3        11.0750   20.9390   16.0410 C.ar  701  IMN701      0.1388
      5  C4        12.0960   20.5670   15.1590 C.ar  701  IMN701      0.0384
      6  C5        12.1120   19.2970   14.5690 C.ar  701  IMN701      0.0207
      7  C6        10.2810   22.5170   17.7410 C.3   701  IMN701      0.2525
      8  C7         9.1180   17.5770   15.9230 C.ar  701  IMN701      0.0027
      9  C8         9.7130   16.5560   15.0290 C.ar  701  IMN701      0.0411
     10  C9        11.5170   16.2730   13.6300 C.2   701  IMN701      0.2644
     11  C10       12.7770   16.6700   12.9240 C.ar  701  IMN701      0.0565
     12  C11       13.2920   17.9340   13.1350 C.ar  701  IMN701      0.0056
     13  C12       14.4530   18.3310   12.4940 C.ar  701  IMN701      0.0115
     14  C13       15.1010   17.4520   11.6390 C.ar  701  IMN701      0.0577
     15  C14       14.5890   16.1720   11.4230 C.ar  701  IMN701      0.0115
     16  C15       13.4190   15.7750   12.0660 C.ar  701  IMN701      0.0056
     17  C16        9.1560   15.1810   14.7920 C.3   701  IMN701      0.0501
     18  C17        7.8090   17.2860   16.6230 C.3   701  IMN701      0.1415
     19  C18        7.3460   17.5370   18.0380 C.2   701  IMN701      0.3693
     20  N         10.8150   17.0870   14.4910 N.ar  701  IMN701     -0.2785
     21  O         11.0910   22.2050   16.5950 O.3   701  IMN701     -0.4714
     22  O1        11.0770   15.1480   13.4330 O.2   701  IMN701     -0.2666
     23  O2         7.9290   16.9520   19.0770 O.co2 701  IMN701     -0.2453
     24  O3         6.3350   18.2030   18.2330 O.co2 701  IMN701     -0.2453
     25 CL         16.6120   18.0080   10.8350 Cl    701  IMN701     -0.0822
@<TRIPOS>BOND
     1    25    14    1
     2    15    14   ar
     3    15    16   ar
     4    14    13   ar
     5    16    11   ar
     6    13    12   ar
     7    11    12   ar
     8    11    10    1
     9    22    10    2
    10    10    20   am
    11    20     1   ar
    12    20     9   ar
    13     6     1   ar
    14     6     5   ar
    15    17     9    1
    16     1     2   ar
    17     9     8   ar
    18     5     4   ar
    19     2     8   ar
    20     2     3   ar
    21     8    18    1
    22     4     3   ar
    23     4    21    1
    24    21     7    1
    25    18    19    1
    26    19    24   ar
    27    19    23   ar
