@<TRIPOS>MOLECULE
3ib1_MAN_A_1.pdb
 11 11 0 0 0
SMALL
GASTEIGER

@<TRIPOS>ATOM
      1  C1        21.5880    0.2240   -5.9170 C.3     9  MAN9        0.1777
      2  C2        21.9070   -0.5040   -7.2120 C.3     9  MAN9        0.2141
      3  C3        21.1280    0.1090   -8.3770 C.3     9  MAN9        0.2173
      4  C4        19.9500    1.0140   -7.9490 C.3     9  MAN9        0.2142
      5  C5        19.2880    0.5110   -6.6540 C.3     9  MAN9        0.1810
      6  C6        18.3190   -0.6510   -6.9200 C.3     9  MAN9        0.2141
      7  O2        21.6030   -1.8760   -7.0780 O.3     9  MAN9       -0.2176
      8  O3        20.6920   -0.9130   -9.2500 O.3     9  MAN9       -0.2175
      9  O4        20.3690    2.3980   -8.0290 O.3     9  MAN9       -0.2176
     10  O5        20.2050    0.0930   -5.6450 O.3     9  MAN9       -0.3481
     11  O6        18.7370   -1.8290   -6.2530 O.3     9  MAN9       -0.2176
@<TRIPOS>BOND
     1     8     3    1
     2     3     4    1
     3     3     2    1
     4     9     4    1
     5     4     5    1
     6     2     7    1
     7     2     1    1
     8     6     5    1
     9     6    11    1
    10     5    10    1
    11     1    10    1
