@<TRIPOS>MOLECULE
3ib2_IBP_A_1.pdb
 15 15 0 0 0
SMALL
GASTEIGER

@<TRIPOS>ATOM
      1  C1         7.9620   17.9610   18.2680 C.2   3960  IBP3960     0.3683
      2  C2        11.3000   14.2760   14.4950 C.3   3960  IBP3960     0.0263
      3  C3        11.4840   13.3240   13.3050 C.3   3960  IBP3960     0.0044
      4  C4        10.6090   13.7540   12.1260 C.3   3960  IBP3960     0.0003
      5  C5        12.9420   13.1080   12.8500 C.3   3960  IBP3960     0.0003
      6  C6         9.2540   18.6040   17.8130 C.3   3960  IBP3960     0.1256
      7  C7        10.1650   18.8270   19.0220 C.3   3960  IBP3960     0.0166
      8  C8         9.7590   17.4890   16.9540 C.ar  3960  IBP3960    -0.0118
      9  C9         8.9120   16.8180   16.0500 C.ar  3960  IBP3960    -0.0041
     10  C10        9.4020   15.7780   15.2540 C.ar  3960  IBP3960    -0.0046
     11  C11       10.7530   15.4110   15.3460 C.ar  3960  IBP3960    -0.0222
     12  C12       11.5970   16.0740   16.2540 C.ar  3960  IBP3960    -0.0046
     13  C13       11.1080   17.1110   17.0410 C.ar  3960  IBP3960    -0.0041
     14  O1         7.6050   18.1330   19.4550 O.co2 3960  IBP3960    -0.2453
     15  O2         7.2890   17.2690   17.4620 O.co2 3960  IBP3960    -0.2453
@<TRIPOS>BOND
     1     4     3    1
     2     5     3    1
     3     3     2    1
     4     2    11    1
     5    10    11   ar
     6    10     9   ar
     7    11    12   ar
     8     9     8   ar
     9    12    13   ar
    10     8    13   ar
    11     8     6    1
    12    15     1   ar
    13     6     1    1
    14     6     7    1
    15     1    14   ar
