@<TRIPOS>MOLECULE
3ib8_AMP_A_1.pdb
 23 25 0 0 0
SMALL
GASTEIGER

@<TRIPOS>ATOM
      1  P         26.7400    2.2420    6.3630 P.3   666  AMP666      0.5327
      2  O1P       28.1120    2.8290    6.1360 O.3   666  AMP666     -0.1145
      3  O2P       26.8310    1.0640    7.3390 O.3   666  AMP666     -0.1145
      4  O3P       25.9290    1.8470    5.1680 O.2   666  AMP666     -0.2224
      5  O5'       25.8700    3.3430    7.1340 O.3   666  AMP666     -0.2675
      6  C5'       26.4620    4.2270    8.0670 C.3   666  AMP666      0.1860
      7  C4'       25.3600    5.0970    8.6420 C.3   666  AMP666      0.1823
      8  O4'       24.3860    4.2530    9.2500 O.3   666  AMP666     -0.3135
      9  C3'       25.9170    5.9890    9.7340 C.3   666  AMP666      0.2184
     10  O3'       26.2490    7.2720    9.1890 O.3   666  AMP666     -0.2174
     11  C2'       24.8220    6.0250   10.7840 C.3   666  AMP666      0.2570
     12  O2'       24.0530    7.2190   10.6440 O.3   666  AMP666     -0.2130
     13  C1'       23.9370    4.8160   10.4790 C.3   666  AMP666      0.3186
     14  N9        23.9560    3.7550   11.5230 N.pl3 666  AMP666     -0.1439
     15  C8        22.8640    3.0800   11.9450 C.3   666  AMP666      0.3377
     16  N7        23.1740    2.1630   12.8950 N.2   666  AMP666     -0.2095
     17  C5        24.5030    2.2430   13.1050 C.2   666  AMP666      0.2526
     18  C6        25.4940    1.5620   13.9730 C.2   666  AMP666      0.4393
     19  N6        25.1290    0.5910   14.8460 N.pl3 666  AMP666      0.2180
     20  N1        26.7880    1.9480   13.8650 N.2   666  AMP666      0.0021
     21  C2        27.1830    2.9100   13.0090 C.3   666  AMP666      0.5254
     22  N3        26.3390    3.5640   12.1960 N.2   666  AMP666     -0.0055
     23  C4        25.0140    3.2870   12.1930 C.2   666  AMP666      0.3518
@<TRIPOS>BOND
     1     4     1    2
     2     2     1    1
     3     1     5    1
     4     1     3    1
     5     5     6    1
     6     6     7    1
     7     7     8    1
     8     7     9    1
     9    10     9    1
    10     8    13    1
    11     9    11    1
    12    13    11    1
    13    13    14    1
    14    12    11    1
    15    14    15    1
    16    14    23    1
    17    15    16    1
    18    23    22    2
    19    23    17    1
    20    22    21    1
    21    16    17    2
    22    21    20    1
    23    17    18    1
    24    20    18    2
    25    18    19    1
