@<TRIPOS>MOLECULE
3ib9_BTN_A_1.pdb
 16 17 0 0 0
SMALL
GASTEIGER

@<TRIPOS>ATOM
      1  C11       37.5000   61.2210  146.0480 C.2   5600  BTN5600     0.3652
      2  O11       37.6140   61.9780  147.0230 O.co2 5600  BTN5600    -0.2456
      3  O12       36.7520   60.2400  146.1090 O.co2 5600  BTN5600    -0.2456
      4  C10       38.2760   61.5010  144.7660 C.3   5600  BTN5600     0.1187
      5  C9        37.9350   62.8660  144.1050 C.3   5600  BTN5600     0.0375
      6  C8        37.0130   62.7680  142.8490 C.2   5600  BTN5600    -0.0292
      7  C7        36.0590   61.5910  142.7830 C.2   5600  BTN5600    -0.0182
      8  C2        35.2350   61.4080  141.5060 C.3   5600  BTN5600     0.0944
      9  S1        34.0380   62.8390  141.0100 S.3   5600  BTN5600    -0.1325
     10  C6        33.0840   61.5930  139.9060 C.3   5600  BTN5600     0.0851
     11  C5        33.2380   60.2160  140.6050 C.3   5600  BTN5600     0.1513
     12  N1        31.9610   60.0420  141.5150 N.2   5600  BTN5600    -0.1859
     13  C3        32.2410   59.8990  142.7410 C.1   5600  BTN5600     0.2387
     14  O3        31.4670   59.7350  143.7710 O.2   5600  BTN5600    -0.2023
     15  N2        33.6750   59.9310  143.0090 N.2   5600  BTN5600    -0.1856
     16  C4        34.3500   60.1370  141.6220 C.3   5600  BTN5600     0.1541
@<TRIPOS>BOND
     1    10    11    1
     2    10     9    1
     3    11    12    1
     4    11    16    1
     5     9     8    1
     6     8    16    1
     7     8     7    1
     8    12    13    2
     9    16    15    1
    10    13    15    2
    11    13    14    2
    12     7     6    2
    13     6     5    1
    14     5     4    1
    15     4     1    1
    16     1     3   ar
    17     1     2   ar
