@<TRIPOS>MOLECULE
3iba_IPR_A_1.pdb
 14 13 0 0 0
SMALL
GASTEIGER

@<TRIPOS>ATOM
      1  P11        8.1910    9.5770  152.8430 P.3   900  IPR900      0.5373
      2  O14        9.4910    9.4130  153.5930 O.3   900  IPR900     -0.1143
      3  O12        7.8390    8.4230  151.9350 O.2   900  IPR900     -0.2221
      4  O13        7.0440   10.0500  153.6980 O.3   900  IPR900     -0.1143
      5  O10        8.4520   10.8220  151.8480 O.3   900  IPR900     -0.2261
      6  P7         9.2450   10.6730  150.4490 P.3   900  IPR900      0.2230
      7  O8        10.3700    9.6860  150.6330 O.3   900  IPR900     -0.4370
      8  O9         8.2480   10.4540  149.3370 O.2   900  IPR900     -0.5169
      9  O6         9.8950   12.1340  150.2580 O.3   900  IPR900     -0.3135
     10  C5         9.0730   13.2950  150.1670 C.3   900  IPR900      0.1535
     11  C4         9.9600   14.5260  150.0230 C.3   900  IPR900      0.0545
     12  C2        10.7240   14.5080  148.7160 C.2   900  IPR900     -0.0414
     13  C1        12.2180   14.3930  148.7350 C.3   900  IPR900      0.0264
     14  C3        10.0950   14.6000  147.5570 C.2   900  IPR900     -0.0090
@<TRIPOS>BOND
     1    14    12    2
     2    12    13    1
     3    12    11    1
     4     8     6    2
     5    11    10    1
     6    10     9    1
     7     9     6    1
     8     6     7    1
     9     6     5    1
    10     5     1    1
    11     3     1    2
    12     1     2    1
    13     1     4    1
