@<TRIPOS>MOLECULE
3iba_ZOL_A_1.pdb
 16 16 0 0 0
SMALL
GASTEIGER

@<TRIPOS>ATOM
      1  O17        7.6060   19.6590  147.5560 O.2   901  ZOL901     -0.4572
      2  P14        8.5470   19.7980  148.7260 P.3   901  ZOL901      0.1531
      3  O16        9.9670   20.0640  148.2950 O.3   901  ZOL901     -0.3552
      4  O15        8.0590   20.7410  149.7970 O.3   901  ZOL901     -0.3552
      5  C8         8.5490   18.1560  149.5050 C.3   901  ZOL901      0.2364
      6  P9         6.8790   17.7050  150.0690 P.3   901  ZOL901      0.1531
      7  O10        6.5420   18.6670  151.1800 O.3   901  ZOL901     -0.3552
      8  O11        5.9760   17.8300  148.8640 O.2   901  ZOL901     -0.4572
      9  O12        7.0350   16.2780  150.5170 O.3   901  ZOL901     -0.3552
     10  O13        8.9470   17.2210  148.5050 O.3   901  ZOL901     -0.2088
     11  C7         9.5110   18.0620  150.7050 C.3   901  ZOL901      0.1520
     12  N15       10.8900   18.3890  150.3320 N.ar  901  ZOL901     -0.3043
     13  C16       11.6700   17.7120  149.4810 C.ar  901  ZOL901      0.1787
     14  N17       12.8690   18.3230  149.4000 N.ar  901  ZOL901     -0.2223
     15  C18       12.8410   19.3960  150.2130 C.ar  901  ZOL901      0.1193
     16  C19       11.5900   19.4320  150.7910 C.ar  901  ZOL901      0.0981
@<TRIPOS>BOND
     1     1     2    2
     2     3     2    1
     3    10     5    1
     4     2     5    1
     5     2     4    1
     6     8     6    2
     7    14    13   ar
     8    14    15   ar
     9    13    12   ar
    10     5     6    1
    11     5    11    1
    12     6     9    1
    13     6     7    1
    14    15    16   ar
    15    12    11    1
    16    12    16   ar
