@<TRIPOS>MOLECULE
3ibc_III_E_1.pdb
 35 35 0 0 0
SMALL
GASTEIGER

@<TRIPOS>ATOM
      1  C         58.3130  -29.6500   -1.3870 C.2   701  ACE701      0.2423
      2  O         59.2820  -29.1560   -0.8530 O.2   701  ACE701     -0.2733
      3  CH3       58.5140  -30.7860   -2.3560 C.3   701  ACE701      0.0964
      4  N         57.0460  -29.5540   -0.8340 N.am  702  TYR702     -0.1974
      5  CA        56.4850  -28.2810   -0.3460 C.3   702  TYR702      0.1770
      6  C         56.5200  -27.0970   -1.3130 C.2   702  TYR702      0.2619
      7  O         57.5780  -26.5600   -1.6330 O.2   702  TYR702     -0.2715
      8  CB        57.2550  -28.0170    0.9510 C.3   702  TYR702      0.0574
      9  CG        56.9040  -28.9940    2.0510 C.ar  702  TYR702     -0.0198
     10  CD1       57.8730  -29.4500    2.9430 C.ar  702  TYR702     -0.0009
     11  CD2       55.5920  -29.4520    2.2110 C.ar  702  TYR702     -0.0009
     12  CE1       57.5480  -30.3390    3.9720 C.ar  702  TYR702      0.0417
     13  CE2       55.2540  -30.3370    3.2340 C.ar  702  TYR702      0.0417
     14  CZ        56.2350  -30.7770    4.1130 C.ar  702  TYR702      0.1957
     15  OH        55.8990  -31.6340    5.1410 O.3   702  TYR702     -0.2866
     16  N         55.3350  -26.7030   -1.7660 N.am  703  VAL703     -0.1963
     17  CA        55.1660  -25.5960   -2.6970 C.3   703  VAL703      0.1727
     18  C         54.0210  -24.7380   -2.1580 C.2   703  VAL703      0.2616
     19  O         53.4160  -25.0850   -1.1490 O.2   703  VAL703     -0.2715
     20  CB        54.7920  -26.1240   -4.1040 C.3   703  VAL703      0.0290
     21  CG1       54.8320  -24.9980   -5.1220 C.3   703  VAL703      0.0023
     22  CG2       55.7310  -27.2490   -4.4990 C.3   703  VAL703      0.0023
     23  N         53.7280  -23.6220   -2.8220 N.am  704  ALA704     -0.1963
     24  CA        52.6420  -22.7400   -2.3930 C.3   704  ALA704      0.1728
     25  C         51.5800  -22.6350   -3.4940 C.2   704  ALA704      0.2613
     26  O         51.8940  -22.7570   -4.6800 O.2   704  ALA704     -0.2715
     27  CB        53.1940  -21.3560   -2.0460 C.3   704  ALA704      0.0334
     28  N         50.3240  -22.4230   -3.0980 N.am  705  ASP705     -0.2025
     29  CA        49.2140  -22.3090   -4.0540 C.3   705  ASP705      0.1395
     30  C         48.5600  -20.9310   -4.0420 C.3   705  ASP705      0.2041
     31  O         48.6870  -20.2960   -5.3290 O.3   705  ASP705     -0.2185
     32  CB        48.1180  -23.3380   -3.7480 C.3   705  ASP705      0.1383
     33  CG        48.3740  -24.6780   -4.3980 C.2   705  ASP705      0.3667
     34  OD1       47.9020  -25.6950   -3.8470 O.co2 705  ASP705     -0.2456
     35  OD2       49.0440  -24.7140   -5.4540 O.co2 705  ASP705     -0.2456
@<TRIPOS>BOND
     1    35    33   ar
     2    31    30    1
     3    21    20    1
     4    26    25    2
     5    22    20    1
     6    33    34   ar
     7    33    32    1
     8    20    17    1
     9    29    30    1
    10    29    32    1
    11    29    28    1
    12    25    28   am
    13    25    24    1
    14    23    24    1
    15    23    18   am
    16    17    18    1
    17    17    16    1
    18    24    27    1
    19     3     1    1
    20    18    19    2
    21    16     6   am
    22     7     6    2
    23     1     2    2
    24     1     4   am
    25     6     5    1
    26     4     5    1
    27     5     8    1
    28     8     9    1
    29     9    11   ar
    30     9    10   ar
    31    11    13   ar
    32    10    12   ar
    33    13    14   ar
    34    12    14   ar
    35    14    15    1
