@<TRIPOS>MOLECULE
3ibd_CPZ_A_1.pdb
 12 13 0 0 0
SMALL
GASTEIGER

@<TRIPOS>ATOM
      1  C11       24.2440   15.0970   26.1640 C.ar  501  CPZ501      0.0024
      2  C10       25.1790   15.2480   27.1440 C.ar  501  CPZ501      0.0114
      3  C9        25.6100   14.1680   27.8670 C.ar  501  CPZ501      0.0577
      4  C8        25.1330   12.9110   27.5970 C.ar  501  CPZ501      0.0114
      5  C7        24.2130   12.7770   26.6080 C.ar  501  CPZ501      0.0024
      6  C6        23.7420   13.8470   25.8890 C.ar  501  CPZ501      0.0189
      7  C4        22.8110   13.6110   24.9180 C.2   501  CPZ501      0.0970
      8  C2        22.1550   14.5120   24.2160 C.2   501  CPZ501      0.1141
      9  N1        21.4020   13.8720   23.4190 N.2   501  CPZ501     -0.2412
     10  C5        21.5250   12.6120   23.5840 C.3   501  CPZ501      0.2508
     11  N3        22.4330   12.4410   24.4880 N.2   501  CPZ501     -0.2427
     12 CL         26.8150   14.3440   29.0550 Cl    501  CPZ501     -0.0822
@<TRIPOS>BOND
     1     9    10    1
     2     9     8    2
     3    10    11    1
     4     8     7    1
     5    11     7    2
     6     7     6    1
     7     6     1   ar
     8     6     5   ar
     9     1     2   ar
    10     5     4   ar
    11     2     3   ar
    12     4     3   ar
    13     3    12    1
