@<TRIPOS>MOLECULE
3ibd_HEM_A_1.pdb
 43 50 0 0 0
SMALL
GASTEIGER

@<TRIPOS>ATOM
      1  CHA       20.4360   17.6790   23.4710 C.2   500  HEM500      0.0000
      2  CHB       17.4690   14.1460   24.8690 C.2   500  HEM500      0.0000
      3  CHC       18.8250   11.6190   20.9950 C.2   500  HEM500      0.0000
      4  CHD       21.6030   15.2640   19.4350 C.2   500  HEM500      0.0000
      5  C1A       19.5630   16.9340   24.2020 C.2   500  HEM500      0.0000
      6  C2A       19.0080   17.3100   25.4810 C.2   500  HEM500      0.0000
      7  C3A       18.1740   16.3440   25.8470 C.2   500  HEM500      0.0000
      8  C4A       18.1790   15.3100   24.8340 C.2   500  HEM500      0.0000
      9  CMA       17.3290   16.2180   27.1130 C.3   500  HEM500      0.0000
     10  CAA       19.3310   18.6290   26.2510 C.3   500  HEM500      0.0000
     11  CBA       18.4070   19.7420   25.7540 C.3   500  HEM500      0.0000
     12  CGA       18.7040   20.9930   26.6160 C.2   500  HEM500      0.0000
     13  O1A       19.8770   21.4190   26.7620 O.co2 500  HEM500      0.0000
     14  O2A       17.7660   21.5290   27.2260 O.co2 500  HEM500      0.0000
     15  C1B       17.6040   13.1390   23.9490 C.ar  500  HEM500      0.0000
     16  C2B       16.9990   11.8090   24.0210 C.ar  500  HEM500      0.0000
     17  C3B       17.3610   11.1160   22.9400 C.ar  500  HEM500      0.0000
     18  C4B       18.2390   11.9740   22.1930 C.ar  500  HEM500      0.0000
     19  CMB       16.0710   11.3890   25.1820 C.3   500  HEM500      0.0000
     20  CAB       17.0430    9.6480   22.5210 C.2   500  HEM500      0.0000
     21  CBB       15.8670    9.0540   22.7280 C.2   500  HEM500      0.0000
     22  C1C       19.6460   12.3640   20.2000 C.2   500  HEM500      0.0000
     23  C2C       20.1960   11.9550   18.9230 C.2   500  HEM500      0.0000
     24  C3C       20.9680   12.9820   18.5000 C.2   500  HEM500      0.0000
     25  C4C       20.9490   14.0330   19.5080 C.2   500  HEM500      0.0000
     26  CMC       19.9070   10.5970   18.2440 C.3   500  HEM500      0.0000
     27  CAC       21.8170   13.1230   17.2370 C.2   500  HEM500      0.0000
     28  CBC       21.2270   13.0190   16.0300 C.2   500  HEM500      0.0000
     29  C1D       21.5880   16.2440   20.3920 C.ar  500  HEM500      0.0000
     30  C2D       22.3210   17.4980   20.3030 C.ar  500  HEM500      0.0000
     31  C3D       21.9900   18.2430   21.5740 C.ar  500  HEM500      0.0000
     32  C4D       21.0390   17.3900   22.2860 C.ar  500  HEM500      0.0000
     33  CMD       23.2970   17.8370   19.1780 C.3   500  HEM500      0.0000
     34  CAD       22.5200   19.6540   21.9820 C.3   500  HEM500      0.0000
     35  CBD       21.4770   20.6790   21.4740 C.3   500  HEM500      0.0000
     36  CGD       21.9330   22.1210   21.7210 C.2   500  HEM500      0.0000
     37  O1D       21.4660   23.0500   20.9730 O.co2 500  HEM500      0.0000
     38  O2D       22.7550   22.3060   22.6760 O.co2 500  HEM500      0.0000
     39  NA        19.0420   15.6960   23.8350 N.2   500  HEM500      0.0000
     40  NB        18.3580   13.2020   22.8300 N.ar  500  HEM500      0.0000
     41  NC        20.1310   13.6320   20.5000 N.2   500  HEM500      0.0000
     42  ND        20.7980   16.2520   21.5370 N.ar  500  HEM500      0.0000
     43 FE         19.5710   14.6660   22.1410 Fe    500  HEM500      0.0000
@<TRIPOS>BOND
     1    28    27    2
     2    27    24    1
     3    26    23    1
     4    24    23    2
     5    24    25    1
     6    23    22    1
     7    33    30    1
     8     4    25    1
     9     4    29    2
    10    25    41    2
    11    22    41    1
    12    22     3    2
    13    30    29   ar
    14    30    31   ar
    15    29    42   ar
    16    41    43    1
    17    37    36   ar
    18     3    18    1
    19    35    36    1
    20    35    34    1
    21    42    43    1
    22    42    32   ar
    23    31    34    1
    24    31    32   ar
    25    36    38   ar
    26    43    40    1
    27    43    39    1
    28    18    40   ar
    29    18    17   ar
    30    32     1    2
    31    20    21    2
    32    20    17    1
    33    40    15   ar
    34    17    16   ar
    35     1     5    1
    36    39     5    2
    37    39     8    1
    38    15    16   ar
    39    15     2    1
    40    16    19    1
    41     5     6    1
    42     8     2    2
    43     8     7    1
    44     6     7    2
    45     6    10    1
    46    11    10    1
    47    11    12    1
    48     7     9    1
    49    12    13   ar
    50    12    14   ar
