@<TRIPOS>MOLECULE
3ibd_CM5_A_1.pdb
 12 12 0 0 0
SMALL
GASTEIGER

@<TRIPOS>ATOM
      1  C7        32.9350    5.7290   14.9350 C.3   1001  CM51001     0.0043
      2  C8        32.3560    6.4680   16.1740 C.3   1001  CM51001     0.0003
      3  C9        31.1950    5.7090   16.8180 C.3   1001  CM51001     0.0000
      4  C10       31.5640    4.2390   17.0200 C.3   1001  CM51001     0.0003
      5  C11       31.9720    3.6190   15.6790 C.3   1001  CM51001     0.0043
      6  C6        33.3080    4.2380   15.1920 C.3   1001  CM51001     0.0217
      7  C5        34.0440    3.4460   14.0170 C.2   1001  CM51001    -0.0310
      8  C4        34.9310    2.1700   14.3530 C.2   1001  CM51001    -0.0306
      9  C3        35.5940    1.2360   13.2370 C.3   1001  CM51001     0.0284
     10  C2        37.0830    1.4720   12.6870 C.3   1001  CM51001     0.0402
     11  C1        38.2580    1.9140   13.6910 C.3   1001  CM51001     0.1824
     12  O12       39.3070    0.9310   13.9050 O.3   1001  CM51001    -0.2204
@<TRIPOS>BOND
     1    10     9    1
     2    10    11    1
     3     9     8    1
     4    11    12    1
     5     7     8    2
     6     7     6    1
     7     1     6    1
     8     1     2    1
     9     6     5    1
    10     5     4    1
    11     2     3    1
    12     3     4    1
