@<TRIPOS>MOLECULE
3ibe_L64_A_1.pdb
 45 51 0 0 0
SMALL
GASTEIGER

@<TRIPOS>ATOM
      1  C1        43.4790   24.8530   33.5320 C.ar  1109  L641109     0.0208
      2  N1        45.4330   23.7300   32.5890 N.ar  1109  L641109    -0.2422
      3  O1        44.4730   21.8700   36.6080 O.2   1109  L641109    -0.2699
      4  C2        43.3160   23.8580   34.4950 C.ar  1109  L641109     0.0077
      5  N2        43.6780   20.5380   34.8520 N.am  1109  L641109    -0.2759
      6  O2        37.2390   13.2090   34.4320 O.2   1109  L641109    -0.2484
      7  C3        44.2260   22.8120   34.4860 C.ar  1109  L641109     0.0727
      8  N3        45.1900   17.2480   32.8500 N.pl3 1109  L641109    -0.1888
      9  O3        47.9190   11.9660   28.7350 O.3   1109  L641109    -0.3501
     10  C4        45.2470   22.7800   33.5390 C.ar  1109  L641109     0.1034
     11  N4        46.4750   17.4900   32.5120 N.2   1109  L641109    -0.1784
     12  C5        44.5330   24.7440   32.6170 C.ar  1109  L641109     0.0989
     13  N5        44.2590   13.6040   31.5380 N.2   1109  L641109    -0.3283
     14  C6        44.1410   21.7070   35.4320 C.2   1109  L641109     0.2505
     15  N6        43.4990   15.5690   32.6800 N.2   1109  L641109    -0.3266
     16  C7        43.5650   19.3080   35.6160 C.3   1109  L641109     0.0955
     17  N7        38.2940   11.8360   32.9050 N.am  1109  L641109    -0.1607
     18  C8        44.6080   18.3490   35.0490 C.3   1109  L641109     0.0434
     19  N8        36.1680   11.4230   33.4070 N.am  1109  L641109    -0.1606
     20  C9        44.3530   18.1950   33.5540 C.3   1109  L641109     0.1020
     21  N9        32.1770   11.7680   34.6700 N.ar  1109  L641109    -0.2422
     22  C10       44.3580   19.5250   32.8030 C.3   1109  L641109     0.0434
     23  N10       46.3630   13.2500   30.6440 N.pl3 1109  L641109    -0.2805
     24  C11       43.3090   20.3950   33.4510 C.3   1109  L641109     0.0955
     25  C12       44.7340   16.0310   32.4620 C.2   1109  L641109     0.2047
     26  C13       45.7750   15.3970   31.8200 C.3   1109  L641109     0.1795
     27  C14       46.8210   16.3550   31.8870 C.2   1109  L641109     0.1082
     28  C15       45.5040   14.0950   31.3270 C.2   1109  L641109     0.1862
     29  C16       43.3360   14.3390   32.1810 C.1   1109  L641109     0.1398
     30  C17       42.0330   13.6960   32.3760 C.ar  1109  L641109     0.0858
     31  C18       40.9840   14.3280   33.0480 C.ar  1109  L641109     0.0134
     32  C19       39.7580   13.6810   33.2160 C.ar  1109  L641109     0.0174
     33  C20       39.5640   12.3950   32.7210 C.ar  1109  L641109     0.0750
     34  C21       40.6000   11.7640   32.0470 C.ar  1109  L641109     0.0174
     35  C22       41.8140   12.4080   31.8820 C.ar  1109  L641109     0.0134
     36  C23       37.2330   12.2700   33.6660 C.2   1109  L641109     0.3477
     37  C24       34.8220   11.4750   33.8220 C.ar  1109  L641109     0.0781
     38  C25       34.3610   12.6960   34.3050 C.ar  1109  L641109     0.0373
     39  C26       33.0470   12.7920   34.7150 C.ar  1109  L641109     0.1002
     40  C27       32.6430   10.5990   34.1920 C.ar  1109  L641109     0.1002
     41  C28       33.9400   10.4050   33.7590 C.ar  1109  L641109     0.0373
     42  C29       47.8220   13.4140   30.6750 C.3   1109  L641109     0.1249
     43  C30       48.3550   13.2300   29.2510 C.3   1109  L641109     0.1636
     44  C31       46.4930   11.9370   28.6300 C.3   1109  L641109     0.1636
     45  C32       45.8320   12.0510   30.0020 C.3   1109  L641109     0.1249
@<TRIPOS>BOND
     1    44     9    1
     2    44    45    1
     3     9    43    1
     4    43    42    1
     5    45    23    1
     6    23    42    1
     7    23    28    1
     8    28    13    2
     9    28    26    1
    10    13    29    2
    11    26    27    1
    12    26    25    1
    13    35    34   ar
    14    35    30   ar
    15    27    11    2
    16    34    33   ar
    17    29    30    1
    18    29    15    2
    19    30    31   ar
    20    25    15    2
    21    25     8    1
    22    11     8    1
    23     2    12   ar
    24     2    10   ar
    25    12     1   ar
    26    33    17    1
    27    33    32   ar
    28    22    24    1
    29    22    20    1
    30     8    20    1
    31    17    36   am
    32    31    32   ar
    33    19    36   am
    34    19    37    1
    35    24     5    1
    36     1     4   ar
    37    10     7   ar
    38    20    18    1
    39    36     6    2
    40    41    37   ar
    41    41    40   ar
    42    37    38   ar
    43    40    21   ar
    44    38    39   ar
    45     7     4   ar
    46     7    14    1
    47    21    39   ar
    48     5    14   am
    49     5    16    1
    50    18    16    1
    51    14     3    2
