@<TRIPOS>MOLECULE
3ibg_ADP_A_1.pdb
 27 29 0 0 0
SMALL
GASTEIGER

@<TRIPOS>ATOM
      1  PB         9.5800  -56.1990  110.6470 P.3   349  ADP349      0.5373
      2  O1B        8.2390  -56.0530  110.0710 O.3   349  ADP349     -0.1143
      3  O2B       10.6620  -56.2530  109.6420 O.2   349  ADP349     -0.2221
      4  O3B        9.8580  -55.3330  111.8060 O.3   349  ADP349     -0.1143
      5  PA         8.7260  -57.7900  112.6730 P.3   349  ADP349      0.2231
      6  O1A        8.3330  -56.4500  113.1120 O.2   349  ADP349     -0.5169
      7  O2A        9.4860  -58.6540  113.6000 O.3   349  ADP349     -0.4370
      8  O3A        9.5080  -57.6280  111.3080 O.3   349  ADP349     -0.2261
      9  O5'        7.4050  -58.5290  112.3080 O.3   349  ADP349     -0.3111
     10  C5'        7.5010  -59.9010  112.0450 C.3   349  ADP349      0.1813
     11  C4'        6.1430  -60.4530  112.3320 C.3   349  ADP349      0.1821
     12  O4'        6.2700  -61.8470  112.3460 O.3   349  ADP349     -0.3135
     13  C3'        5.8300  -60.0830  113.7410 C.3   349  ADP349      0.2184
     14  O3'        4.5030  -60.4640  114.0000 O.3   349  ADP349     -0.2174
     15  C2'        6.6180  -61.0670  114.5180 C.3   349  ADP349      0.2570
     16  O2'        5.9710  -61.2790  115.7560 O.3   349  ADP349     -0.2130
     17  C1'        6.4990  -62.2900  113.6640 C.3   349  ADP349      0.3186
     18  N9         7.7710  -63.0070  113.6660 N.pl3 349  ADP349     -0.1439
     19  C8         8.9660  -62.4920  113.4270 C.3   349  ADP349      0.3377
     20  N7         9.9230  -63.4290  113.5130 N.2   349  ADP349     -0.2095
     21  C5         9.3230  -64.5730  113.8130 C.2   349  ADP349      0.2526
     22  C6         9.7350  -65.9520  114.0440 C.2   349  ADP349      0.4393
     23  N6        11.0230  -66.3370  113.9790 N.pl3 349  ADP349      0.2180
     24  N1         8.7830  -66.8320  114.3260 N.2   349  ADP349      0.0021
     25  C2         7.4980  -66.4960  114.4010 C.3   349  ADP349      0.5254
     26  N3         7.0530  -65.2660  114.2020 N.2   349  ADP349     -0.0055
     27  C4         7.9090  -64.2870  113.9090 C.2   349  ADP349      0.3518
@<TRIPOS>BOND
     1     3     1    2
     2     2     1    1
     3     1     8    1
     4     1     4    1
     5     8     5    1
     6    10     9    1
     7    10    11    1
     8     9     5    1
     9    11    12    1
    10    11    13    1
    11    12    17    1
    12     5     6    2
    13     5     7    1
    14    19    20    1
    15    19    18    1
    16    20    21    2
    17    17    18    1
    18    17    15    1
    19    18    27    1
    20    13    14    1
    21    13    15    1
    22    21    27    1
    23    21    22    1
    24    27    26    2
    25    23    22    1
    26    22    24    2
    27    26    25    1
    28    24    25    1
    29    15    16    1
