@<TRIPOS>MOLECULE
3ibh_GSH_A_1.pdb
 20 19 0 0 0
SMALL
GASTEIGER

@<TRIPOS>ATOM
      1  N1       -14.7580   31.8960    2.9610 N.3   234  GSH234     -0.1208
      2  CA1      -15.2220   33.0690    3.7040 C.3   234  GSH234      0.1948
      3  C1       -15.7120   32.5390    4.9440 C.2   234  GSH234      0.3819
      4  O11      -16.9020   32.7610    5.4110 O.co2 234  GSH234     -0.2441
      5  O12      -14.7380   31.9190    5.4320 O.co2 234  GSH234     -0.2441
      6  CB1      -16.1730   34.1510    3.1810 C.3   234  GSH234      0.0402
      7  CG1      -15.3020   34.8150    2.1490 C.3   234  GSH234      0.0889
      8  CD1      -15.5090   36.2750    1.8430 C.2   234  GSH234      0.2418
      9  OE1      -16.3380   37.1210    2.6080 O.2   234  GSH234     -0.2733
     10  N2       -14.8090   36.6760    0.7780 N.am  234  GSH234     -0.1968
     11  CA2      -14.8720   38.0190    0.2200 C.3   234  GSH234      0.1843
     12  C2       -16.1250   38.2420   -0.5520 C.2   234  GSH234      0.2627
     13  O2       -16.6020   37.1900   -1.3210 O.2   234  GSH234     -0.2714
     14  CB2      -13.6940   38.2420   -0.7210 C.3   234  GSH234      0.0997
     15  SG2      -12.3250   38.9920    0.1960 S.3   234  GSH234     -0.0797
     16  N3       -16.7240   39.4310   -0.5100 N.am  234  GSH234     -0.1917
     17  CA3      -17.7400   39.7330   -1.4970 C.3   234  GSH234      0.2285
     18  C3       -18.9050   40.4720   -0.8970 C.2   234  GSH234      0.3865
     19  O31      -19.7420   41.0220   -1.6460 O.co2 234  GSH234     -0.2437
     20  O32      -19.0510   40.5330    0.3410 O.co2 234  GSH234     -0.2437
@<TRIPOS>BOND
     1    19    18   ar
     2    17    18    1
     3    17    16    1
     4    13    12    2
     5    18    20   ar
     6    14    15    1
     7    14    11    1
     8    12    16   am
     9    12    11    1
    10    11    10    1
    11    10     8   am
    12     8     7    1
    13     8     9    2
    14     7     6    1
    15     1     2    1
    16     6     2    1
    17     2     3    1
    18     3     4   ar
    19     3     5   ar
