@<TRIPOS>MOLECULE
3ibi_HGB_A_1.pdb
 10 10 0 0 0
SMALL
GASTEIGER

@<TRIPOS>ATOM
      1  C1         0.1860   12.8270   29.6000 C.2   400  HGB400      0.0000
      2  C3        -0.7530   10.9930   28.2410 C.ar  400  HGB400      0.0000
      3  C5        -1.2310   10.4990   27.0070 C.ar  400  HGB400      0.0000
      4  C7        -1.2520   11.3310   25.8580 C.ar  400  HGB400      0.0000
      5 HG         -1.9760   10.5800   24.0540 Hg    400  HGB400      0.0000
      6  C6        -0.7880   12.6600   25.9570 C.ar  400  HGB400      0.0000
      7  C4        -0.3080   13.1570   27.1950 C.ar  400  HGB400      0.0000
      8  O1         0.5880   13.9870   29.7010 O.co2 400  HGB400      0.0000
      9  O2         0.1980   12.1080   30.6040 O.co2 400  HGB400      0.0000
     10  C2        -0.2910   12.3270   28.3490 C.ar  400  HGB400      0.0000
@<TRIPOS>BOND
     1     5     4    1
     2     4     6   ar
     3     4     3   ar
     4     6     7   ar
     5     3     2   ar
     6     7    10   ar
     7     2    10   ar
     8    10     1    1
     9     1     8   ar
    10     1     9   ar
