@<TRIPOS>MOLECULE
3ibi_BOW_A_1.pdb
 13 12 0 0 0
SMALL
GASTEIGER

@<TRIPOS>ATOM
      1  C1        -4.6580    1.9510   14.4930 C.3   300  BOW300      0.1740
      2  N1        -5.2710   -0.5540   16.0610 N.3   300  BOW300      0.0391
      3  O1        -7.0460    1.1170   16.2820 O.3   300  BOW300     -0.0529
      4  S1        -5.7060    0.8470   16.6520 S.3   300  BOW300      0.0827
      5  C2        -5.3980    3.1770   13.9770 C.3   300  BOW300      0.0347
      6  O2        -5.3650    0.8830   18.0280 O.3   300  BOW300     -0.0529
      7  C3        -4.8030    4.4940   14.4150 C.3   300  BOW300      0.0027
      8  O3        -4.7890    1.9390   15.9590 O.3   300  BOW300     -0.2274
      9  C4        -3.6880    4.9990   13.5300 C.3   300  BOW300      0.0001
     10  C5        -2.8810    6.1030   14.1580 C.3   300  BOW300      0.0000
     11  C6        -2.1790    6.9960   13.1630 C.3   300  BOW300      0.0000
     12  C7        -1.0890    7.8710   13.7560 C.3   300  BOW300      0.0000
     13  C8        -1.5530    8.8460   14.8090 C.3   300  BOW300      0.0000
@<TRIPOS>BOND
     1    11    12    1
     2    11    10    1
     3     9    10    1
     4     9     7    1
     5    12    13    1
     6     5     7    1
     7     5     1    1
     8     1     8    1
     9     8     4    1
    10     2     4    1
    11     3     4    1
    12     4     6    1
