@<TRIPOS>MOLECULE
3ibl_HGB_A_1.pdb
 10 10 0 0 0
SMALL
GASTEIGER

@<TRIPOS>ATOM
      1  C1         0.0920   12.7490   30.1090 C.2   400  HGB400      0.0000
      2  C3        -0.8870   10.9600   28.7270 C.ar  400  HGB400      0.0000
      3  C5        -1.3670   10.5010   27.4820 C.ar  400  HGB400      0.0000
      4  C7        -1.3680   11.3510   26.3550 C.ar  400  HGB400      0.0000
      5 HG         -2.1000   10.6260   24.5450 Hg    400  HGB400      0.0000
      6  C6        -0.8870   12.6710   26.4720 C.ar  400  HGB400      0.0000
      7  C4        -0.4050   13.1340   27.7200 C.ar  400  HGB400      0.0000
      8  O1         0.5170   13.8960   30.2210 O.co2 400  HGB400      0.0000
      9  O2         0.0970   12.0120   31.1000 O.co2 400  HGB400      0.0000
     10  C2        -0.3970   12.2810   28.8550 C.ar  400  HGB400      0.0000
@<TRIPOS>BOND
     1     5     4    1
     2     4     6   ar
     3     4     3   ar
     4     6     7   ar
     5     3     2   ar
     6     7    10   ar
     7     2    10   ar
     8    10     1    1
     9     1     8   ar
    10     1     9   ar
