@<TRIPOS>MOLECULE
3ibl_O59_A_1.pdb
 18 17 0 0 0
SMALL
GASTEIGER

@<TRIPOS>ATOM
      1  C1        -4.7710    1.9230   14.5970 C.3   300  O59300      0.1740
      2  N1        -5.3700   -0.4660   16.2230 N.3   300  O59300      0.0391
      3  O1        -7.1920    1.1550   16.3950 O.3   300  O59300     -0.0529
      4  S1        -5.8350    0.9300   16.7690 S.3   300  O59300      0.0827
      5  C2        -4.1010    3.1800   14.1260 C.3   300  O59300      0.0347
      6  N2        -0.9460   11.6960   11.9910 N.3   300  O59300      0.0391
      7  O2        -5.4500    1.0310   18.1450 O.3   300  O59300     -0.0529
      8  S2        -1.6330   11.7780   13.4050 S.3   300  O59300      0.0827
      9  C3        -4.9880    4.3970   14.1490 C.3   300  O59300      0.0027
     10  O3        -5.0200    2.0690   16.0500 O.3   300  O59300     -0.2274
     11  C4        -4.3700    5.6210   13.5210 C.3   300  O59300      0.0001
     12  O4        -1.9850   10.3210   13.9010 O.3   300  O59300     -0.2274
     13  C5        -3.2310    6.2150   14.3050 C.3   300  O59300      0.0001
     14  O5        -0.6810   12.2730   14.3520 O.3   300  O59300     -0.0529
     15  C6        -2.4360    7.2380   13.5510 C.3   300  O59300      0.0027
     16  O6        -2.9000   12.4200   13.2530 O.3   300  O59300     -0.0529
     17  C7        -1.5010    8.0300   14.4230 C.3   300  O59300      0.0347
     18  C8        -0.9550    9.2670   13.7690 C.3   300  O59300      0.1740
@<TRIPOS>BOND
     1     6     8    1
     2    16     8    1
     3     8    12    1
     4     8    14    1
     5    11     9    1
     6    11    13    1
     7    15    13    1
     8    15    17    1
     9    18    12    1
    10    18    17    1
    11     5     9    1
    12     5     1    1
    13     1    10    1
    14    10     4    1
    15     2     4    1
    16     3     4    1
    17     4     7    1
