@<TRIPOS>MOLECULE
3ibn_O60_A_1.pdb
 20 19 0 0 0
SMALL
GASTEIGER

@<TRIPOS>ATOM
      1  C1        -4.9460    1.8050   14.4600 C.3   300  O60300      0.1740
      2  N1        -5.3180   -0.5460   16.0850 N.3   300  O60300      0.0391
      3  O1        -7.1370    1.0470   16.4420 O.3   300  O60300     -0.0529
      4  S1        -5.7620    0.8380   16.7080 S.3   300  O60300      0.0827
      5  C2        -4.3150    3.0270   13.9130 C.3   300  O60300      0.0347
      6  N2        -2.0740   12.5430   10.5550 N.3   300  O60300      0.0391
      7  O2        -5.2890    0.8990   18.0460 O.3   300  O60300     -0.0529
      8  S2        -2.4700   13.1470   11.9690 S.3   300  O60300      0.0827
      9  C3        -5.1070    4.2790   14.1520 C.3   300  O60300      0.0027
     10  O3        -4.9990    1.9510   15.9130 O.3   300  O60300     -0.2274
     11  C4        -4.4740    5.5070   13.5580 C.3   300  O60300      0.0001
     12  O4        -2.4550   11.9550   12.9930 O.3   300  O60300     -0.2274
     13  C5        -3.1600    5.8790   14.1790 C.3   300  O60300      0.0000
     14  O5        -1.4450   14.0450   12.3870 O.3   300  O60300     -0.0529
     15  C6        -2.5190    7.0420   13.5440 C.3   300  O60300      0.0000
     16  O6        -3.8210   13.5980   11.9070 O.3   300  O60300     -0.0529
     17  C7        -1.2880    7.5110   14.2610 C.3   300  O60300      0.0001
     18  C8        -0.7140    8.7900   13.7140 C.3   300  O60300      0.0027
     19  C9        -1.6160    9.9720   13.8960 C.3   300  O60300      0.0347
     20  C10       -1.2730   11.1070   13.0280 C.3   300  O60300      0.1740
@<TRIPOS>BOND
     1     6     8    1
     2    16     8    1
     3     8    14    1
     4     8    12    1
     5    12    20    1
     6    20    19    1
     7    15    13    1
     8    15    17    1
     9    11     9    1
    10    11    13    1
    11    18    19    1
    12    18    17    1
    13     5     9    1
    14     5     1    1
    15     1    10    1
    16    10     4    1
    17     2     4    1
    18     3     4    1
    19     4     7    1
