@<TRIPOS>MOLECULE
3ibn_HGB_A_1.pdb
 10 10 0 0 0
SMALL
GASTEIGER

@<TRIPOS>ATOM
      1  C1         0.0740   12.8800   29.7220 C.2   400  HGB400      0.0000
      2  C3        -0.8340   11.0500   28.3360 C.ar  400  HGB400      0.0000
      3  C5        -1.2790   10.5620   27.0930 C.ar  400  HGB400      0.0000
      4  C7        -1.2700   11.3910   25.9490 C.ar  400  HGB400      0.0000
      5 HG         -1.9510   10.6130   24.1480 Hg    400  HGB400      0.0000
      6  C6        -0.8040   12.7200   26.0510 C.ar  400  HGB400      0.0000
      7  C4        -0.3560   13.2130   27.3010 C.ar  400  HGB400      0.0000
      8  O1         0.4780   14.0380   29.8380 O.co2 400  HGB400      0.0000
      9  O2         0.0580   12.1570   30.7250 O.co2 400  HGB400      0.0000
     10  C2        -0.3720   12.3830   28.4560 C.ar  400  HGB400      0.0000
@<TRIPOS>BOND
     1     5     4    1
     2     4     6   ar
     3     4     3   ar
     4     6     7   ar
     5     3     2   ar
     6     7    10   ar
     7     2    10   ar
     8    10     1    1
     9     1     8   ar
    10     1     9   ar
