@<TRIPOS>MOLECULE
3ibo_REP_A_1.pdb
 21 24 0 0 0
SMALL
GASTEIGER

@<TRIPOS>ATOM
      1 RE         -6.4080   26.1080   99.4600 Re    801  REP801      0.0000
      2  N1        -7.9720   24.6030   99.5580 N.pl3 801  REP801      0.0000
      3  N2        -5.2810   24.3090   99.8790 N.pl3 801  REP801      0.0000
      4  O1        -6.2890   26.8520  102.4520 O.3   801  REP801      0.0000
      5  O2        -3.9870   27.9820   98.9640 O.3   801  REP801      0.0000
      6  O3        -8.1580   28.5680   99.0160 O.3   801  REP801      0.0000
      7  C1        -6.3530   26.5820  101.3350 C.3   801  REP801      0.0000
      8  C2        -4.8810   27.2810   99.1530 C.3   801  REP801      0.0000
      9  C3        -7.5170   27.6720   99.1750 C.3   801  REP801      0.0000
     10  C7        -9.3170   24.7740   99.3900 C.2   801  REP801      0.0000
     11  C8       -10.2320   23.6880   99.4500 C.2   801  REP801      0.0000
     12  C9        -9.7610   22.4340   99.6820 C.2   801  REP801      0.0000
     13  C10       -8.3600   22.1840   99.8720 C.ar  801  REP801      0.0000
     14  C11       -7.4920   23.3310   99.7930 C.ar  801  REP801      0.0000
     15  C12       -6.0620   23.1700   99.9750 C.ar  801  REP801      0.0000
     16  C13       -5.5070   21.8760  100.2460 C.ar  801  REP801      0.0000
     17  C14       -4.1100   21.8070  100.4230 C.2   801  REP801      0.0000
     18  C15       -3.3190   22.9340  100.3330 C.2   801  REP801      0.0000
     19  C16       -3.9450   24.1760  100.0550 C.2   801  REP801      0.0000
     20  C17       -7.7500   20.8820  100.1350 C.ar  801  REP801      0.0000
     21  C18       -6.4060   20.7340  100.3180 C.ar  801  REP801      0.0000
@<TRIPOS>BOND
     1     5     8    1
     2     6     9    1
     3     8     1    1
     4     9     1    1
     5    10    11    2
     6    10     2    1
     7    11    12    1
     8     1     2    1
     9     1     3    1
    10     1     7    1
    11     2    14    1
    12    12    13    2
    13    14    13   ar
    14    14    15   ar
    15    13    20   ar
    16     3    15    1
    17     3    19    1
    18    15    16   ar
    19    19    18    2
    20    20    21   ar
    21    16    21   ar
    22    16    17    2
    23    18    17    1
    24     7     4    1
