@<TRIPOS>MOLECULE
3ibq_ATP_A_1.pdb
 31 33 0 0 0
SMALL
GASTEIGER

@<TRIPOS>ATOM
      1  PG        17.0870   27.0090   21.9150 P.3   281  ATP281      0.5373
      2  O1G       16.5940   26.3960   23.2250 O.3   281  ATP281     -0.1143
      3  O2G       16.1910   28.0980   21.5230 O.2   281  ATP281     -0.2221
      4  O3G       18.5920   27.1170   21.8060 O.3   281  ATP281     -0.1143
      5  PB        17.7620   26.3550   19.3680 P.3   281  ATP281      0.2277
      6  O1B       18.9130   27.1250   19.8950 O.3   281  ATP281     -0.4368
      7  O2B       17.0410   26.9250   18.1850 O.2   281  ATP281     -0.5168
      8  O3B       16.7750   26.2050   20.5790 O.3   281  ATP281     -0.2258
      9  PA        16.6630   23.8990   18.8810 P.3   281  ATP281      0.2189
     10  O1A       15.7790   24.1850   17.7790 O.2   281  ATP281     -0.5170
     11  O2A       16.0450   23.7720   20.2300 O.3   281  ATP281     -0.4371
     12  O3A       17.9550   24.8200   19.1060 O.3   281  ATP281     -0.2700
     13  O5'       17.4440   22.6070   18.5210 O.3   281  ATP281     -0.3112
     14  C5'       18.3740   22.0710   19.3840 C.3   281  ATP281      0.1813
     15  C4'       18.3680   20.5890   19.1770 C.3   281  ATP281      0.1821
     16  O4'       17.9800   19.9660   20.3780 O.3   281  ATP281     -0.3135
     17  C3'       17.4420   20.0550   18.0890 C.3   281  ATP281      0.2184
     18  O3'       18.1750   19.8160   16.9640 O.3   281  ATP281     -0.2174
     19  C2'       17.1970   18.7040   18.5930 C.3   281  ATP281      0.2570
     20  O2'       18.4220   18.0130   18.3610 O.3   281  ATP281     -0.2130
     21  C1'       17.0920   18.9290   20.0750 C.3   281  ATP281      0.3186
     22  N9        15.7460   19.2460   20.6070 N.pl3 281  ATP281     -0.1439
     23  C8        15.2580   20.4200   20.8390 C.3   281  ATP281      0.3377
     24  N7        14.0420   20.3320   21.3490 N.2   281  ATP281     -0.2095
     25  C5        13.7280   19.0900   21.4550 C.2   281  ATP281      0.2526
     26  C6        12.5550   18.2930   21.8910 C.2   281  ATP281      0.4393
     27  N6        11.4760   18.8740   22.3980 N.pl3 281  ATP281      0.2180
     28  N1        12.6710   17.0100   21.7920 N.2   281  ATP281      0.0021
     29  C2        13.7310   16.4200   21.3080 C.3   281  ATP281      0.5254
     30  N3        14.8150   17.0320   20.9150 N.2   281  ATP281     -0.0055
     31  C4        14.8710   18.3570   20.9630 C.2   281  ATP281      0.3518
@<TRIPOS>BOND
     1    18    17    1
     2    10     9    2
     3    17    19    1
     4    17    15    1
     5     7     5    2
     6    20    19    1
     7    13     9    1
     8    13    14    1
     9    19    21    1
    10     9    12    1
    11     9    11    1
    12    12     5    1
    13    15    14    1
    14    15    16    1
    15     5     6    1
    16     5     8    1
    17    21    16    1
    18    21    22    1
    19     8     1    1
    20    22    23    1
    21    22    31    1
    22    23    24    1
    23    30    31    2
    24    30    29    1
    25    31    25    1
    26    29    28    1
    27    24    25    2
    28    25    26    1
    29     3     1    2
    30    28    26    2
    31     4     1    1
    32    26    27    1
    33     1     2    1
