@<TRIPOS>MOLECULE
3ibr_BLA_A_1.pdb
 43 46 0 0 0
SMALL
GASTEIGER

@<TRIPOS>ATOM
      1  CHA       57.6130   60.2040   16.8140 C.3   900  BLA900      0.1170
      2  NA        56.8760   62.1570   18.1440 N.2   900  BLA900     -0.4104
      3  C1A       56.8490   60.8810   17.7520 C.2   900  BLA900      0.1114
      4  C2A       55.9760   60.1790   18.5710 C.2   900  BLA900      0.0024
      5  C3A       55.4040   61.1390   19.3980 C.2   900  BLA900      0.0021
      6  C4A       56.0110   62.3710   19.1380 C.2   900  BLA900      0.1114
      7  CMA       54.3220   60.8470   20.4360 C.3   900  BLA900      0.0331
      8  CAA       55.6440   58.6890   18.4180 C.3   900  BLA900      0.0402
      9  CBA       56.6100   57.7350   19.1210 C.3   900  BLA900      0.1188
     10  CGA       56.5940   57.9090   20.6350 C.2   900  BLA900      0.3652
     11  O1A       57.6760   57.7440   21.2370 O.co2 900  BLA900     -0.2456
     12  O2A       55.4830   58.1270   21.1620 O.co2 900  BLA900     -0.2456
     13  CHB       55.8060   63.7750   19.7390 C.3   900  BLA900      0.1181
     14  NB        54.8750   65.0510   21.7090 N.2   900  BLA900     -0.3375
     15  C1B       55.4710   63.9480   21.2300 C.2   900  BLA900      0.1254
     16  C2B       55.7050   63.1070   22.3190 C.2   900  BLA900      0.0128
     17  C3B       55.2210   63.7360   23.4480 C.2   900  BLA900      0.0706
     18  C4B       54.7120   64.9520   23.0270 C.1   900  BLA900      0.2000
     19  CMB       56.3700   61.7300   22.3290 C.3   900  BLA900      0.0339
     20  OB        54.1910   65.8100   23.7380 O.2   900  BLA900     -0.2096
     21  CAB       55.2560   63.2210   24.7420 C.3   900  BLA900      0.0390
     22  CBB       54.7360   63.9310   25.8190 C.3   900  BLA900      0.0058
     23  NC        59.2620   64.9260   16.6360 N.2   900  BLA900     -0.3375
     24  C1C       58.9200   66.1440   17.0550 C.1   900  BLA900      0.2000
     25  C2C       59.1200   67.0580   16.0390 C.2   900  BLA900      0.0710
     26  C3C       59.6100   66.3490   14.9440 C.2   900  BLA900      0.0125
     27  C4C       59.6800   65.0110   15.3650 C.2   900  BLA900      0.1254
     28  CMC       58.8370   68.5610   16.1670 C.3   900  BLA900      0.0445
     29  OC        58.4910   66.4200   18.1750 O.2   900  BLA900     -0.2096
     30  CAC       60.0100   66.8630   13.5410 C.3   900  BLA900      0.0291
     31  CBC       59.5330   68.2860   13.2250 C.3   900  BLA900      0.0051
     32  CHD       60.1830   63.8350   14.5040 C.3   900  BLA900      0.1181
     33  ND        58.7330   62.2340   15.9040 N.2   900  BLA900     -0.4104
     34  C1D       59.6290   62.4730   14.9480 C.2   900  BLA900      0.1114
     35  C2D       59.9770   61.2450   14.4170 C.2   900  BLA900      0.0021
     36  C3D       59.2640   60.2480   15.0630 C.2   900  BLA900      0.0024
     37  C4D       58.4820   60.9210   15.9960 C.2   900  BLA900      0.1114
     38  CMD       60.9910   61.0690   13.2950 C.3   900  BLA900      0.0331
     39  CAD       59.3250   58.7340   14.8070 C.3   900  BLA900      0.0402
     40  CBD       60.7750   58.2410   14.6890 C.3   900  BLA900      0.1188
     41  CGD       60.8550   56.7360   14.4240 C.2   900  BLA900      0.3652
     42  O1D       61.4410   56.3680   13.3800 O.co2 900  BLA900     -0.2456
     43  O2D       60.3380   55.9750   15.2730 O.co2 900  BLA900     -0.2456
@<TRIPOS>BOND
     1    31    30    1
     2    38    35    1
     3    42    41   ar
     4    30    26    1
     5    35    34    1
     6    35    36    2
     7    41    40    1
     8    41    43   ar
     9    32    34    1
    10    32    27    1
    11    40    39    1
    12    39    36    1
    13    26    27    1
    14    26    25    2
    15    34    33    2
    16    36    37    1
    17    27    23    2
    18    33    37    2
    19    37     1    1
    20    25    28    1
    21    25    24    1
    22    23    24    2
    23     1     3    1
    24    24    29    2
    25     3     2    2
    26     3     4    1
    27     2     6    2
    28     8     4    1
    29     8     9    1
    30     4     5    2
    31     9    10    1
    32     6     5    1
    33     6    13    1
    34     5     7    1
    35    13    15    1
    36    10    12   ar
    37    10    11   ar
    38    15    14    2
    39    15    16    1
    40    14    18    2
    41    16    19    1
    42    16    17    2
    43    18    17    1
    44    18    20    2
    45    17    21    1
    46    21    22    1
