@<TRIPOS>MOLECULE
3ibu_HGB_A_1.pdb
 10 10 0 0 0
SMALL
GASTEIGER

@<TRIPOS>ATOM
      1  C1         0.2280   12.8430   29.9220 C.2   400  HGB400      0.0000
      2  C3        -0.7230   11.0320   28.5500 C.ar  400  HGB400      0.0000
      3  C5        -1.2090   10.5550   27.3150 C.ar  400  HGB400      0.0000
      4  C7        -1.2490   11.4000   26.1860 C.ar  400  HGB400      0.0000
      5 HG         -1.9780   10.6470   24.3830 Hg    400  HGB400      0.0000
      6  C6        -0.7930   12.7320   26.2910 C.ar  400  HGB400      0.0000
      7  C4        -0.3040   13.2140   27.5320 C.ar  400  HGB400      0.0000
      8  O1         0.6300   13.9960   30.0350 O.co2 400  HGB400      0.0000
      9  O2         0.2600   12.1010   30.9100 O.co2 400  HGB400      0.0000
     10  C2        -0.2620   12.3640   28.6710 C.ar  400  HGB400      0.0000
@<TRIPOS>BOND
     1     5     4    1
     2     4     6   ar
     3     4     3   ar
     4     6     7   ar
     5     3     2   ar
     6     7    10   ar
     7     2    10   ar
     8    10     1    1
     9     1     8   ar
    10     1     9   ar
