@<TRIPOS>MOLECULE
3ibu_O48_A_1.pdb
 15 14 0 0 0
SMALL
GASTEIGER

@<TRIPOS>ATOM
      1  C1        -4.6680    1.9020   14.5860 C.3   300  O48300      0.1740
      2  N1        -5.3980   -0.4970   16.2450 N.3   300  O48300      0.0391
      3  O1        -7.1440    1.2230   16.4020 O.3   300  O48300     -0.0529
      4  S1        -5.8020    0.9370   16.7630 S.3   300  O48300      0.0827
      5  C2        -5.4780    2.9970   13.9150 C.3   300  O48300      0.0347
      6  O2        -5.4290    1.0410   18.1290 O.3   300  O48300     -0.0529
      7  C3        -5.1300    4.4160   14.3470 C.3   300  O48300      0.0027
      8  O3        -4.8870    1.9950   16.0290 O.3   300  O48300     -0.2274
      9  C4        -3.8390    4.9640   13.7830 C.3   300  O48300      0.0001
     10  C5        -3.5370    6.3600   14.2650 C.3   300  O48300      0.0000
     11  C6        -2.2240    6.9060   13.7890 C.3   300  O48300      0.0000
     12  C7        -1.9070    8.2760   14.3350 C.3   300  O48300      0.0000
     13  C8        -0.5010    8.7210   14.0400 C.3   300  O48300      0.0000
     14  C9        -0.2680   10.2040   14.1970 C.3   300  O48300      0.0000
     15  C10        0.1650   10.6270   15.5670 C.3   300  O48300      0.0000
@<TRIPOS>BOND
     1     9    10    1
     2     9     7    1
     3    11    10    1
     4    11    12    1
     5     5     7    1
     6     5     1    1
     7    13    14    1
     8    13    12    1
     9    14    15    1
    10     1     8    1
    11     8     4    1
    12     2     4    1
    13     3     4    1
    14     4     6    1
