@<TRIPOS>MOLECULE
3ic0_HEM_A_1.pdb
 43 50 0 0 0
SMALL
GASTEIGER

@<TRIPOS>ATOM
      1 FE         37.9160   33.3320   16.5880 Fe    143  HEM143      0.0000
      2  CHA       37.1660   33.2680   13.1550 C.2   143  HEM143      0.0000
      3  CHB       34.5360   33.9130   17.3080 C.2   143  HEM143      0.0000
      4  CHC       38.5930   33.4780   19.8960 C.2   143  HEM143      0.0000
      5  CHD       41.3200   32.9760   15.8480 C.2   143  HEM143      0.0000
      6  NA        36.2430   33.6220   15.5060 N.2   143  HEM143      0.0000
      7  C1A       36.1190   33.6010   14.0970 C.2   143  HEM143      0.0000
      8  C2A       34.7230   33.7670   13.7060 C.2   143  HEM143      0.0000
      9  C3A       33.9870   33.9060   14.8180 C.2   143  HEM143      0.0000
     10  C4A       34.9300   33.8570   15.9470 C.2   143  HEM143      0.0000
     11  CMA       32.5090   34.2720   14.9370 C.3   143  HEM143      0.0000
     12  CAA       34.3500   34.3720   12.3730 C.3   143  HEM143      0.0000
     13  CBA       34.0570   33.4070   11.2820 C.3   143  HEM143      0.0000
     14  CGA       33.3280   34.0990   10.1300 C.2   143  HEM143      0.0000
     15  O1A       33.9500   34.8790    9.3560 O.co2 143  HEM143      0.0000
     16  O2A       32.1130   33.8730   10.0430 O.co2 143  HEM143      0.0000
     17  NB        36.8220   33.7070   18.2500 N.ar  143  HEM143      0.0000
     18  C1B       35.4670   33.9270   18.3840 C.ar  143  HEM143      0.0000
     19  C2B       35.0700   34.1140   19.7840 C.ar  143  HEM143      0.0000
     20  C3B       36.2230   33.8660   20.5320 C.ar  143  HEM143      0.0000
     21  C4B       37.2580   33.6200   19.5700 C.ar  143  HEM143      0.0000
     22  CMB       33.5770   34.1980   20.2680 C.3   143  HEM143      0.0000
     23  CAB       36.3980   33.7930   21.9390 C.3   143  HEM143      0.0000
     24  CBB       35.6010   34.4870   22.8660 C.3   143  HEM143      0.0000
     25  NC        39.6050   33.2250   17.6060 N.2   143  HEM143      0.0000
     26  C1C       39.7020   33.3710   18.9560 C.2   143  HEM143      0.0000
     27  C2C       41.0530   33.3770   19.3450 C.2   143  HEM143      0.0000
     28  C3C       41.7750   33.2450   18.2590 C.2   143  HEM143      0.0000
     29  C4C       40.8930   33.1080   17.1980 C.2   143  HEM143      0.0000
     30  CMC       41.6340   33.4610   20.8040 C.3   143  HEM143      0.0000
     31  CAC       43.2310   33.2690   18.1020 C.3   143  HEM143      0.0000
     32  CBC       44.2120   33.9700   18.8460 C.3   143  HEM143      0.0000
     33  ND        39.0050   33.1290   14.8680 N.ar  143  HEM143      0.0000
     34  C1D       40.3760   33.0060   14.7320 C.ar  143  HEM143      0.0000
     35  C2D       40.7640   32.9910   13.3500 C.ar  143  HEM143      0.0000
     36  C3D       39.6130   32.9500   12.6430 C.ar  143  HEM143      0.0000
     37  C4D       38.5140   33.0940   13.5110 C.ar  143  HEM143      0.0000
     38  CMD       42.1210   32.6480   12.8340 C.3   143  HEM143      0.0000
     39  CAD       39.5800   32.8050   11.1570 C.3   143  HEM143      0.0000
     40  CBD       39.9800   34.1740   10.5700 C.3   143  HEM143      0.0000
     41  CGD       40.1040   34.1310    9.0500 C.2   143  HEM143      0.0000
     42  O1D       41.0560   33.5090    8.5300 O.co2 143  HEM143      0.0000
     43  O2D       39.2240   34.7090    8.3920 O.co2 143  HEM143      0.0000
@<TRIPOS>BOND
     1    43    41   ar
     2    42    41   ar
     3    41    40    1
     4    15    14   ar
     5    16    14   ar
     6    14    13    1
     7    40    39    1
     8    39    36    1
     9    13    12    1
    10    12     8    1
    11    36    35   ar
    12    36    37   ar
    13    38    35    1
    14     2    37    2
    15     2     7    1
    16    35    34   ar
    17    37    33   ar
    18     8     7    1
    19     8     9    2
    20     7     6    2
    21    34    33   ar
    22    34     5    2
    23     9    11    1
    24     9    10    1
    25    33     1    1
    26     6    10    1
    27     6     1    1
    28     5    29    1
    29    10     3    2
    30     1    25    1
    31     1    17    1
    32    29    25    2
    33    29    28    1
    34     3    18    1
    35    25    26    1
    36    31    28    1
    37    31    32    1
    38    17    18   ar
    39    17    21   ar
    40    28    27    2
    41    18    19   ar
    42    26    27    1
    43    26     4    2
    44    27    30    1
    45    21     4    1
    46    21    20   ar
    47    19    22    1
    48    19    20   ar
    49    20    23    1
    50    23    24    1
