@<TRIPOS>MOLECULE
3ic0_B77_A_1.pdb
 17 18 0 0 0
SMALL
GASTEIGER

@<TRIPOS>ATOM
      1  C1        31.9240   28.0440   34.5380 C.3   144  B77144      0.0311
      2  C2        33.3640   27.8910   34.1610 C.ar  144  B77144     -0.0186
      3  C3        34.3730   28.0490   35.1420 C.ar  144  B77144      0.0358
      4  C4        35.7590   27.8780   34.7910 C.ar  144  B77144      0.1725
      5  C5        36.0990   27.5490   33.4590 C.ar  144  B77144      0.1724
      6  C6        35.0560   27.3920   32.4670 C.ar  144  B77144      0.0397
      7  C7        33.7140   27.5540   32.8150 C.ar  144  B77144     -0.0009
      8  O8        37.4720   27.3970   33.1560 O.3   144  B77144     -0.4684
      9  C9        37.8290   27.0580   31.7960 C.3   144  B77144      0.2526
     10  O10       36.8340   28.0090   35.7490 O.3   144  B77144     -0.4659
     11  C11       36.5650   28.7130   37.0070 C.3   144  B77144      0.2510
     12  C12       36.7470   30.2370   36.8280 C.ar  144  B77144      0.1027
     13  N13       36.5360   31.0480   37.8970 N.ar  144  B77144     -0.2445
     14  C14       36.6960   32.4130   37.8280 C.ar  144  B77144      0.0986
     15  C15       37.0880   33.0230   36.6170 C.ar  144  B77144      0.0207
     16  C16       37.3100   32.1920   35.4540 C.ar  144  B77144      0.0029
     17  C17       37.1410   30.8010   35.5570 C.ar  144  B77144      0.0185
@<TRIPOS>BOND
     1     9     8    1
     2     6     7   ar
     3     6     5   ar
     4     7     2   ar
     5     8     5    1
     6     5     4   ar
     7     2     1    1
     8     2     3   ar
     9     4     3   ar
    10     4    10    1
    11    16    17   ar
    12    16    15   ar
    13    17    12   ar
    14    10    11    1
    15    15    14   ar
    16    12    11    1
    17    12    13   ar
    18    14    13   ar
