@<TRIPOS>MOLECULE
3ic2_B78_A_1.pdb
 17 18 0 0 0
SMALL
GASTEIGER

@<TRIPOS>ATOM
      1  C1        31.5980   28.0710   34.5970 C.3   144  B78144      0.0342
      2  C2        32.9610   27.8850   33.9700 C.ar  144  B78144      0.0123
      3  C3        33.1450   27.2120   32.7240 C.ar  144  B78144      0.1380
      4  C4        34.4740   27.0780   32.1910 C.ar  144  B78144      0.0734
      5  C5        35.6030   27.5930   32.8970 C.ar  144  B78144      0.1417
      6  C6        35.3970   28.2570   34.1400 C.ar  144  B78144      0.0368
      7  C7        34.0830   28.3970   34.6740 C.ar  144  B78144      0.0018
      8  O8        36.9000   27.4520   32.3580 O.3   144  B78144     -0.4713
      9  C9        37.4850   26.1350   32.4150 C.3   144  B78144      0.2525
     10  O10       32.0110   26.7140   32.0520 O.3   144  B78144     -0.4709
     11  C11       32.1760   25.5250   31.2390 C.3   144  B78144      0.2321
     12  C12       30.8980   25.2370   30.4450 C.ar  144  B78144      0.0242
     13  C13       29.8860   26.2250   30.3250 C.ar  144  B78144      0.0200
     14  C14       28.7160   25.9230   29.5850 C.ar  144  B78144      0.0987
     15  N15       28.5720   24.6860   28.9920 N.ar  144  B78144     -0.2423
     16  C16       29.5370   23.7130   29.0940 C.ar  144  B78144      0.0987
     17  C17       30.7210   23.9670   29.8170 C.ar  144  B78144      0.0200
@<TRIPOS>BOND
     1    15    16   ar
     2    15    14   ar
     3    16    17   ar
     4    14    13   ar
     5    17    12   ar
     6    13    12   ar
     7    12    11    1
     8    11    10    1
     9    10     3    1
    10     4     3   ar
    11     4     5   ar
    12     8     9    1
    13     8     5    1
    14     3     2   ar
    15     5     6   ar
    16     2     1    1
    17     2     7   ar
    18     6     7   ar
