@<TRIPOS>MOLECULE
3ic2_HEM_A_1.pdb
 43 50 0 0 0
SMALL
GASTEIGER

@<TRIPOS>ATOM
      1 FE         37.2090   33.3870   16.5050 Fe    143  HEM143      0.0000
      2  CHA       36.3870   33.1970   13.1340 C.2   143  HEM143      0.0000
      3  CHB       33.9610   34.1070   17.3060 C.2   143  HEM143      0.0000
      4  CHC       38.1270   33.6570   19.8240 C.2   143  HEM143      0.0000
      5  CHD       40.5390   33.0210   15.6540 C.2   143  HEM143      0.0000
      6  NA        35.5130   33.5980   15.4390 N.2   143  HEM143      0.0000
      7  C1A       35.3420   33.4790   14.0500 C.2   143  HEM143      0.0000
      8  C2A       33.9640   33.8110   13.7000 C.2   143  HEM143      0.0000
      9  C3A       33.2820   34.0590   14.8420 C.2   143  HEM143      0.0000
     10  C4A       34.2550   33.9350   15.9400 C.2   143  HEM143      0.0000
     11  CMA       31.8000   34.4030   14.9640 C.3   143  HEM143      0.0000
     12  CAA       33.3810   34.0500   12.3300 C.3   143  HEM143      0.0000
     13  CBA       33.2510   32.7940   11.5090 C.3   143  HEM143      0.0000
     14  CGA       32.2860   32.9680   10.3570 C.2   143  HEM143      0.0000
     15  O1A       32.0240   31.9680    9.6440 O.co2 143  HEM143      0.0000
     16  O2A       31.7880   34.1050   10.1720 O.co2 143  HEM143      0.0000
     17  NB        36.2260   33.7600   18.2280 N.ar  143  HEM143      0.0000
     18  C1B       34.8610   34.0300   18.3670 C.ar  143  HEM143      0.0000
     19  C2B       34.5080   34.2450   19.7590 C.ar  143  HEM143      0.0000
     20  C3B       35.6710   34.1070   20.5100 C.ar  143  HEM143      0.0000
     21  C4B       36.7500   33.8000   19.5260 C.ar  143  HEM143      0.0000
     22  CMB       33.1010   34.5690   20.2520 C.3   143  HEM143      0.0000
     23  CAB       35.8480   34.2040   21.9080 C.3   143  HEM143      0.0000
     24  CBB       35.0360   34.9560   22.8450 C.3   143  HEM143      0.0000
     25  NC        38.9790   33.3480   17.5190 N.2   143  HEM143      0.0000
     26  C1C       39.1660   33.4570   18.8940 C.2   143  HEM143      0.0000
     27  C2C       40.6080   33.3990   19.2200 C.2   143  HEM143      0.0000
     28  C3C       41.2830   33.2640   18.0260 C.2   143  HEM143      0.0000
     29  C4C       40.2580   33.1950   16.9950 C.2   143  HEM143      0.0000
     30  CMC       41.2220   33.4310   20.6290 C.3   143  HEM143      0.0000
     31  CAC       42.6670   33.2090   17.7950 C.3   143  HEM143      0.0000
     32  CBC       43.6830   33.9810   18.4820 C.3   143  HEM143      0.0000
     33  ND        38.2490   33.2350   14.7720 N.ar  143  HEM143      0.0000
     34  C1D       39.6310   33.0780   14.6300 C.ar  143  HEM143      0.0000
     35  C2D       40.0040   32.9210   13.2470 C.ar  143  HEM143      0.0000
     36  C3D       38.8400   32.9330   12.5390 C.ar  143  HEM143      0.0000
     37  C4D       37.7420   33.1250   13.4730 C.ar  143  HEM143      0.0000
     38  CMD       41.4160   32.8470   12.6840 C.3   143  HEM143      0.0000
     39  CAD       38.7850   32.8040   11.0340 C.3   143  HEM143      0.0000
     40  CBD       39.0240   34.1110   10.2780 C.3   143  HEM143      0.0000
     41  CGD       39.3150   33.8770    8.8080 C.2   143  HEM143      0.0000
     42  O1D       40.3500   33.2490    8.4950 O.co2 143  HEM143      0.0000
     43  O2D       38.5060   34.3160    7.9640 O.co2 143  HEM143      0.0000
@<TRIPOS>BOND
     1    43    41   ar
     2    42    41   ar
     3    41    40    1
     4    15    14   ar
     5    16    14   ar
     6    40    39    1
     7    14    13    1
     8    39    36    1
     9    13    12    1
    10    12     8    1
    11    36    35   ar
    12    36    37   ar
    13    38    35    1
    14     2    37    2
    15     2     7    1
    16    35    34   ar
    17    37    33   ar
    18     8     7    1
    19     8     9    2
    20     7     6    2
    21    34    33   ar
    22    34     5    2
    23    33     1    1
    24     9    11    1
    25     9    10    1
    26     6    10    1
    27     6     1    1
    28     5    29    1
    29    10     3    2
    30     1    25    1
    31     1    17    1
    32    29    25    2
    33    29    28    1
    34     3    18    1
    35    25    26    1
    36    31    28    1
    37    31    32    1
    38    28    27    2
    39    17    18   ar
    40    17    21   ar
    41    18    19   ar
    42    26    27    1
    43    26     4    2
    44    27    30    1
    45    21     4    1
    46    21    20   ar
    47    19    22    1
    48    19    20   ar
    49    20    23    1
    50    23    24    1
