@<TRIPOS>MOLECULE
3ic3_BGC_B_1.pdb
 12 12 0 0 0
SMALL
GASTEIGER

@<TRIPOS>ATOM
      1  C2        17.2010   20.4980   44.4230 C.3    99  BGC99       0.2434
      2  C3        17.6940   21.6560   43.5830 C.3    99  BGC99       0.2199
      3  C4        17.1670   21.5950   42.1490 C.3    99  BGC99       0.2144
      4  C5        15.8110   20.8780   41.9470 C.3    99  BGC99       0.1836
      5  C6        15.7010   20.2300   40.5680 C.3    99  BGC99       0.2142
      6  C1        15.6930   20.3920   44.2650 C.3    99  BGC99       0.3024
      7  O1        15.1060   19.6180   45.3090 O.3    99  BGC99      -0.1869
      8  O2        17.5400   20.7670   45.7520 O.3    99  BGC99      -0.2148
      9  O3        19.1030   21.6900   43.6080 O.3    99  BGC99      -0.2174
     10  O4        17.1190   22.9250   41.6520 O.3    99  BGC99      -0.2176
     11  O5        15.4700   19.9040   42.9360 O.3    99  BGC99      -0.3236
     12  O6        15.8450   21.1790   39.5330 O.3    99  BGC99      -0.2176
@<TRIPOS>BOND
     1    12     5    1
     2     5     4    1
     3    10     3    1
     4     4     3    1
     5     4    11    1
     6     3     2    1
     7    11     6    1
     8     2     9    1
     9     2     1    1
    10     6     1    1
    11     6     7    1
    12     1     8    1
