@<TRIPOS>MOLECULE
3icc_NAP_A_1.pdb
 48 52 0 0 0
SMALL
GASTEIGER

@<TRIPOS>ATOM
      1  PA         6.5060   27.7460   51.2370 P.3   300  NAP300      0.2189
      2  O1A        6.0820   28.1750   52.6220 O.3   300  NAP300     -0.4371
      3  O2A        5.5100   27.7090   50.0950 O.2   300  NAP300     -0.5170
      4  O5B        7.2890   26.3470   51.3690 O.3   300  NAP300     -0.3112
      5  C5B        8.3310   26.2890   52.3470 C.3   300  NAP300      0.1813
      6  C4B        9.4580   25.3730   51.8850 C.3   300  NAP300      0.1820
      7  O4B       10.5480   25.4110   52.8140 O.3   300  NAP300     -0.3136
      8  C3B        8.9660   23.9380   51.8160 C.3   300  NAP300      0.2157
      9  O3B        9.2860   23.3500   50.5570 O.3   300  NAP300     -0.2175
     10  C2B        9.6530   23.2140   52.9600 C.3   300  NAP300      0.2314
     11  O2B       10.0450   21.8920   52.5780 O.3   300  NAP300     -0.2630
     12  C1B       10.8190   24.1100   53.3490 C.3   300  NAP300      0.3158
     13  N9A       10.9920   24.1640   54.8200 N.pl3 300  NAP300     -0.1439
     14  C8A       10.2770   24.8900   55.6890 C.3   300  NAP300      0.3377
     15  N7A       10.7420   24.6540   56.9340 N.2   300  NAP300     -0.2095
     16  C5A       11.7580   23.7720   56.8240 C.2   300  NAP300      0.2526
     17  C6A       12.6020   23.1690   57.7380 C.2   300  NAP300      0.4393
     18  N6A       12.4780   23.4490   59.0440 N.pl3 300  NAP300      0.2180
     19  N1A       13.5510   22.3010   57.3180 N.2   300  NAP300      0.0021
     20  C2A       13.6830   22.0230   56.0190 C.3   300  NAP300      0.5254
     21  N3A       12.8770   22.5900   55.1090 N.2   300  NAP300     -0.0055
     22  C4A       11.9120   23.4670   55.4910 C.2   300  NAP300      0.3518
     23  O3         7.6910   28.7400   50.8190 O.3   300  NAP300     -0.2703
     24  PN         7.3650   30.0120   49.9090 P.3   300  NAP300      0.2189
     25  O1N        6.2130   30.8050   50.5030 O.3   300  NAP300     -0.4371
     26  O2N        7.3100   29.5990   48.4540 O.2   300  NAP300     -0.5170
     27  O5D        8.7280   30.8420   50.1100 O.3   300  NAP300     -0.3112
     28  C5D        9.9060   30.1680   50.5660 C.3   300  NAP300      0.1813
     29  C4D       10.9360   31.2140   50.9870 C.3   300  NAP300      0.1799
     30  O4D       10.5750   32.4810   50.4350 O.3   300  NAP300     -0.3327
     31  C3D       10.9510   31.3840   52.4950 C.3   300  NAP300      0.2158
     32  O3D       12.2850   31.6350   52.9610 O.3   300  NAP300     -0.2175
     33  C2D       10.0290   32.5730   52.6830 C.3   300  NAP300      0.2309
     34  O2D       10.2090   33.2860   53.9100 O.3   300  NAP300     -0.2158
     35  C1D       10.3770   33.4210   51.4800 C.3   300  NAP300      0.2263
     36  N1N        9.3180   34.4040   51.2040 N.pl3 300  NAP300     -0.2787
     37  C2N        8.1010   34.0270   50.7990 C.3   300  NAP300      0.1244
     38  C3N        7.1330   34.9890   50.5680 C.2   300  NAP300      0.0544
     39  C7N        5.7790   34.5990   50.1000 C.2   300  NAP300      0.2818
     40  O7N        4.9800   35.4940   49.8420 O.2   300  NAP300     -0.2670
     41  N7N        5.5170   33.2980   49.9810 N.am  300  NAP300     -0.0839
     42  C4N        7.4070   36.3310   50.7450 C.2   300  NAP300      0.0033
     43  C5N        8.6600   36.6950   51.1790 C.2   300  NAP300      0.0157
     44  C6N        9.5990   35.6970   51.4000 C.2   300  NAP300      0.0633
     45  P2B        8.9600   20.7200   52.8000 P.3   300  NAP300      0.5328
     46  O1X        8.2360   20.6920   51.4920 O.2   300  NAP300     -0.2224
     47  O2X        9.7090   19.4350   53.0800 O.3   300  NAP300     -0.1145
     48  O3X        8.1340   21.2520   53.9500 O.3   300  NAP300     -0.1145
@<TRIPOS>BOND
     1    26    24    2
     2    40    39    2
     3    24    27    1
     4    24    25    1
     5    24    23    1
     6    41    39   am
     7     3     1    2
     8    39    38    1
     9    27    28    1
    10    30    29    1
    11    30    35    1
    12     9     8    1
    13    28    29    1
    14    38    42    2
    15    38    37    1
    16    42    43    1
    17    37    36    1
    18    23     1    1
    19    29    31    1
    20    43    44    2
    21    36    44    1
    22    36    35    1
    23     1     4    1
    24     1     2    1
    25     4     5    1
    26    35    33    1
    27    46    45    2
    28     8     6    1
    29     8    10    1
    30     6     5    1
    31     6     7    1
    32    31    33    1
    33    31    32    1
    34    11    45    1
    35    11    10    1
    36    33    34    1
    37    45    47    1
    38    45    48    1
    39     7    12    1
    40    10    12    1
    41    12    13    1
    42    13    22    1
    43    13    14    1
    44    21    22    2
    45    21    20    1
    46    22    16    1
    47    14    15    1
    48    20    19    1
    49    16    15    2
    50    16    17    1
    51    19    17    2
    52    17    18    1
