@<TRIPOS>MOLECULE
3ice_ADP_A_1.pdb
 27 29 0 0 0
SMALL
GASTEIGER

@<TRIPOS>ATOM
      1  PB       -22.2110    1.6300  -40.7620 P.3   1000  ADP1000     0.5373
      2  O1B      -21.8720    0.4720  -39.8710 O.3   1000  ADP1000    -0.1143
      3  O2B      -21.0050    2.4800  -41.1290 O.2   1000  ADP1000    -0.2221
      4  O3B      -23.4210    2.3900  -40.3460 O.3   1000  ADP1000    -0.1143
      5  PA       -23.7050    1.6160  -43.1830 P.3   1000  ADP1000     0.2231
      6  O1A      -23.9910    3.0220  -42.7610 O.3   1000  ADP1000    -0.4370
      7  O2A      -23.2170    1.3310  -44.5760 O.2   1000  ADP1000    -0.5169
      8  O3A      -22.6330    0.9570  -42.1630 O.3   1000  ADP1000    -0.2261
      9  O5'      -25.0110    0.7170  -42.9090 O.3   1000  ADP1000    -0.3111
     10  C5'      -24.9960   -0.6540  -43.2960 C.3   1000  ADP1000     0.1813
     11  C4'      -26.2230   -1.0390  -44.1080 C.3   1000  ADP1000     0.1821
     12  O4'      -27.3860   -0.2980  -43.7370 O.3   1000  ADP1000    -0.3135
     13  C3'      -25.9930   -0.7740  -45.5800 C.3   1000  ADP1000     0.2184
     14  O3'      -25.4850   -1.9330  -46.2540 O.3   1000  ADP1000    -0.2174
     15  C2'      -27.3480   -0.3720  -46.1140 C.3   1000  ADP1000     0.2570
     16  O2'      -27.9560   -1.4450  -46.8550 O.3   1000  ADP1000    -0.2130
     17  C1'      -28.1880   -0.0330  -44.8940 C.3   1000  ADP1000     0.3186
     18  N9       -28.5170    1.4110  -44.9520 N.pl3 1000  ADP1000    -0.1439
     19  C8       -28.0160    2.3430  -44.1170 C.3   1000  ADP1000     0.3377
     20  N7       -28.4860    3.5670  -44.4390 N.2   1000  ADP1000    -0.2095
     21  C5       -29.3150    3.4250  -45.4970 C.2   1000  ADP1000     0.2526
     22  C6       -30.1540    4.3180  -46.3330 C.2   1000  ADP1000     0.4393
     23  N6       -30.1930    5.6500  -46.0840 N.pl3 1000  ADP1000     0.2180
     24  N1       -30.8710    3.7600  -47.3390 N.2   1000  ADP1000     0.0021
     25  C2       -30.8360    2.4430  -47.5990 C.3   1000  ADP1000     0.5254
     26  N3       -30.1090    1.5770  -46.8800 N.2   1000  ADP1000    -0.0055
     27  C4       -29.3360    1.9970  -45.8320 C.2   1000  ADP1000     0.3518
@<TRIPOS>BOND
     1    25    24    1
     2    25    26    1
     3    24    22    2
     4    26    27    2
     5    16    15    1
     6    22    23    1
     7    22    21    1
     8    14    13    1
     9    15    13    1
    10    15    17    1
    11    27    21    1
    12    27    18    1
    13    13    11    1
    14    21    20    2
    15    18    17    1
    16    18    19    1
    17    17    12    1
    18     7     5    2
    19    20    19    1
    20    11    12    1
    21    11    10    1
    22    10     9    1
    23     5     9    1
    24     5     6    1
    25     5     8    1
    26     8     1    1
    27     3     1    2
    28     1     4    1
    29     1     2    1
