@<TRIPOS>MOLECULE
3ick_IPR_A_1.pdb
 14 13 0 0 0
SMALL
GASTEIGER

@<TRIPOS>ATOM
      1  P11        8.8280    9.3290  153.0580 P.3   900  IPR900      0.5373
      2  O14       10.0210    9.1960  153.9760 O.3   900  IPR900     -0.1143
      3  O12        8.7540    8.2100  152.0420 O.2   900  IPR900     -0.2221
      4  O13        7.5050    9.6270  153.7290 O.3   900  IPR900     -0.1143
      5  O10        9.1380   10.7190  152.2550 O.3   900  IPR900     -0.2261
      6  P7         9.7280   10.7800  150.7400 P.3   900  IPR900      0.2230
      7  O8        10.8940    9.8510  150.5900 O.3   900  IPR900     -0.4370
      8  O9         8.5730   10.5990  149.7700 O.2   900  IPR900     -0.5169
      9  O6        10.2630   12.2960  150.7090 O.3   900  IPR900     -0.3135
     10  C5         9.5070   13.2880  150.0380 C.3   900  IPR900      0.1535
     11  C4        10.5380   14.3600  149.8710 C.3   900  IPR900      0.0545
     12  C2        11.3220   14.2500  148.5850 C.2   900  IPR900     -0.0414
     13  C1        12.7870   13.9920  148.6870 C.3   900  IPR900      0.0264
     14  C3        10.7690   14.4280  147.3960 C.2   900  IPR900     -0.0090
@<TRIPOS>BOND
     1    14    12    2
     2    12    13    1
     3    12    11    1
     4     8     6    2
     5    11    10    1
     6    10     9    1
     7     7     6    1
     8     9     6    1
     9     6     5    1
    10     3     1    2
    11     5     1    1
    12     1     4    1
    13     1     2    1
