@<TRIPOS>MOLECULE
3ick_M0N_A_1.pdb
 20 21 0 0 0
SMALL
GASTEIGER

@<TRIPOS>ATOM
      1  O          9.6450   16.5860  148.8170 O.3   363  M0N363     -0.2104
      2  C9         8.7950   17.6810  149.1700 C.3   363  M0N363      0.2214
      3  C8         9.7660   17.7480  150.4450 C.3   363  M0N363      0.0904
      4  C2        11.3290   17.8530  150.3280 C.ar  363  M0N363      0.0652
      5  C1        12.0660   17.5130  149.2060 C.ar  363  M0N363      0.1137
      6  N1        13.3770   17.7110  149.4280 N.ar  363  M0N363     -0.2252
      7  C7        13.5380   18.1640  150.6560 C.ar  363  M0N363      0.1476
      8  C6        14.7300   18.5160  151.3170 C.ar  363  M0N363      0.0374
      9  C5        14.6710   18.9930  152.6390 C.ar  363  M0N363      0.0046
     10  C4        13.4020   19.0730  153.2520 C.ar  363  M0N363      0.0191
     11  C3        12.2420   18.6840  152.5210 C.ar  363  M0N363      0.0811
     12  N2        12.2990   18.2490  151.2240 N.ar  363  M0N363     -0.2924
     13  P1         9.0950   19.4120  148.8120 P.3   363  M0N363      0.1515
     14  O2        10.4930   19.5870  148.2340 O.3   363  M0N363     -0.3553
     15  O3         8.7570   20.2960  149.9970 O.3   363  M0N363     -0.3553
     16  O1         8.0770   19.4960  147.6940 O.2   363  M0N363     -0.4572
     17  P2         7.4080   17.3100  150.2710 P.3   363  M0N363      0.1515
     18  O5         7.6720   15.8720  150.6490 O.3   363  M0N363     -0.3553
     19  O6         7.0960   18.2810  151.3790 O.3   363  M0N363     -0.3553
     20  O4         6.4410   17.5350  149.1330 O.2   363  M0N363     -0.4572
@<TRIPOS>BOND
     1    16    13    2
     2    14    13    1
     3    13     2    1
     4    13    15    1
     5     1     2    1
     6    20    17    2
     7     2    17    1
     8     2     3    1
     9     5     6   ar
    10     5     4   ar
    11     6     7   ar
    12    17    18    1
    13    17    19    1
    14     4     3    1
    15     4    12   ar
    16     7    12   ar
    17     7     8   ar
    18    12    11   ar
    19     8     9   ar
    20    11    10   ar
    21     9    10   ar
