@<TRIPOS>MOLECULE
3icm_IPR_A_1.pdb
 14 13 0 0 0
SMALL
GASTEIGER

@<TRIPOS>ATOM
      1  P11        7.8880   10.4250  154.2940 P.3   900  IPR900      0.5373
      2  O14        9.0540   10.4670  155.2200 O.3   900  IPR900     -0.1143
      3  O12        7.9300    9.1650  153.4280 O.2   900  IPR900     -0.2221
      4  O13        6.5610   10.6090  154.9640 O.3   900  IPR900     -0.1143
      5  O10        8.0210   11.6590  153.2410 O.3   900  IPR900     -0.2261
      6  P7         8.7390   11.5840  151.7590 P.3   900  IPR900      0.2230
      7  O8         9.6600   10.3880  151.6350 O.3   900  IPR900     -0.4370
      8  O9         7.6660   11.7550  150.6800 O.2   900  IPR900     -0.5169
      9  O6         9.5810   12.9440  151.7180 O.3   900  IPR900     -0.3135
     10  C5         8.8140   14.1470  151.7620 C.3   900  IPR900      0.1535
     11  C4         9.7120   15.3400  151.4710 C.3   900  IPR900      0.0545
     12  C2        10.4030   15.3690  150.1100 C.2   900  IPR900     -0.0414
     13  C1        11.9080   15.3610  150.0700 C.3   900  IPR900      0.0264
     14  C3         9.7440   15.4830  148.9560 C.2   900  IPR900     -0.0090
@<TRIPOS>BOND
     1    14    12    2
     2    13    12    1
     3    12    11    1
     4     8     6    2
     5    11    10    1
     6     7     6    1
     7     9     6    1
     8     9    10    1
     9     6     5    1
    10     5     1    1
    11     3     1    2
    12     1     4    1
    13     1     2    1
