@<TRIPOS>MOLECULE
3icm_P2H_A_1.pdb
 23 24 0 0 0
SMALL
GASTEIGER

@<TRIPOS>ATOM
      1  C7         8.9420   19.3210  152.0110 C.3   363  P2H363      0.1359
      2  C8         7.9620   18.9170  150.9530 C.3   363  P2H363      0.2338
      3  P9         6.3330   18.4700  151.6650 P.3   363  P2H363      0.1528
      4  O10        6.3930   17.1280  152.3680 O.3   363  P2H363     -0.3552
      5  O11        5.8060   19.5990  152.5470 O.3   363  P2H363     -0.3552
      6  N12       10.3820   19.1260  151.8400 N.pl3 363  P2H363     -0.2995
      7  O12        5.5280   18.4320  150.4180 O.2   363  P2H363     -0.4572
      8  C13       11.0380   18.3970  150.8430 C.3   363  P2H363      0.1176
      9  O13        8.4010   17.9460  149.9720 O.3   363  P2H363     -0.2090
     10  C14       12.4300   18.5300  150.8520 C.2   363  P2H363     -0.0047
     11  P14        7.9700   20.5610  150.2010 P.3   363  P2H363      0.1528
     12  C15       13.0700   19.2870  151.8610 C.2   363  P2H363     -0.0016
     13  O15        7.4600   21.5180  151.2740 O.3   363  P2H363     -0.3552
     14  C16       12.3460   19.8930  152.9110 C.2   363  P2H363      0.0143
     15  O16        7.1000   20.4480  148.9560 O.2   363  P2H363     -0.4572
     16  C17       10.9750   19.8620  152.7890 C.2   363  P2H363      0.0616
     17  O17        9.4060   20.8680  149.8270 O.3   363  P2H363     -0.3552
     18  C18       12.9110   20.8100  153.9700 C.ar  363  P2H363      0.0012
     19  C19       14.2780   21.0150  154.1370 C.ar  363  P2H363      0.0000
     20  C20       14.7150   21.8610  155.1660 C.ar  363  P2H363      0.0000
     21  C21       13.8200   22.5480  156.0040 C.ar  363  P2H363      0.0000
     22  C22       12.4440   22.3860  155.8200 C.ar  363  P2H363      0.0000
     23  C23       12.0130   21.5280  154.8180 C.ar  363  P2H363      0.0000
@<TRIPOS>BOND
     1    15    11    2
     2    17    11    1
     3     9     2    1
     4    11     2    1
     5    11    13    1
     6     7     3    2
     7     8    10    1
     8     8     6    1
     9    10    12    2
    10     2     3    1
    11     2     1    1
    12     3     4    1
    13     3     5    1
    14     6     1    1
    15     6    16    1
    16    12    14    1
    17    16    14    2
    18    14    18    1
    19    18    19   ar
    20    18    23   ar
    21    19    20   ar
    22    23    22   ar
    23    20    21   ar
    24    22    21   ar
