@<TRIPOS>MOLECULE
3icn_NI9_A_1.pdb
 18 18 0 0 0
SMALL
GASTEIGER

@<TRIPOS>ATOM
      1  C1        11.2510   16.3240  175.4210 C.3   363  NI9363      0.2338
      2  O1        10.5740   14.0980  174.2270 O.3   363  NI9363     -0.3552
      3  O2        10.1990   16.0760  176.3300 O.3   363  NI9363     -0.2090
      4  C2        10.7420   17.0950  174.2200 C.3   363  NI9363      0.1360
      5  O3        12.9650   14.7780  174.0210 O.2   363  NI9363     -0.4572
      6  C3        10.5280   19.3260  173.4170 C.3   363  NI9363      0.1482
      7  P1        12.6090   17.1790  176.2980 P.3   363  NI9363      0.1528
      8  P2        11.7750   14.6490  174.9260 P.3   363  NI9363      0.1528
      9  O4        13.6790   17.0160  175.2550 O.2   363  NI9363     -0.4572
     10  O5        12.1170   14.0430  176.2870 O.3   363  NI9363     -0.3552
     11  O6        12.9210   16.2900  177.4610 O.3   363  NI9363     -0.3552
     12  O7        12.3040   18.6090  176.6790 O.3   363  NI9363     -0.3552
     13  N         10.3130   18.4990  174.4420 N.pl3 363  NI9363     -0.2976
     14  F         10.4220   21.4330  172.3520 F     363  NI9363     -0.2071
     15  C4         9.5300   21.1530  174.5600 C.2   363  NI9363      0.0282
     16  C5         9.7090   18.9550  175.5330 C.2   363  NI9363      0.0618
     17  C6         9.3190   20.2800  175.6090 C.2   363  NI9363      0.0178
     18  C7        10.1700   20.6660  173.4400 C.2   363  NI9363      0.1376
@<TRIPOS>BOND
     1    14    18    1
     2     6    18    1
     3     6    13    1
     4    18    15    2
     5     5     8    2
     6     4    13    1
     7     4     1    1
     8     2     8    1
     9    13    16    1
    10    15    17    1
    11     8     1    1
    12     8    10    1
    13     9     7    2
    14     1     7    1
    15     1     3    1
    16    16    17    2
    17     7    12    1
    18     7    11    1
