@<TRIPOS>MOLECULE
3icn_IPR_A_1.pdb
 14 13 0 0 0
SMALL
GASTEIGER

@<TRIPOS>ATOM
      1  P11        4.0830   11.8490  172.1640 P.3   900  IPR900      0.5373
      2  O14        3.2590   12.8490  171.3720 O.2   900  IPR900     -0.2221
      3  O12        3.2530   10.8390  172.9060 O.3   900  IPR900     -0.1143
      4  O13        5.2440   11.1500  171.4690 O.3   900  IPR900     -0.1143
      5  O10        4.9300   12.8980  173.0780 O.3   900  IPR900     -0.2261
      6  P7         4.7930   13.3440  174.6220 P.3   900  IPR900      0.2230
      7  O8         3.3800   13.7410  174.8820 O.2   900  IPR900     -0.5169
      8  O9         5.4100   12.2750  175.5000 O.3   900  IPR900     -0.4370
      9  O6         5.7600   14.6290  174.5150 O.3   900  IPR900     -0.3135
     10  C5         7.1580   14.5410  174.7950 C.3   900  IPR900      0.1535
     11  C4         7.6040   15.9790  175.0400 C.3   900  IPR900      0.0545
     12  C2         7.1680   16.6270  176.3530 C.2   900  IPR900     -0.0414
     13  C1         6.3380   17.8620  176.2900 C.3   900  IPR900      0.0264
     14  C3         7.5000   16.1780  177.5600 C.2   900  IPR900     -0.0090
@<TRIPOS>BOND
     1     2     1    2
     2     4     1    1
     3     1     3    1
     4     1     5    1
     5     5     6    1
     6     9     6    1
     7     9    10    1
     8     6     7    2
     9     6     8    1
    10    10    11    1
    11    11    12    1
    12    13    12    1
    13    12    14    2
