@<TRIPOS>MOLECULE
3icp_NAD_A_1.pdb
 44 48 0 0 0
SMALL
GASTEIGER

@<TRIPOS>ATOM
      1  PA         6.4560   14.1440   18.4310 P.3   901  NAD901      0.2189
      2  O1A        6.2620   14.3520   16.9790 O.2   901  NAD901     -0.5170
      3  O2A        5.2550   14.0060   19.2920 O.3   901  NAD901     -0.4371
      4  O5B        7.4000   12.8530   18.6260 O.3   901  NAD901     -0.3112
      5  C5B        7.4060   12.1290   19.8590 C.3   901  NAD901      0.1813
      6  C4B        7.2690   10.6330   19.5760 C.3   901  NAD901      0.1821
      7  O4B        7.3310    9.9230   20.8230 O.3   901  NAD901     -0.3135
      8  C3B        5.8920   10.3590   18.9550 C.3   901  NAD901      0.2184
      9  O3B        5.9780    9.4390   17.8620 O.3   901  NAD901     -0.2174
     10  C2B        5.1260    9.7430   20.1200 C.3   901  NAD901      0.2570
     11  O2B        4.1430    8.8180   19.6380 O.3   901  NAD901     -0.2130
     12  C1B        6.2550    8.9740   20.8050 C.3   901  NAD901      0.3186
     13  N9A        5.9000    8.6090   22.1910 N.pl3 901  NAD901     -0.1439
     14  C8A        5.3710    9.4290   23.1000 C.3   901  NAD901      0.3377
     15  N7A        5.1940    8.7700   24.2420 N.2   901  NAD901     -0.2095
     16  C5A        5.6040    7.5220   24.0640 C.2   901  NAD901      0.2526
     17  C6A        5.6290    6.3880   24.8660 C.2   901  NAD901      0.4393
     18  N6A        5.1490    6.4240   26.1050 N.pl3 901  NAD901      0.2180
     19  N1A        6.0930    5.2450   24.3540 N.2   901  NAD901      0.0021
     20  C2A        6.5240    5.1820   23.1000 C.3   901  NAD901      0.5254
     21  N3A        6.5090    6.2370   22.3130 N.2   901  NAD901     -0.0055
     22  C4A        6.0570    7.4160   22.7560 C.2   901  NAD901      0.3518
     23  O3         7.3290   15.3440   19.0680 O.3   901  NAD901     -0.2703
     24  PN         8.7310   15.8560   18.4540 P.3   901  NAD901      0.2189
     25  O1N        8.6330   17.3190   18.2210 O.3   901  NAD901     -0.4371
     26  O2N        9.1720   14.9890   17.3420 O.2   901  NAD901     -0.5170
     27  O5D        9.7430   15.6600   19.6950 O.3   901  NAD901     -0.3112
     28  C5D       10.6340   14.5430   19.7480 C.3   901  NAD901      0.1813
     29  C4D       11.6450   14.7160   20.8850 C.3   901  NAD901      0.1799
     30  O4D       12.2880   15.9840   20.6460 O.3   901  NAD901     -0.3327
     31  C3D       10.9380   14.8040   22.2390 C.3   901  NAD901      0.2158
     32  O3D       11.7510   14.2780   23.2900 O.3   901  NAD901     -0.2175
     33  C2D       10.7540   16.3130   22.4060 C.3   901  NAD901      0.2309
     34  O2D       10.7410   16.6710   23.7920 O.3   901  NAD901     -0.2158
     35  C1D       12.0580   16.8180   21.7930 C.3   901  NAD901      0.2263
     36  N1N       11.9850   18.2570   21.4370 N.pl3 901  NAD901     -0.2787
     37  C2N       11.3650   18.6630   20.2500 C.3   901  NAD901      0.1244
     38  C3N       11.2720   20.0220   19.9460 C.2   901  NAD901      0.0544
     39  C7N       10.6170   20.4770   18.6360 C.2   901  NAD901      0.2818
     40  O7N       10.0690   19.6740   17.8880 O.2   901  NAD901     -0.2670
     41  N7N       10.6900   21.7830   18.3910 N.am  901  NAD901     -0.0839
     42  C4N       11.7920   20.9680   20.8120 C.2   901  NAD901      0.0033
     43  C5N       12.4150   20.5680   21.9950 C.2   901  NAD901      0.0157
     44  C6N       12.5110   19.2190   22.3090 C.2   901  NAD901      0.0633
@<TRIPOS>BOND
     1     2     1    2
     2    26    24    2
     3     9     8    1
     4    40    39    2
     5    25    24    1
     6    41    39   am
     7     1     4    1
     8     1    23    1
     9     1     3    1
    10    24    23    1
    11    24    27    1
    12     4     5    1
    13    39    38    1
    14     8     6    1
    15     8    10    1
    16     6     5    1
    17     6     7    1
    18    11    10    1
    19    27    28    1
    20    28    29    1
    21    38    37    1
    22    38    42    2
    23    10    12    1
    24    37    36    1
    25    30    29    1
    26    30    35    1
    27    12     7    1
    28    12    13    1
    29    42    43    1
    30    29    31    1
    31    36    35    1
    32    36    44    1
    33    35    33    1
    34    43    44    2
    35    13    22    1
    36    13    14    1
    37    31    33    1
    38    31    32    1
    39    21    22    2
    40    21    20    1
    41    33    34    1
    42    22    16    1
    43    20    19    1
    44    14    15    1
    45    16    15    2
    46    16    17    1
    47    19    17    2
    48    17    18    1
