@<TRIPOS>MOLECULE
3icq_GTP_B_1.pdb
 32 34 0 0 0
SMALL
GASTEIGER

@<TRIPOS>ATOM
      1  PG       -20.6540   26.5020  -37.0480 P.3   250  GTP250      0.5373
      2  O1G      -20.4320   25.3390  -36.1840 O.3   250  GTP250     -0.1143
      3  O2G      -21.7080   27.5300  -36.3980 O.3   250  GTP250     -0.1143
      4  O3G      -21.2200   26.0240  -38.4600 O.2   250  GTP250     -0.2221
      5  O3B      -19.3080   27.2820  -37.2910 O.3   250  GTP250     -0.2258
      6  PB       -18.2480   26.2580  -37.9070 P.3   250  GTP250      0.2277
      7  O1B      -17.8310   25.2680  -36.9040 O.3   250  GTP250     -0.4368
      8  O2B      -18.8570   25.4730  -39.1830 O.2   250  GTP250     -0.5168
      9  O3A      -17.0130   27.2100  -38.2590 O.3   250  GTP250     -0.2700
     10  PA       -15.8410   26.4520  -39.0110 P.3   250  GTP250      0.2189
     11  O1A      -15.2230   25.4300  -38.1560 O.3   250  GTP250     -0.4371
     12  O2A      -16.3840   25.7750  -40.3600 O.2   250  GTP250     -0.5170
     13  O5'      -14.8230   27.6300  -39.3730 O.3   250  GTP250     -0.3112
     14  C5'      -13.7960   27.0840  -40.1580 C.3   250  GTP250      0.1813
     15  C4'      -12.8970   28.2100  -40.5820 C.3   250  GTP250      0.1799
     16  O4'      -12.3320   28.8420  -39.4330 O.3   250  GTP250     -0.3326
     17  C3'      -11.7840   27.6710  -41.4850 C.3   250  GTP250      0.2158
     18  O3'      -11.8830   28.2190  -42.7960 O.3   250  GTP250     -0.2175
     19  C2'      -10.4870   28.0400  -40.8150 C.3   250  GTP250      0.2310
     20  O2'       -9.6610   28.8520  -41.6750 O.3   250  GTP250     -0.2158
     21  C1'      -10.8980   28.7730  -39.5240 C.3   250  GTP250      0.2293
     22  N9       -10.3550   28.0690  -38.3880 N.pl3 250  GTP250     -0.2354
     23  C8       -10.9890   27.1600  -37.5840 C.3   250  GTP250      0.2246
     24  N7       -10.1700   26.7540  -36.6700 N.2   250  GTP250     -0.2322
     25  C5        -8.9690   27.3680  -36.8440 C.2   250  GTP250      0.2182
     26  C6        -7.7140   27.3450  -36.1700 C.1   250  GTP250      0.2372
     27  O6        -7.5430   26.6280  -35.2020 O.2   250  GTP250     -0.2069
     28  N1        -6.6970   28.1340  -36.6510 N.2   250  GTP250     -0.2485
     29  C2        -6.8870   28.9400  -37.7400 C.1   250  GTP250      0.2531
     30  N2        -5.8640   29.7160  -38.1960 N.pl3 250  GTP250     -0.0226
     31  N3        -8.0440   28.9720  -38.3590 N.2   250  GTP250     -0.3074
     32  C4        -9.0920   28.2220  -37.9430 C.2   250  GTP250      0.2300
@<TRIPOS>BOND
     1    18    17    1
     2    20    19    1
     3    17    19    1
     4    17    15    1
     5    19    21    1
     6    15    14    1
     7    15    16    1
     8    12    10    2
     9    14    13    1
    10    21    16    1
    11    21    22    1
    12    13    10    1
    13     8     6    2
    14    10     9    1
    15    10    11    1
    16     4     1    2
    17    22    32    1
    18    22    23    1
    19    31    32    2
    20    31    29    2
    21     9     6    1
    22    30    29    1
    23    32    25    1
    24     6     5    1
    25     6     7    1
    26    29    28    2
    27    23    24    1
    28     5     1    1
    29     1     3    1
    30     1     2    1
    31    25    24    2
    32    25    26    1
    33    28    26    2
    34    26    27    2
