@<TRIPOS>MOLECULE
3icr_COA_A_1.pdb
 48 50 0 0 0
SMALL
GASTEIGER

@<TRIPOS>ATOM
      1  N1A       31.1980   78.5640   40.4350 N.2   556  COA556      0.0021
      2  C2A       31.0080   79.6090   41.2700 C.3   556  COA556      0.5254
      3  N3A       30.6650   79.4100   42.5640 N.2   556  COA556     -0.0055
      4  C4A       30.5290   78.1420   43.0570 C.2   556  COA556      0.3518
      5  C5A       30.7030   77.0560   42.2050 C.2   556  COA556      0.2526
      6  C6A       31.0460   77.2870   40.8670 C.2   556  COA556      0.4393
      7  N6A       31.2440   76.2390   40.0230 N.pl3 556  COA556      0.2180
      8  N7A       30.4980   75.9330   42.9380 N.2   556  COA556     -0.2095
      9  C8A       30.1980   76.3080   44.2040 C.3   556  COA556      0.3377
     10  N9A       30.2090   77.6520   44.2660 N.pl3 556  COA556     -0.1439
     11  C1B       29.9750   78.4800   45.4720 C.3   556  COA556      0.3185
     12  C2B       28.5410   78.6370   45.8940 C.3   556  COA556      0.2543
     13  O2B       27.9690   79.7350   45.1940 O.3   556  COA556     -0.2131
     14  C3B       28.7030   78.9280   47.3700 C.3   556  COA556      0.1928
     15  O3B       29.0670   80.2890   47.5870 O.3   556  COA556     -0.2673
     16  P3B       28.3640   81.1760   48.7120 P.3   556  COA556      0.5327
     17  O7A       27.1030   81.6220   48.0210 O.2   556  COA556     -0.2224
     18  O8A       28.1160   80.2220   49.8630 O.3   556  COA556     -0.1145
     19  O9A       29.3730   82.2620   48.9800 O.3   556  COA556     -0.1145
     20  C4B       29.9150   78.1410   47.8030 C.3   556  COA556      0.1795
     21  O4B       30.6720   77.9400   46.6100 O.3   556  COA556     -0.3136
     22  C5B       29.5000   76.8130   48.4290 C.3   556  COA556      0.1812
     23  O5B       30.7030   76.2070   48.8810 O.3   556  COA556     -0.3112
     24  P1A       30.7370   74.8010   49.6570 P.3   556  COA556      0.2189
     25  O1A       29.5000   74.5280   50.4470 O.3   556  COA556     -0.4371
     26  O2A       31.2570   73.8100   48.6500 O.2   556  COA556     -0.5170
     27  O3A       31.9370   75.1370   50.6780 O.3   556  COA556     -0.2703
     28  P2A       31.9630   76.2780   51.8150 P.3   556  COA556      0.2188
     29  O4A       30.6380   76.9970   51.9530 O.3   556  COA556     -0.4371
     30  O5A       33.1970   77.1010   51.5830 O.2   556  COA556     -0.5170
     31  O6A       32.2250   75.3480   53.1100 O.3   556  COA556     -0.3138
     32  CBP       31.8370   73.1940   54.2840 C.3   556  COA556      0.0645
     33  CCP       31.2380   74.4040   53.5550 C.3   556  COA556      0.1519
     34  CDP       32.4030   72.2270   53.2430 C.3   556  COA556      0.0056
     35  CEP       32.9490   73.7130   55.1900 C.3   556  COA556      0.0056
     36  CAP       30.7390   72.5270   55.1370 C.3   556  COA556      0.2312
     37  OAP       29.5710   72.2640   54.3350 O.3   556  COA556     -0.2131
     38  C9P       31.1890   71.2610   55.8500 C.2   556  COA556      0.2719
     39  O9P       32.0120   71.3300   56.7600 O.2   556  COA556     -0.2706
     40  N8P       30.6400   70.1030   55.4580 N.am  556  COA556     -0.2028
     41  C7P       30.8690   68.7250   55.9360 C.3   556  COA556      0.1248
     42  C6P       30.1800   68.5320   57.2990 C.3   556  COA556      0.1102
     43  C5P       28.6940   68.2010   57.2280 C.2   556  COA556      0.2432
     44  O5P       27.9550   68.7710   56.4410 O.2   556  COA556     -0.2733
     45  N4P       28.2570   67.2710   58.0910 N.am  556  COA556     -0.2044
     46  C3P       26.8990   66.7740   58.2830 C.3   556  COA556      0.1276
     47  C2P       26.9550   65.2630   58.1790 C.3   556  COA556      0.0920
     48  S1P       27.0160   64.8370   56.4220 S.3   556  COA556     -0.0802
@<TRIPOS>BOND
     1     7     6    1
     2     1     6    2
     3     1     2    1
     4     6     5    1
     5     2     3    1
     6     5     8    2
     7     5     4    1
     8     3     4    2
     9     8     9    1
    10     4    10    1
    11     9    10    1
    12    10    11    1
    13    13    12    1
    14    11    12    1
    15    11    21    1
    16    12    14    1
    17    21    20    1
    18    14    15    1
    19    14    20    1
    20    15    16    1
    21    20    22    1
    22    17    16    2
    23    22    23    1
    24    26    24    2
    25    16    19    1
    26    16    18    1
    27    23    24    1
    28    24    25    1
    29    24    27    1
    30    27    28    1
    31    30    28    2
    32    28    29    1
    33    28    31    1
    34    31    33    1
    35    34    32    1
    36    33    32    1
    37    32    36    1
    38    32    35    1
    39    37    36    1
    40    36    38    1
    41    40    38   am
    42    40    41    1
    43    38    39    2
    44    41    42    1
    45    48    47    1
    46    44    43    2
    47    43    42    1
    48    43    45   am
    49    45    46    1
    50    47    46    1
