@<TRIPOS>MOLECULE
3ics_COA_A_1.pdb
 48 50 0 0 0
SMALL
GASTEIGER

@<TRIPOS>ATOM
      1  N1A       30.9380   78.5410   40.3800 N.2   556  COA556      0.0021
      2  C2A       30.7480   79.5790   41.2040 C.3   556  COA556      0.5254
      3  N3A       30.3860   79.3870   42.4810 N.2   556  COA556     -0.0055
      4  C4A       30.2290   78.1250   42.9630 C.2   556  COA556      0.3518
      5  C5A       30.3950   77.0340   42.1210 C.2   556  COA556      0.2526
      6  C6A       30.7760   77.2660   40.8030 C.2   556  COA556      0.4393
      7  N6A       30.9880   76.2400   39.9380 N.pl3 556  COA556      0.2180
      8  N7A       30.1650   75.9170   42.8590 N.2   556  COA556     -0.2095
      9  C8A       29.8350   76.3170   44.1100 C.3   556  COA556      0.3377
     10  N9A       29.8670   77.6670   44.1540 N.pl3 556  COA556     -0.1439
     11  C1B       29.6280   78.5400   45.3350 C.3   556  COA556      0.3185
     12  C2B       28.2000   78.6480   45.8310 C.3   556  COA556      0.2543
     13  O2B       27.5630   79.7390   45.1750 O.3   556  COA556     -0.2131
     14  C3B       28.3970   78.9120   47.3130 C.3   556  COA556      0.1928
     15  O3B       28.7170   80.2840   47.5610 O.3   556  COA556     -0.2673
     16  P3B       28.0410   81.1650   48.7050 P.3   556  COA556      0.5327
     17  O7A       26.7950   81.6740   48.0180 O.2   556  COA556     -0.2224
     18  O8A       27.8160   80.2410   49.8790 O.3   556  COA556     -0.1145
     19  O9A       29.0350   82.2760   48.9470 O.3   556  COA556     -0.1145
     20  C4B       29.6520   78.1570   47.6730 C.3   556  COA556      0.1795
     21  O4B       30.4060   78.0620   46.4500 O.3   556  COA556     -0.3136
     22  C5B       29.2670   76.7860   48.2300 C.3   556  COA556      0.1812
     23  O5B       30.4510   76.1440   48.6820 O.3   556  COA556     -0.3112
     24  P1A       30.4330   74.8190   49.5880 P.3   556  COA556      0.2189
     25  O1A       29.1920   74.6820   50.4110 O.3   556  COA556     -0.4371
     26  O2A       30.8830   73.6850   48.7060 O.2   556  COA556     -0.5170
     27  O3A       31.6740   75.1720   50.5600 O.3   556  COA556     -0.2703
     28  P2A       31.6810   76.2830   51.7290 P.3   556  COA556      0.2188
     29  O4A       30.3470   76.9500   51.9140 O.3   556  COA556     -0.4371
     30  O5A       32.9040   77.1410   51.5410 O.2   556  COA556     -0.5170
     31  O6A       31.9530   75.3570   53.0220 O.3   556  COA556     -0.3138
     32  CBP       31.6100   73.1650   54.1170 C.3   556  COA556      0.0645
     33  CCP       30.9840   74.3860   53.4290 C.3   556  COA556      0.1519
     34  CDP       32.1020   72.1860   53.0520 C.3   556  COA556      0.0056
     35  CEP       32.7820   73.6510   54.9570 C.3   556  COA556      0.0056
     36  CAP       30.5240   72.5360   55.0080 C.3   556  COA556      0.2312
     37  OAP       29.3370   72.3250   54.2230 O.3   556  COA556     -0.2131
     38  C9P       30.9470   71.2540   55.7050 C.2   556  COA556      0.2719
     39  O9P       31.8020   71.2890   56.5790 O.2   556  COA556     -0.2706
     40  N8P       30.3490   70.1100   55.3530 N.am  556  COA556     -0.2028
     41  C7P       30.5840   68.7530   55.8710 C.3   556  COA556      0.1248
     42  C6P       29.8950   68.6240   57.2360 C.3   556  COA556      0.1102
     43  C5P       28.4140   68.2740   57.1380 C.2   556  COA556      0.2432
     44  O5P       27.6600   68.8370   56.3500 O.2   556  COA556     -0.2733
     45  N4P       27.9840   67.3300   57.9780 N.am  556  COA556     -0.2044
     46  C3P       26.6190   66.8300   58.1180 C.3   556  COA556      0.1276
     47  C2P       26.6680   65.3270   57.9140 C.3   556  COA556      0.0920
     48  S1P       27.2410   64.9710   56.2330 S.3   556  COA556     -0.0802
@<TRIPOS>BOND
     1     7     6    1
     2     1     6    2
     3     1     2    1
     4     6     5    1
     5     2     3    1
     6     5     8    2
     7     5     4    1
     8     3     4    2
     9     8     9    1
    10     4    10    1
    11     9    10    1
    12    10    11    1
    13    13    12    1
    14    11    12    1
    15    11    21    1
    16    12    14    1
    17    21    20    1
    18    14    15    1
    19    14    20    1
    20    15    16    1
    21    20    22    1
    22    17    16    2
    23    22    23    1
    24    23    24    1
    25    16    19    1
    26    16    18    1
    27    26    24    2
    28    24    25    1
    29    24    27    1
    30    27    28    1
    31    30    28    2
    32    28    29    1
    33    28    31    1
    34    31    33    1
    35    34    32    1
    36    33    32    1
    37    32    35    1
    38    32    36    1
    39    37    36    1
    40    36    38    1
    41    40    38   am
    42    40    41    1
    43    38    39    2
    44    41    42    1
    45    48    47    1
    46    44    43    2
    47    43    42    1
    48    43    45   am
    49    47    46    1
    50    45    46    1
