@<TRIPOS>MOLECULE
3ics_ADP_B_1.pdb
 27 29 0 0 0
SMALL
GASTEIGER

@<TRIPOS>ATOM
      1  PB        13.6630   65.5480   15.3810 P.3   600  ADP600      0.5373
      2  O1B       13.2740   64.7510   14.1500 O.2   600  ADP600     -0.2221
      3  O2B       12.4870   65.9640   16.2420 O.3   600  ADP600     -0.1143
      4  O3B       14.8140   64.9630   16.1610 O.3   600  ADP600     -0.1143
      5  PA        14.8070   68.1510   15.6970 P.3   600  ADP600      0.2231
      6  O1A       14.8180   67.6540   17.1230 O.3   600  ADP600     -0.4370
      7  O2A       14.0620   69.4160   15.3500 O.2   600  ADP600     -0.5169
      8  O3A       14.2710   66.9260   14.7880 O.3   600  ADP600     -0.2261
      9  O5'       16.3130   68.3490   15.1760 O.3   600  ADP600     -0.3111
     10  C5'       16.6270   68.1920   13.7940 C.3   600  ADP600      0.1813
     11  C4'       18.0910   68.5050   13.5120 C.3   600  ADP600      0.1821
     12  O4'       18.3380   68.4280   12.1110 O.3   600  ADP600     -0.3135
     13  C3'       18.5040   69.9110   13.9210 C.3   600  ADP600      0.2184
     14  O3'       19.6990   69.7830   14.6950 O.3   600  ADP600     -0.2174
     15  C2'       18.7650   70.6600   12.6230 C.3   600  ADP600      0.2570
     16  O2'       19.7990   71.6480   12.7010 O.3   600  ADP600     -0.2130
     17  C1'       19.1630   69.5230   11.7040 C.3   600  ADP600      0.3186
     18  N9        18.9450   69.7850   10.2600 N.pl3 600  ADP600     -0.1439
     19  C8        17.9250   70.4730    9.6960 C.3   600  ADP600      0.3377
     20  N7        18.0400   70.4950    8.3430 N.2   600  ADP600     -0.2095
     21  C5        19.1520   69.7960    8.0300 C.2   600  ADP600      0.2526
     22  C6        19.8630   69.4200    6.7850 C.2   600  ADP600      0.4393
     23  N6        19.3760   69.8180    5.5790 N.pl3 600  ADP600      0.2180
     24  N1        21.0040   68.6820    6.8980 N.2   600  ADP600      0.0021
     25  C2        21.4930   68.2870    8.0940 C.3   600  ADP600      0.5254
     26  N3        20.8980   68.5940    9.2680 N.2   600  ADP600     -0.0055
     27  C4        19.7510   69.3300    9.2970 C.2   600  ADP600      0.3518
@<TRIPOS>BOND
     1    23    22    1
     2    22    24    2
     3    22    21    1
     4    24    25    1
     5    21    20    2
     6    21    27    1
     7    25    26    1
     8    20    19    1
     9    26    27    2
    10    27    18    1
    11    19    18    1
    12    18    17    1
    13    17    12    1
    14    17    15    1
    15    12    11    1
    16    15    16    1
    17    15    13    1
    18    11    10    1
    19    11    13    1
    20    10     9    1
    21    13    14    1
    22     2     1    2
    23     8     1    1
    24     8     5    1
    25     9     5    1
    26     7     5    2
    27     1     4    1
    28     1     3    1
    29     5     6    1
