@<TRIPOS>MOLECULE
3ict_ADP_B_1.pdb
 27 29 0 0 0
SMALL
GASTEIGER

@<TRIPOS>ATOM
      1  PB        13.8850   65.9500   15.5760 P.3   600  ADP600      0.5373
      2  O1B       15.1500   65.3550   15.0090 O.3   600  ADP600     -0.1143
      3  O2B       12.6300   65.3440   14.9930 O.2   600  ADP600     -0.2221
      4  O3B       13.8920   66.0660   17.0840 O.3   600  ADP600     -0.1143
      5  PA        14.9240   68.6160   15.5380 P.3   600  ADP600      0.2231
      6  O1A       15.2040   68.4170   17.0100 O.3   600  ADP600     -0.4370
      7  O2A       14.5190   69.9870   15.0470 O.2   600  ADP600     -0.5169
      8  O3A       13.8400   67.4970   15.0920 O.3   600  ADP600     -0.2261
      9  O5'       16.2310   68.1330   14.7250 O.3   600  ADP600     -0.3111
     10  C5'       16.5210   68.5460   13.3990 C.3   600  ADP600      0.1813
     11  C4'       18.0290   68.7050   13.2600 C.3   600  ADP600      0.1821
     12  O4'       18.4160   68.5450   11.8940 O.3   600  ADP600     -0.3135
     13  C3'       18.4640   70.1000   13.6650 C.3   600  ADP600      0.2184
     14  O3'       19.6590   69.9830   14.4420 O.3   600  ADP600     -0.2174
     15  C2'       18.7460   70.8190   12.3580 C.3   600  ADP600      0.2570
     16  O2'       19.7700   71.8080   12.5110 O.3   600  ADP600     -0.2130
     17  C1'       19.1840   69.6710   11.4610 C.3   600  ADP600      0.3186
     18  N9        19.0020   69.8980   10.0040 N.pl3 600  ADP600     -0.1439
     19  C8        18.0270   70.5950    9.3830 C.3   600  ADP600      0.3377
     20  N7        18.1870   70.5730    8.0320 N.2   600  ADP600     -0.2095
     21  C5        19.2840   69.8380    7.7760 C.2   600  ADP600      0.2526
     22  C6        20.0340   69.4080    6.5680 C.2   600  ADP600      0.4393
     23  N6        19.6140   69.7710    5.3330 N.pl3 600  ADP600      0.2180
     24  N1        21.1440   68.6400    6.7420 N.2   600  ADP600      0.0021
     25  C2        21.5730   68.2730    7.9650 C.3   600  ADP600      0.5254
     26  N3        20.9430   68.6350    9.1010 N.2   600  ADP600     -0.0055
     27  C4        19.8190   69.3970    9.0750 C.2   600  ADP600      0.3518
@<TRIPOS>BOND
     1    23    22    1
     2    22    24    2
     3    22    21    1
     4    24    25    1
     5    21    20    2
     6    21    27    1
     7    25    26    1
     8    20    19    1
     9    27    26    2
    10    27    18    1
    11    19    18    1
    12    18    17    1
    13    17    12    1
    14    17    15    1
    15    12    11    1
    16    15    16    1
    17    15    13    1
    18    11    10    1
    19    11    13    1
    20    10     9    1
    21    13    14    1
    22     9     5    1
    23     3     1    2
    24     2     1    1
    25     7     5    2
    26     8     5    1
    27     8     1    1
    28     5     6    1
    29     1     4    1
