@<TRIPOS>MOLECULE
3ict_COA_A_1.pdb
 48 50 0 0 0
SMALL
GASTEIGER

@<TRIPOS>ATOM
      1  N1A       31.0700   79.0260   40.4440 N.2   556  COA556      0.0021
      2  C2A       30.9740   80.0240   41.3250 C.3   556  COA556      0.5254
      3  N3A       30.6900   79.7750   42.6060 N.2   556  COA556     -0.0055
      4  C4A       30.5030   78.5060   43.0190 C.2   556  COA556      0.3518
      5  C5A       30.5910   77.4550   42.1350 C.2   556  COA556      0.2526
      6  C6A       30.8960   77.7370   40.8060 C.2   556  COA556      0.4393
      7  N6A       31.0160   76.7420   39.8870 N.pl3 556  COA556      0.2180
      8  N7A       30.3470   76.3120   42.8230 N.2   556  COA556     -0.2095
      9  C8A       30.1260   76.6630   44.1120 C.3   556  COA556      0.3377
     10  N9A       30.2110   78.0020   44.2080 N.pl3 556  COA556     -0.1439
     11  C1B       30.0540   78.8290   45.4180 C.3   556  COA556      0.3185
     12  C2B       28.6830   78.8010   46.0630 C.3   556  COA556      0.2543
     13  O2B       27.9330   79.8870   45.5530 O.3   556  COA556     -0.2131
     14  C3B       29.0120   79.0330   47.5260 C.3   556  COA556      0.1928
     15  O3B       29.3760   80.3740   47.8950 O.3   556  COA556     -0.2673
     16  P3B       28.4640   81.2740   48.8280 P.3   556  COA556      0.5327
     17  O7A       27.2890   81.6200   47.9600 O.2   556  COA556     -0.2224
     18  O8A       28.1100   80.3810   49.9780 O.3   556  COA556     -0.1145
     19  O9A       29.2930   82.4820   49.1380 O.3   556  COA556     -0.1145
     20  C4B       30.3030   78.3030   47.6800 C.3   556  COA556      0.1795
     21  O4B       30.9650   78.3690   46.4200 O.3   556  COA556     -0.3136
     22  C5B       29.9060   76.8830   47.9950 C.3   556  COA556      0.1812
     23  O5B       31.1110   76.2690   48.3930 O.3   556  COA556     -0.3112
     24  P1A       31.0240   74.9930   49.3480 P.3   556  COA556      0.2189
     25  O1A       29.6250   74.7890   49.8680 O.3   556  COA556     -0.4371
     26  O2A       31.7240   73.9710   48.4850 O.2   556  COA556     -0.5170
     27  O3A       31.9930   75.3520   50.5630 O.3   556  COA556     -0.2703
     28  P2A       31.8710   76.4690   51.7120 P.3   556  COA556      0.2188
     29  O4A       30.4660   77.0000   51.8980 O.3   556  COA556     -0.4371
     30  O5A       33.0420   77.3710   51.4930 O.2   556  COA556     -0.5170
     31  O6A       32.2340   75.5700   52.9920 O.3   556  COA556     -0.3138
     32  CBP       32.0770   73.3510   54.0640 C.3   556  COA556      0.0645
     33  CCP       31.3620   74.5030   53.3570 C.3   556  COA556      0.1519
     34  CDP       32.4970   72.3150   53.0150 C.3   556  COA556      0.0056
     35  CEP       33.3150   73.8820   54.7900 C.3   556  COA556      0.0056
     36  CAP       31.0640   72.7890   55.0750 C.3   556  COA556      0.2312
     37  OAP       29.7540   72.7200   54.4810 O.3   556  COA556     -0.2131
     38  C9P       31.4490   71.4440   55.6500 C.2   556  COA556      0.2719
     39  O9P       32.3960   71.3730   56.4200 O.2   556  COA556     -0.2706
     40  N8P       30.7090   70.3810   55.2990 N.am  556  COA556     -0.2028
     41  C7P       30.8550   68.9850   55.7070 C.3   556  COA556      0.1248
     42  C6P       30.2290   68.9150   57.0960 C.3   556  COA556      0.1102
     43  C5P       28.7700   68.5070   57.0460 C.2   556  COA556      0.2432
     44  O5P       27.9890   68.9580   56.2060 O.2   556  COA556     -0.2733
     45  N4P       28.4230   67.6310   57.9970 N.am  556  COA556     -0.2044
     46  C3P       27.1190   67.0360   58.2610 C.3   556  COA556      0.1276
     47  C2P       27.2300   65.5850   57.8340 C.3   556  COA556      0.0920
     48  S1P       27.7660   65.4810   56.1110 S.3   556  COA556     -0.0802
@<TRIPOS>BOND
     1     7     6    1
     2     1     6    2
     3     1     2    1
     4     6     5    1
     5     2     3    1
     6     5     8    2
     7     5     4    1
     8     3     4    2
     9     8     9    1
    10     4    10    1
    11     9    10    1
    12    10    11    1
    13    11    12    1
    14    11    21    1
    15    13    12    1
    16    12    14    1
    17    21    20    1
    18    14    20    1
    19    14    15    1
    20    20    22    1
    21    15    16    1
    22    17    16    2
    23    22    23    1
    24    23    24    1
    25    26    24    2
    26    16    19    1
    27    16    18    1
    28    24    25    1
    29    24    27    1
    30    27    28    1
    31    30    28    2
    32    28    29    1
    33    28    31    1
    34    31    33    1
    35    34    32    1
    36    33    32    1
    37    32    35    1
    38    32    36    1
    39    37    36    1
    40    36    38    1
    41    40    38   am
    42    40    41    1
    43    38    39    2
    44    41    42    1
    45    48    47    1
    46    44    43    2
    47    43    42    1
    48    43    45   am
    49    47    46    1
    50    45    46    1
