@<TRIPOS>MOLECULE
3icw_MHH_A_1.pdb
 10 9 0 0 0
SMALL
GASTEIGER

@<TRIPOS>ATOM
      1  C1        40.0530  166.1650   47.2950 C.3   900  MHH900      0.0809
      2  C2        40.2880  166.5390   48.7680 C.3   900  MHH900      0.0095
      3  C3        39.5150  165.7400   49.7830 C.3   900  MHH900      0.0005
      4  C7        43.7370  168.5200   46.2500 C.3   900  MHH900      0.1810
      5  P         41.1380  167.3790   46.3160 P.3   900  MHH900      0.2201
      6  O1        42.7750  167.6000   46.5170 O.3   900  MHH900     -0.3146
      7  O2        40.4440  168.6760   46.4660 O.3   900  MHH900     -0.1774
      8  C4        39.8310  166.1870   51.2010 C.3   900  MHH900      0.0000
      9  C5        39.8610  164.9450   52.0950 C.3   900  MHH900      0.0000
     10  C6        41.2960  164.3970   52.2630 C.3   900  MHH900      0.0000
@<TRIPOS>BOND
     1     4     6    1
     2     5     7    1
     3     5     6    1
     4     5     1    1
     5     1     2    1
     6     2     3    1
     7     3     8    1
     8     8     9    1
     9     9    10    1
