@<TRIPOS>MOLECULE
3icz_PB6_A_1.pdb
 20 20 0 0 0
SMALL
GASTEIGER

@<TRIPOS>ATOM
      1  C7         9.4900   18.3870  151.5780 C.3   363  PB6363      0.1056
      2  C8         8.6520   18.3720  150.2750 C.3   363  PB6363      0.1236
      3  P9         6.9790   17.8740  150.7970 P.3   363  PB6363      0.1253
      4  O10        7.0900   16.5180  151.4310 O.3   363  PB6363     -0.3568
      5  O11        6.5170   18.9510  151.6920 O.3   363  PB6363     -0.3568
      6  N12       10.9600   18.6360  151.3560 N.pl3 363  PB6363     -0.3017
      7  O12        6.1450   17.7760  149.5330 O.2   363  PB6363     -0.4596
      8  C13       11.6750   18.2740  150.2400 C.3   363  PB6363      0.1175
      9  C14       13.0420   18.6180  150.1680 C.2   363  PB6363     -0.0047
     10  P14        8.6500   19.9960  149.4300 P.3   363  PB6363      0.1253
     11  C15       13.6680   19.3250  151.2360 C.2   363  PB6363     -0.0016
     12  O15        8.3260   21.0000  150.5130 O.3   363  PB6363     -0.3568
     13  C16       12.8920   19.6720  152.3700 C.2   363  PB6363      0.0140
     14  O16        7.7390   19.8270  148.2130 O.2   363  PB6363     -0.4596
     15  C17       11.5490   19.3230  152.3410 C.2   363  PB6363      0.0615
     16  O17       10.0440   20.3360  148.9800 O.3   363  PB6363     -0.3568
     17  C18       13.3180   20.4560  153.5840 C.2   363  PB6363     -0.0033
     18  C19       14.5640   20.8910  153.7190 C.2   363  PB6363     -0.0261
     19  C20       15.1230   21.6840  154.8970 C.3   363  PB6363      0.0260
     20  C21       14.0860   22.0170  155.9480 C.3   363  PB6363      0.0050
@<TRIPOS>BOND
     1    14    10    2
     2    16    10    1
     3    10     2    1
     4    10    12    1
     5     7     3    2
     6     9     8    1
     7     9    11    2
     8     8     6    1
     9     2     3    1
    10     2     1    1
    11     3     4    1
    12     3     5    1
    13    11    13    1
    14     6     1    1
    15     6    15    1
    16    15    13    2
    17    13    17    1
    18    17    18    2
    19    18    19    1
    20    19    20    1
