@<TRIPOS>MOLECULE
3icz_IPR_A_1.pdb
 14 13 0 0 0
SMALL
GASTEIGER

@<TRIPOS>ATOM
      1  P11        8.5610    9.7850  153.4560 P.3   900  IPR900      0.5373
      2  O14        9.7470    9.8830  154.4160 O.3   900  IPR900     -0.1143
      3  O12        8.4980    8.5660  152.6490 O.2   900  IPR900     -0.2221
      4  O13        7.2120   10.0710  154.0550 O.3   900  IPR900     -0.1143
      5  O10        8.6600   11.0750  152.4840 O.3   900  IPR900     -0.2261
      6  P7         9.2990   11.2040  150.9840 P.3   900  IPR900      0.2230
      7  O8        10.3800   10.1410  150.8710 O.3   900  IPR900     -0.4370
      8  O9         8.1680   11.2750  150.0260 O.2   900  IPR900     -0.5169
      9  O6        10.0180   12.6580  150.9820 O.3   900  IPR900     -0.3135
     10  C5         9.2190   13.8190  151.1580 C.3   900  IPR900      0.1535
     11  C4        10.0950   15.0510  150.8960 C.3   900  IPR900      0.0545
     12  C2        10.7030   15.0600  149.5010 C.2   900  IPR900     -0.0414
     13  C1        12.2080   15.0630  149.4430 C.3   900  IPR900      0.0264
     14  C3         9.9770   15.0620  148.3710 C.2   900  IPR900     -0.0090
@<TRIPOS>BOND
     1    14    12    2
     2    13    12    1
     3    12    11    1
     4     8     6    2
     5     7     6    1
     6    11    10    1
     7     9     6    1
     8     9    10    1
     9     6     5    1
    10     5     1    1
    11     3     1    2
    12     1     4    1
    13     1     2    1
