@<TRIPOS>MOLECULE
3id0_NI9_A_1.pdb
 18 18 0 0 0
SMALL
GASTEIGER

@<TRIPOS>ATOM
      1  C1        11.3500   16.5280  175.6810 C.3   363  NI9363      0.2338
      2  O1        10.3260   14.1130  175.2660 O.3   363  NI9363     -0.3552
      3  O2        10.4830   16.6500  176.8090 O.3   363  NI9363     -0.2090
      4  C2        10.6600   17.0940  174.4400 C.3   363  NI9363      0.1360
      5  O3        12.4030   14.7800  174.0240 O.2   363  NI9363     -0.4572
      6  C3        10.6680   19.2560  173.4080 C.3   363  NI9363      0.1482
      7  P1        12.9130   17.3280  176.1450 P.3   363  NI9363      0.1528
      8  P2        11.6820   14.7730  175.3530 P.3   363  NI9363      0.1528
      9  O4        13.9650   16.6160  175.3180 O.2   363  NI9363     -0.4572
     10  O5        12.5080   14.3260  176.5420 O.3   363  NI9363     -0.3552
     11  O6        12.9440   16.9910  177.6150 O.3   363  NI9363     -0.3552
     12  O7        12.8310   18.8200  175.8840 O.3   363  NI9363     -0.3552
     13  N         10.3230   18.5200  174.4770 N.pl3 363  NI9363     -0.2976
     14  F         10.7420   21.3340  172.2790 F     363  NI9363     -0.2071
     15  C4         9.7140   21.2110  174.4210 C.2   363  NI9363      0.0282
     16  C5         9.6740   19.0740  175.5160 C.2   363  NI9363      0.0618
     17  C6         9.3580   20.4300  175.5170 C.2   363  NI9363      0.0178
     18  C7        10.3800   20.6140  173.3550 C.2   363  NI9363      0.1376
@<TRIPOS>BOND
     1    14    18    1
     2    18     6    1
     3    18    15    2
     4     6    13    1
     5     5     8    2
     6    15    17    1
     7     4    13    1
     8     4     1    1
     9    13    16    1
    10     2     8    1
    11     9     7    2
    12     8     1    1
    13     8    10    1
    14    16    17    2
    15     1     7    1
    16     1     3    1
    17    12     7    1
    18     7    11    1
