@<TRIPOS>MOLECULE
3id5_SAM_B_1.pdb
 27 29 0 0 0
SMALL
GASTEIGER

@<TRIPOS>ATOM
      1  N         17.2420  104.0460   34.4170 N.3   301  SAM301     -0.1208
      2  CA        17.6240  103.4370   33.1430 C.3   301  SAM301      0.1952
      3  C         18.6920  102.3550   33.3490 C.2   301  SAM301      0.3819
      4  O         18.4400  101.1610   33.1890 O.co2 301  SAM301     -0.2441
      5  OXT       19.8380  102.6360   33.6950 O.co2 301  SAM301     -0.2441
      6  CB        18.0780  104.5040   32.1370 C.3   301  SAM301      0.0414
      7  CG        16.9570  105.3110   31.4690 C.3   301  SAM301      0.0503
      8  SD        17.4210  106.0580   29.8750 S.3   301  SAM301     -0.1761
      9  CE        18.1410  107.6450   30.3780 C.3   301  SAM301      0.0590
     10  C5'       15.8330  106.6050   29.1850 C.3   301  SAM301      0.0806
     11  C4'       15.2540  105.6250   28.1680 C.3   301  SAM301      0.1622
     12  O4'       13.9250  105.9600   27.8040 O.3   301  SAM301     -0.3153
     13  C3'       16.0560  105.5940   26.8730 C.3   301  SAM301      0.2168
     14  O3'       16.8740  104.4460   26.8430 O.3   301  SAM301     -0.2175
     15  C2'       15.0180  105.5470   25.7680 C.3   301  SAM301      0.2569
     16  O2'       15.1990  104.4230   24.9390 O.3   301  SAM301     -0.2130
     17  C1'       13.6800  105.4760   26.4930 C.3   301  SAM301      0.3185
     18  N9        12.6170  106.2230   25.7750 N.pl3 301  SAM301     -0.1439
     19  C8        12.7940  107.2800   24.9140 C.3   301  SAM301      0.3377
     20  N7        11.5880  107.6830   24.4530 N.2   301  SAM301     -0.2095
     21  C5        10.6330  106.9000   24.9990 C.2   301  SAM301      0.2526
     22  C6         9.2450  106.8870   24.8680 C.2   301  SAM301      0.4393
     23  N6         8.6370  107.7680   24.0760 N.pl3 301  SAM301      0.2180
     24  N1         8.5010  105.9520   25.5630 N.2   301  SAM301      0.0021
     25  C2         9.1380  105.0390   26.3860 C.3   301  SAM301      0.5254
     26  N3        10.5180  105.0610   26.5110 N.2   301  SAM301     -0.0055
     27  C4        11.2620  105.9770   25.8330 C.2   301  SAM301      0.3518
@<TRIPOS>BOND
     1    23    22    1
     2    20    19    1
     3    20    21    2
     4    22    21    1
     5    22    24    2
     6    19    18    1
     7    16    15    1
     8    21    27    1
     9    24    25    1
    10    15    17    1
    11    15    13    1
    12    18    27    1
    13    18    17    1
    14    27    26    2
    15    25    26    1
    16    17    12    1
    17    14    13    1
    18    13    11    1
    19    12    11    1
    20    11    10    1
    21    10     8    1
    22     8     9    1
    23     8     7    1
    24     7     6    1
    25     6     2    1
    26     2     3    1
    27     2     1    1
    28     4     3   ar
    29     3     5   ar
