@<TRIPOS>MOLECULE
3id6_SAM_C_1.pdb
 27 29 0 0 0
SMALL
GASTEIGER

@<TRIPOS>ATOM
      1  N        -12.6090  -15.8930  -38.6250 N.3   301  SAM301     -0.1208
      2  CA       -13.9550  -15.4630  -38.2560 C.3   301  SAM301      0.1952
      3  C        -14.7850  -15.1870  -39.5180 C.2   301  SAM301      0.3819
      4  O        -15.3860  -16.1080  -40.0780 O.co2 301  SAM301     -0.2441
      5  OXT      -14.8790  -14.0720  -40.0330 O.co2 301  SAM301     -0.2441
      6  CB       -13.9150  -14.2980  -37.2550 C.3   301  SAM301      0.0414
      7  CG       -13.6840  -14.7440  -35.8070 C.3   301  SAM301      0.0503
      8  SD       -13.4600  -13.4190  -34.5740 S.3   301  SAM301     -0.1761
      9  CE       -11.6580  -13.2770  -34.4290 C.3   301  SAM301      0.0590
     10  C5'      -13.8300  -14.2750  -33.0140 C.3   301  SAM301      0.0806
     11  C4'      -15.2180  -14.9120  -32.9410 C.3   301  SAM301      0.1622
     12  O4'      -15.1700  -16.0820  -32.1400 O.3   301  SAM301     -0.3153
     13  C3'      -16.2390  -13.9720  -32.3130 C.3   301  SAM301      0.2168
     14  O3'      -17.3280  -13.7960  -33.1880 O.3   301  SAM301     -0.2175
     15  C2'      -16.6930  -14.6530  -31.0370 C.3   301  SAM301      0.2569
     16  O2'      -18.0910  -14.5830  -30.8980 O.3   301  SAM301     -0.2130
     17  C1'      -16.2580  -16.0980  -31.2300 C.3   301  SAM301      0.3185
     18  N9       -15.9180  -16.7920  -29.9670 N.pl3 301  SAM301     -0.1439
     19  C8       -15.4140  -16.2490  -28.8120 C.3   301  SAM301      0.3377
     20  N7       -15.2520  -17.2400  -27.9060 N.2   301  SAM301     -0.2095
     21  C5       -15.6500  -18.4080  -28.4600 C.2   301  SAM301      0.2526
     22  C6       -15.7010  -19.7190  -27.9860 C.2   301  SAM301      0.4393
     23  N6       -15.3050  -20.0170  -26.7540 N.pl3 301  SAM301      0.2180
     24  N1       -16.1740  -20.7220  -28.8070 N.2   301  SAM301      0.0021
     25  C2       -16.5860  -20.4340  -30.0920 C.3   301  SAM301      0.5254
     26  N3       -16.5370  -19.1350  -30.5550 N.2   301  SAM301     -0.0055
     27  C4       -16.0730  -18.1370  -29.7560 C.2   301  SAM301      0.3518
@<TRIPOS>BOND
     1     4     3   ar
     2     5     3   ar
     3     3     2    1
     4     1     2    1
     5     2     6    1
     6     6     7    1
     7     7     8    1
     8     8     9    1
     9     8    10    1
    10    14    13    1
    11    10    11    1
    12    11    13    1
    13    11    12    1
    14    13    15    1
    15    12    17    1
    16    17    15    1
    17    17    18    1
    18    15    16    1
    19    26    25    1
    20    26    27    2
    21    25    24    1
    22    18    27    1
    23    18    19    1
    24    27    21    1
    25    19    20    1
    26    24    22    2
    27    21    22    1
    28    21    20    2
    29    22    23    1
