@<TRIPOS>MOLECULE
3id8_ANP_A_1.pdb
 31 33 0 0 0
SMALL
GASTEIGER

@<TRIPOS>ATOM
      1  PG       -25.4910   -3.1600    6.9010 P.3   600  ANP600      0.4884
      2  O1G      -26.7090   -2.4510    7.3890 O.3   600  ANP600     -0.1240
      3  O2G      -24.2110   -2.6100    7.4760 O.3   600  ANP600     -0.1240
      4  O3G      -25.5510   -4.6670    6.9880 O.2   600  ANP600     -0.2331
      5  PB       -23.9760   -2.6140    4.4670 P.3   600  ANP600      0.4669
      6  O1B      -23.3110   -1.4090    5.1240 O.3   600  ANP600     -0.1253
      7  O2B      -23.2350   -3.9300    4.4270 O.2   600  ANP600     -0.2351
      8  N3B      -25.4310   -2.8100    5.2580 N.3   600  ANP600     -0.0163
      9  PA       -24.7060   -0.8430    2.3980 P.3   600  ANP600      0.2220
     10  O1A      -24.6520    0.1420    3.5260 O.3   600  ANP600     -0.4370
     11  O2A      -23.9480   -0.5450    1.1300 O.2   600  ANP600     -0.5170
     12  O3A      -24.2520   -2.2930    2.9210 O.3   600  ANP600     -0.2360
     13  O5'      -26.2640   -1.0710    2.0040 O.3   600  ANP600     -0.3111
     14  C5'      -26.7480   -2.1540    1.2050 C.3   600  ANP600      0.1813
     15  C4'      -28.2710   -2.0570    1.2080 C.3   600  ANP600      0.1821
     16  O4'      -28.6520   -0.7410    0.7910 O.3   600  ANP600     -0.3135
     17  C3'      -28.9620   -3.0580    0.2870 C.3   600  ANP600      0.2184
     18  O3'      -29.9620   -3.7750    1.0200 O.3   600  ANP600     -0.2174
     19  C2'      -29.6150   -2.2340   -0.8080 C.3   600  ANP600      0.2570
     20  O2'      -30.9840   -2.6260   -1.0170 O.3   600  ANP600     -0.2130
     21  C1'      -29.5270   -0.7820   -0.3370 C.3   600  ANP600      0.3186
     22  N9       -29.0940    0.1480   -1.4290 N.pl3 600  ANP600     -0.1439
     23  C8       -28.3490   -0.1420   -2.5120 C.3   600  ANP600      0.3377
     24  N7       -28.2010    0.9820   -3.2560 N.2   600  ANP600     -0.2095
     25  C5       -28.8700    1.9880   -2.6410 C.2   600  ANP600      0.2526
     26  C6       -29.0880    3.3460   -2.9160 C.2   600  ANP600      0.4393
     27  N6       -28.5770    3.9450   -4.0230 N.pl3 600  ANP600      0.2180
     28  N1       -29.8200    4.0880   -2.0450 N.2   600  ANP600      0.0021
     29  C2       -30.3430    3.5360   -0.9450 C.3   600  ANP600      0.5254
     30  N3       -30.1470    2.2410   -0.6710 N.2   600  ANP600     -0.0055
     31  C4       -29.4220    1.4480   -1.4900 C.2   600  ANP600      0.3518
@<TRIPOS>BOND
     1    27    26    1
     2    24    25    2
     3    24    23    1
     4    26    25    1
     5    26    28    2
     6    25    31    1
     7    23    22    1
     8    28    29    1
     9    31    22    1
    10    31    30    2
    11    22    21    1
    12    20    19    1
    13    29    30    1
    14    19    21    1
    15    19    17    1
    16    21    16    1
    17    17    18    1
    18    17    15    1
    19    16    15    1
    20    11     9    2
    21    14    15    1
    22    14    13    1
    23    13     9    1
    24     9    12    1
    25     9    10    1
    26    12     5    1
    27     7     5    2
    28     5     6    1
    29     5     8    1
    30     8     1    1
    31     1     4    2
    32     1     2    1
    33     1     3    1
