@<TRIPOS>MOLECULE
3id8_MRK_A_1.pdb
 23 25 0 0 0
SMALL
GASTEIGER

@<TRIPOS>ATOM
      1  S1        -7.9540   -2.2790   21.2970 S.2   501  MRK501     -0.0491
      2  C2        -8.0070   -3.4100   22.6280 C.ar  501  MRK501      0.0588
      3  C3        -8.6010   -2.8430   23.7520 C.ar  501  MRK501      0.1079
      4  N4        -8.9870   -1.5430   23.5910 N.ar  501  MRK501     -0.2209
      5  C5        -8.6920   -1.1210   22.3450 C.ar  501  MRK501      0.1861
      6  N6        -8.9620    0.1540   21.9170 N.am  501  MRK501     -0.1504
      7  C7        -8.6670    0.5720   20.6780 C.2   501  MRK501      0.2720
      8  O8        -8.1390   -0.1510   19.8430 O.2   501  MRK501     -0.2679
      9  C9        -8.4270    2.6630   19.2500 C.ar  501  MRK501      0.0958
     10  C10       -9.0470    1.9640   20.2860 C.ar  501  MRK501      0.0728
     11  C11      -10.1190    2.5550   20.9600 C.ar  501  MRK501      0.0148
     12  C12      -10.5430    3.8470   20.6380 C.ar  501  MRK501      0.0597
     13  C13       -9.9010    4.5520   19.6100 C.ar  501  MRK501      0.1475
     14  F14      -10.2800    5.8010   19.2480 F     501  MRK501     -0.2036
     15  C15       -8.8430    3.9500   18.9260 C.ar  501  MRK501      0.0483
     16  S16      -11.8490    4.4850   21.5220 S.3   501  MRK501     -0.0511
     17  N17      -12.6700    6.9890   21.0840 N.pl3 501  MRK501     -0.2846
     18  C18      -11.8780    6.1330   21.7420 C.2   501  MRK501      0.1588
     19  N19      -11.1540    6.7390   22.6770 N.2   501  MRK501     -0.2488
     20  C20      -11.1600    8.3390   22.4080 C.3   501  MRK501      0.1488
     21  C21      -12.5790    8.1950   21.5340 C.3   501  MRK501      0.1190
     22  C22      -13.6090    6.6910   20.0040 C.3   501  MRK501      0.1141
     23  N23       -7.4130    2.1230   18.5510 N.pl3 501  MRK501     -0.1278
@<TRIPOS>BOND
     1    23     9    1
     2    15     9   ar
     3    15    13   ar
     4    14    13    1
     5     9    10   ar
     6    13    12   ar
     7     8     7    2
     8    22    17    1
     9    10     7    1
    10    10    11   ar
    11    12    11   ar
    12    12    16    1
    13     7     6   am
    14    17    21    1
    15    17    18    1
    16     1     5   ar
    17     1     2   ar
    18    16    18    1
    19    21    20    1
    20    18    19    2
    21     6     5    1
    22     5     4   ar
    23    20    19    1
    24     2     3   ar
    25     4     3   ar
