@<TRIPOS>MOLECULE
3id8_GLC_A_1.pdb
 12 12 0 0 0
SMALL
GASTEIGER

@<TRIPOS>ATOM
      1  C1       -27.8320   -5.4960   12.0210 C.3   500  GLC500      0.3024
      2  C2       -26.8390   -6.1900   12.9690 C.3   500  GLC500      0.2434
      3  C3       -25.8770   -5.1840   13.6220 C.3   500  GLC500      0.2199
      4  C4       -25.2330   -4.3210   12.5410 C.3   500  GLC500      0.2144
      5  C5       -26.2960   -3.6980   11.6460 C.3   500  GLC500      0.1836
      6  C6       -25.6790   -2.8650   10.5240 C.3   500  GLC500      0.2142
      7  O1       -28.6440   -4.6160   12.7690 O.3   500  GLC500     -0.1869
      8  O2       -27.5210   -6.9420   13.9410 O.3   500  GLC500     -0.2148
      9  O3       -24.8520   -5.8270   14.3610 O.3   500  GLC500     -0.2174
     10  O4       -24.4380   -3.3450   13.1540 O.3   500  GLC500     -0.2176
     11  O5       -27.1140   -4.7130   11.0790 O.3   500  GLC500     -0.3236
     12  O6       -24.9750   -3.6930    9.6100 O.3   500  GLC500     -0.2176
@<TRIPOS>BOND
     1    12     6    1
     2     6     5    1
     3    11     5    1
     4    11     1    1
     5     5     4    1
     6     1     7    1
     7     1     2    1
     8     4    10    1
     9     4     3    1
    10     2     3    1
    11     2     8    1
    12     3     9    1
