@<TRIPOS>MOLECULE
3ida_DBC_A_1.pdb
 10 10 0 0 0
SMALL
GASTEIGER

@<TRIPOS>ATOM
      1  O4         6.1040   68.1910   -4.2030 O.3   589  DBC589     -0.1561
      2  C5         7.4220   68.3230   -3.5250 C.3   589  DBC589      0.4023
      3  O3         8.1580   69.6220   -3.8230 O.3   589  DBC589     -0.3044
      4  O2         7.2490   68.3070   -2.0990 O.3   589  DBC589     -0.3044
      5  C2         8.1240   69.2610   -1.4970 C.3   589  DBC589      0.1599
      6  C1         7.4800   69.8210   -0.2230 C.3   589  DBC589      0.1008
      7  S1         7.3340   68.6230    1.1440 S.3   589  DBC589     -0.0794
      8  C3         8.4170   70.2990   -2.5890 C.3   589  DBC589      0.1599
      9  C4         9.8630   70.8040   -2.6280 C.3   589  DBC589      0.1008
     10  S4        10.3630   71.9020   -1.2660 S.3   589  DBC589     -0.0794
@<TRIPOS>BOND
     1     1     2    1
     2     3     2    1
     3     3     8    1
     4     2     4    1
     5     9     8    1
     6     9    10    1
     7     8     5    1
     8     4     5    1
     9     5     6    1
    10     6     7    1
