@<TRIPOS>MOLECULE
3idb_ANP_A_1.pdb
 31 33 0 0 0
SMALL
GASTEIGER

@<TRIPOS>ATOM
      1  PG        66.4690   -1.1450    9.4210 P.3   450  ANP450      0.4884
      2  O1G       66.3830   -1.8280    8.0610 O.2   450  ANP450     -0.2331
      3  O2G       65.1760   -1.3580   10.1900 O.3   450  ANP450     -0.1240
      4  O3G       67.6180   -1.7380   10.2070 O.3   450  ANP450     -0.1240
      5  PB        66.8970    1.1530    7.7490 P.3   450  ANP450      0.4669
      6  O1B       68.3100    1.0700    7.3340 O.3   450  ANP450     -0.1253
      7  O2B       65.9900    0.6110    6.6950 O.2   450  ANP450     -0.2351
      8  N3B       66.7120    0.4710    9.2530 N.3   450  ANP450     -0.0163
      9  PA        65.0720    3.2210    8.2330 P.3   450  ANP450      0.2220
     10  O1A       64.2850    3.2960    6.9780 O.2   450  ANP450     -0.5170
     11  O2A       64.3120    2.4580    9.2640 O.3   450  ANP450     -0.4370
     12  O3A       66.6040    2.6960    8.0820 O.3   450  ANP450     -0.2360
     13  O5'       65.3430    4.7030    8.7430 O.3   450  ANP450     -0.3111
     14  C5'       66.1810    4.8350    9.9080 C.3   450  ANP450      0.1813
     15  C4'       65.5240    5.6380   10.9930 C.3   450  ANP450      0.1821
     16  O4'       65.3740    7.0020   10.5380 O.3   450  ANP450     -0.3135
     17  C3'       64.1330    5.2200   11.4410 C.3   450  ANP450      0.2184
     18  O3'       64.1780    4.1510   12.3800 O.3   450  ANP450     -0.2174
     19  C2'       63.6110    6.5160   12.0480 C.3   450  ANP450      0.2570
     20  O2'       64.1350    6.7750   13.3330 O.3   450  ANP450     -0.2130
     21  C1'       64.1820    7.5480   11.0720 C.3   450  ANP450      0.3186
     22  N9        63.2800    7.8750    9.9670 N.pl3 450  ANP450     -0.1439
     23  C8        62.9970    7.1570    8.8210 C.3   450  ANP450      0.3377
     24  N7        62.1160    7.7320    8.0440 N.2   450  ANP450     -0.2095
     25  C5        61.8040    8.9110    8.7100 C.2   450  ANP450      0.2526
     26  C6        60.9250    9.9610    8.4040 C.2   450  ANP450      0.4393
     27  N6        60.1780   10.0040    7.3030 N.pl3 450  ANP450      0.2180
     28  N1        60.8400   10.9830    9.2830 N.2   450  ANP450      0.0021
     29  C2        61.5970   10.9440   10.3850 C.3   450  ANP450      0.5254
     30  N3        62.4600   10.0170   10.7820 N.2   450  ANP450     -0.0055
     31  C4        62.5160    9.0110    9.8910 C.2   450  ANP450      0.3518
@<TRIPOS>BOND
     1     7     5    2
     2    10     9    2
     3    27    26    1
     4     6     5    1
     5     5    12    1
     6     5     8    1
     7    24    25    2
     8    24    23    1
     9     2     1    2
    10    12     9    1
    11     9    13    1
    12     9    11    1
    13    26    25    1
    14    26    28    2
    15    25    31    1
    16    13    14    1
    17    23    22    1
    18     8     1    1
    19    28    29    1
    20     1     3    1
    21     1     4    1
    22    31    22    1
    23    31    30    2
    24    14    15    1
    25    22    21    1
    26    29    30    1
    27    16    15    1
    28    16    21    1
    29    15    17    1
    30    21    19    1
    31    17    19    1
    32    17    18    1
    33    19    20    1
