@<TRIPOS>MOLECULE
3idc_ANP_A_1.pdb
 31 33 0 0 0
SMALL
GASTEIGER

@<TRIPOS>ATOM
      1  PG        68.7370   -1.0330    9.1890 P.3   450  ANP450      0.4884
      2  O1G       68.2560   -2.0060    8.1140 O.2   450  ANP450     -0.2331
      3  O2G       67.5620   -0.2400    9.6870 O.3   450  ANP450     -0.1240
      4  O3G       69.3410   -1.8200   10.3470 O.3   450  ANP450     -0.1240
      5  PB        69.2950    0.9860    7.3890 P.3   450  ANP450      0.4669
      6  O1B       70.2890    1.0230    6.2870 O.2   450  ANP450     -0.2351
      7  O2B       67.9820    0.5330    6.8530 O.3   450  ANP450     -0.1253
      8  N3B       69.8580   -0.0190    8.5600 N.3   450  ANP450     -0.0163
      9  PA        67.7020    3.0810    8.1140 P.3   450  ANP450      0.2220
     10  O1A       67.0080    3.2410    6.8280 O.2   450  ANP450     -0.5170
     11  O2A       66.8500    2.2610    9.0250 O.3   450  ANP450     -0.4370
     12  O3A       69.1870    2.4500    7.9830 O.3   450  ANP450     -0.2360
     13  O5'       67.9610    4.5070    8.7700 O.3   450  ANP450     -0.3111
     14  C5'       68.6980    4.5590    9.9970 C.3   450  ANP450      0.1813
     15  C4'       68.0090    5.4260   10.9990 C.3   450  ANP450      0.1821
     16  O4'       67.8880    6.7550   10.4430 O.3   450  ANP450     -0.3135
     17  C3'       66.5840    5.0480   11.3620 C.3   450  ANP450      0.2184
     18  O3'       66.5370    3.9890   12.3160 O.3   450  ANP450     -0.2174
     19  C2'       66.0490    6.3710   11.9040 C.3   450  ANP450      0.2570
     20  O2'       66.4360    6.6470   13.2340 O.3   450  ANP450     -0.2130
     21  C1'       66.7270    7.3750   10.9660 C.3   450  ANP450      0.3186
     22  N9        65.8710    7.7950    9.8550 N.pl3 450  ANP450     -0.1439
     23  C8        65.5820    7.1380    8.6830 C.3   450  ANP450      0.3377
     24  N7        64.7070    7.7600    7.9340 N.2   450  ANP450     -0.2095
     25  C5        64.4130    8.9110    8.6490 C.2   450  ANP450      0.2526
     26  C6        63.5350    9.9770    8.4000 C.2   450  ANP450      0.4393
     27  N6        62.7510   10.0590    7.3190 N.pl3 450  ANP450      0.2180
     28  N1        63.4820   10.9690    9.3160 N.2   450  ANP450      0.0021
     29  C2        64.2670   10.8800   10.4030 C.3   450  ANP450      0.5254
     30  N3        65.1270    9.9280   10.7470 N.2   450  ANP450     -0.0055
     31  C4        65.1460    8.9590    9.8200 C.2   450  ANP450      0.3518
@<TRIPOS>BOND
     1     6     5    2
     2    10     9    2
     3     7     5    1
     4    27    26    1
     5     5    12    1
     6     5     8    1
     7    24    25    2
     8    24    23    1
     9    12     9    1
    10     2     1    2
    11     9    13    1
    12     9    11    1
    13    26    25    1
    14    26    28    2
    15     8     1    1
    16    25    31    1
    17    23    22    1
    18    13    14    1
    19     1     3    1
    20     1     4    1
    21    28    29    1
    22    31    22    1
    23    31    30    2
    24    22    21    1
    25    14    15    1
    26    29    30    1
    27    16    21    1
    28    16    15    1
    29    21    19    1
    30    15    17    1
    31    17    19    1
    32    17    18    1
    33    19    20    1
