@<TRIPOS>MOLECULE
3idh_GLC_A_1.pdb
 12 12 0 0 0
SMALL
GASTEIGER

@<TRIPOS>ATOM
      1  C1       -26.7950   -5.3890   12.2590 C.2   500  GLC500      0.3505
      2  C2       -25.9300   -6.2380   13.2140 C.3   500  GLC500      0.2823
      3  C3       -24.9270   -5.2190   13.8040 C.3   500  GLC500      0.2270
      4  C4       -24.3620   -4.2590   12.7330 C.3   500  GLC500      0.2276
      5  C5       -25.3950   -3.6340   11.7700 C.3   500  GLC500      0.2344
      6  C6       -24.7020   -2.8170   10.6760 C.3   500  GLC500      0.2281
      7  O1       -27.7970   -4.6910   12.9580 O.2   500  GLC500     -0.2472
      8  O2       -26.6850   -6.8570   14.2170 O.3   500  GLC500     -0.2082
      9  O3       -23.8130   -5.8340   14.4380 O.3   500  GLC500     -0.2169
     10  O4       -23.5500   -3.2800   13.3850 O.3   500  GLC500     -0.2163
     11  O5       -26.2920   -4.6140   11.1840 O.3   500  GLC500     -0.4450
     12  O6       -23.9720   -3.6760    9.8010 O.3   500  GLC500     -0.2163
@<TRIPOS>BOND
     1    12     6    1
     2     6     5    1
     3    11     5    1
     4    11     1    1
     5     5     4    1
     6     1     7    2
     7     1     2    1
     8     4    10    1
     9     4     3    1
    10     2     3    1
    11     2     8    1
    12     3     9    1
