@<TRIPOS>MOLECULE
3idi_III_C_1.pdb
 44 45 0 0 0
SMALL
GASTEIGER

@<TRIPOS>ATOM
      1  N        -12.1100   27.4440   16.9090 N.3     1  ALA1       -0.1231
      2  CA       -11.9070   28.1160   15.6080 C.3     1  ALA1        0.1694
      3  C        -11.2520   27.2170   14.5680 C.2     1  ALA1        0.2592
      4  O        -10.2570   26.5430   14.8490 O.2     1  ALA1       -0.2718
      5  CB       -11.0630   29.3660   15.7840 C.3     1  ALA1        0.0304
      6  N        -11.8080   27.2340   13.3660 N.am    2  LEU2       -0.1966
      7  CA       -11.2630   26.4640   12.2700 C.3     2  LEU2        0.1728
      8  C        -10.0880   27.1370   11.6360 C.2     2  LEU2        0.2616
      9  O        -10.0670   28.3490   11.4760 O.2     2  LEU2       -0.2715
     10  CB       -12.2930   26.2540   11.1460 C.3     2  LEU2        0.0311
     11  CG       -13.6180   25.5310   11.3510 C.3     2  LEU2        0.0022
     12  CD1      -13.5670   24.1230   10.7940 C.3     2  LEU2        0.0001
     13  CD2      -13.9410   25.5430   12.8180 C.3     2  LEU2        0.0001
     14  N         -9.1510   26.3000   11.2190 N.am    3  ASP3       -0.1957
     15  CA        -7.9590   26.7500   10.5630 C.3     3  ASP3        0.1840
     16  C         -8.3620   27.4510    9.2500 C.2     3  ASP3        0.2622
     17  O         -9.4010   27.1440    8.5980 O.2     3  ASP3       -0.2715
     18  CB        -7.1000   25.5780   10.2250 C.3     3  ASP3        0.1450
     19  CG        -5.8760   25.9950    9.5100 C.2     3  ASP3        0.3671
     20  OD1       -5.7610   25.7250    8.2840 O.co2   3  ASP3       -0.2456
     21  OD2       -5.0090   26.6390   10.1730 O.co2   3  ASP3       -0.2456
     22  N         -7.5020   28.3740    8.8440 N.am    4  LYS4       -0.1963
     23  CA        -7.7090   29.1730    7.6600 C.3     4  LYS4        0.1728
     24  C         -8.0190   28.3870    6.4160 C.2     4  LYS4        0.2616
     25  O         -8.8740   28.8010    5.6060 O.2     4  LYS4       -0.2715
     26  CB        -6.5180   30.1430    7.5800 C.3     4  LYS4        0.0311
     27  CG        -6.3990   30.8620    6.3130 C.3     4  LYS4        0.0038
     28  CD        -5.4010   31.9850    6.4750 C.3     4  LYS4        0.0206
     29  CE        -6.0780   33.1800    7.0860 C.3     4  LYS4        0.1093
     30  NZ        -6.3340   34.2740    6.0900 N.3     4  LYS4       -0.1314
     31  N         -7.3620   27.2450    6.2630 N.am    5  TRP5       -0.1974
     32  CA        -7.6600   26.4340    5.0710 C.3     5  TRP5        0.1637
     33  C         -8.5880   25.2050    5.4380 C.2     5  TRP5        0.2290
     34  O         -9.5620   25.3790    6.2280 O.2     5  TRP5       -0.2864
     35  CB        -6.3520   25.9660    4.4440 C.3     5  TRP5        0.0539
     36  CG        -5.3270   27.0170    4.5090 C.2     5  TRP5       -0.0137
     37  CD1       -4.1270   26.9400    5.1500 C.2     5  TRP5        0.0907
     38  CD2       -5.3850   28.3070    3.9040 C.3     5  TRP5        0.0819
     39  NE1       -3.4230   28.1160    4.9980 N.2     5  TRP5       -0.2482
     40  CE2       -4.1710   28.9740    4.2400 C.2     5  TRP5        0.0665
     41  CE3       -6.3480   28.9730    3.1290 C.2     5  TRP5       -0.0164
     42  CZ2       -3.8830   30.2560    3.7850 C.2     5  TRP5        0.0153
     43  CZ3       -6.0640   30.2570    2.6800 C.2     5  TRP5       -0.0038
     44  CH2       -4.8400   30.8900    3.0210 C.2     5  TRP5        0.0009
@<TRIPOS>BOND
     1    43    44    1
     2    43    41    2
     3    44    42    2
     4    41    38    1
     5    42    40    1
     6    38    40    1
     7    38    36    1
     8    40    39    2
     9    35    36    1
    10    35    32    1
    11    36    37    2
    12    39    37    1
    13    32    33    1
    14    32    31    1
    15    33    34    2
    16    25    24    2
    17    30    29    1
    18    31    24   am
    19    27    28    1
    20    27    26    1
    21    24    23    1
    22    28    29    1
    23    26    23    1
    24    23    22    1
    25    20    19   ar
    26    17    16    2
    27    22    16   am
    28    16    15    1
    29    19    21   ar
    30    19    18    1
    31    18    15    1
    32    15    14    1
    33    12    11    1
    34    10    11    1
    35    10     7    1
    36    14     8   am
    37    11    13    1
    38     9     8    2
    39     8     7    1
    40     7     6    1
    41     6     3   am
    42     3     4    2
    43     3     2    1
    44     2     5    1
    45     2     1    1
