@<TRIPOS>MOLECULE
3ido_EPE_A_1.pdb
 15 15 0 0 0
SMALL
GASTEIGER

@<TRIPOS>ATOM
      1  N1        66.7570   68.2380    9.8500 N.3   201  EPE201     -0.2689
      2  C2        67.5750   67.2590    9.1060 C.3   201  EPE201      0.0897
      3  C3        69.0120   67.2400    9.6010 C.3   201  EPE201      0.0897
      4  N4        69.5920   68.5620    9.7570 N.3   201  EPE201     -0.2681
      5  C5        68.7370   69.6240   10.2860 C.3   201  EPE201      0.0897
      6  C6        67.3220   69.5940    9.7220 C.3   201  EPE201      0.0897
      7  C7        71.0100   68.5630   10.0870 C.3   201  EPE201      0.1081
      8  C8        71.7400   69.8750    9.8130 C.3   201  EPE201      0.1993
      9  O8        71.4780   70.7420   10.8880 O.3   201  EPE201     -0.2189
     10  C9        65.4310   68.2740    9.2240 C.3   201  EPE201      0.0939
     11  C10       64.6210   67.0310    9.5820 C.3   201  EPE201      0.1225
     12  S         63.2400   66.8460    8.4320 S.3   201  EPE201     -0.1946
     13  O1S       62.4860   65.6730    8.8400 O.3   201  EPE201     -0.3074
     14  O2S       63.7160   66.6820    7.0580 O.3   201  EPE201     -0.3074
     15  O3S       62.4840   68.0850    8.5750 O.3   201  EPE201     -0.3074
@<TRIPOS>BOND
     1    14    12    1
     2    12    15    1
     3    12    13    1
     4    12    11    1
     5     2     3    1
     6     2     1    1
     7    10    11    1
     8    10     1    1
     9     3     4    1
    10     6     1    1
    11     6     5    1
    12     4     7    1
    13     4     5    1
    14     8     7    1
    15     8     9    1
