@<TRIPOS>MOLECULE
3idp_L1E_A_1.pdb
 35 40 0 0 0
SMALL
GASTEIGER

@<TRIPOS>ATOM
      1  C5         9.2670   23.5590   30.4940 C.3     2  L1E2        0.2610
      2  C7         6.3070   21.4450   30.6440 C.ar    2  L1E2        0.0528
      3  C8         5.9310   20.0980   30.5760 C.ar    2  L1E2        0.0060
      4  C10        3.6330   20.7100   30.9900 C.ar    2  L1E2        0.1004
      5  C15        4.4500   24.7890   32.7580 C.ar    2  L1E2        0.0193
      6  C17        2.9560   26.6370   32.3030 C.ar    2  L1E2        0.0026
      7  C20        4.3820   25.3870   28.9870 C.3     2  L1E2        0.0324
      8  C21        5.0560   23.9420   33.6810 C.ar    2  L1E2        0.0221
      9  C22        4.7880   24.0950   35.0300 C.ar    2  L1E2        0.1004
     10  C24        3.3420   25.8750   34.6050 C.ar    2  L1E2        0.1517
     11  C26        2.6220   27.3400   36.3060 C.ar    2  L1E2        0.0722
     12  C28        3.9700   28.1070   38.1640 C.ar    2  L1E2        0.0127
     13  C27        3.8710   27.5180   36.9070 C.ar    2  L1E2        0.0174
     14  C29        2.8070   28.5170   38.8100 C.ar    2  L1E2        0.0578
     15 CL32        2.9330   29.2560   40.3630 Cl      2  L1E2       -0.0822
     16  C30        1.5540   28.3460   38.2280 C.ar    2  L1E2        0.0127
     17  C31        1.4680   27.7560   36.9690 C.ar    2  L1E2        0.0174
     18  N25        2.5070   26.7940   35.1000 N.pl3   2  L1E2       -0.1941
     19  N23        3.9510   25.0270   35.4500 N.ar    2  L1E2       -0.2274
     20  C16        3.5750   25.7780   33.2190 C.ar    2  L1E2        0.0346
     21  C18        3.2230   26.4980   30.9440 C.ar    2  L1E2       -0.0029
     22  C19        4.1030   25.5110   30.4860 C.ar    2  L1E2       -0.0065
     23  C14        4.7190   24.6410   31.3930 C.ar    2  L1E2        0.0682
     24  N13        5.5760   23.6890   30.9740 N.pl3   2  L1E2       -0.1944
     25  C12        5.2830   22.3840   30.8990 C.ar    2  L1E2        0.1531
     26  N11        3.9930   21.9840   31.0580 N.ar    2  L1E2       -0.2273
     27  C9         4.5970   19.7310   30.7500 C.ar    2  L1E2        0.0208
     28  C3         7.6640   21.8320   30.5130 C.2     2  L1E2        0.1077
     29  N4         8.0100   23.1310   30.5820 N.2     2  L1E2       -0.2413
     30  N6        10.2790   22.7250   30.3440 N.2     2  L1E2       -0.1916
     31  C1        10.0300   21.4130   30.2860 C.1     2  L1E2        0.0496
     32  C2         8.7230   20.9300   30.3740 C.2     2  L1E2        0.1568
     33  N35        8.8000   19.6050   30.2750 N.2     2  L1E2       -0.2319
     34  C34       10.0850   19.2720   30.1470 C.3     2  L1E2        0.2617
     35  N33       10.8380   20.3720   30.1430 N.2     2  L1E2       -0.1916
@<TRIPOS>BOND
     1     7    22    1
     2    35    34    1
     3    35    31    2
     4    34    33    1
     5    33    32    2
     6    31    30    2
     7    31    32    1
     8    30     1    1
     9    32    28    1
    10    22    21   ar
    11    22    23   ar
    12     1    29    1
    13    28    29    2
    14    28     2    1
    15     3     2   ar
    16     3    27   ar
    17     2    25   ar
    18    27     4   ar
    19    25    24    1
    20    25    26   ar
    21    21     6   ar
    22    24    23    1
    23     4    26   ar
    24    23     5   ar
    25     6    20   ar
    26     5    20   ar
    27     5     8   ar
    28    20    10   ar
    29     8     9   ar
    30    10    18    1
    31    10    19   ar
    32     9    19   ar
    33    18    11    1
    34    11    13   ar
    35    11    17   ar
    36    13    12   ar
    37    17    16   ar
    38    12    14   ar
    39    16    14   ar
    40    14    15    1
