@<TRIPOS>MOLECULE
3ids_NAD_D_1.pdb
 44 48 0 0 0
SMALL
GASTEIGER

@<TRIPOS>ATOM
      1  PA         7.9290    5.8380   40.4660 P.3   360  NAD360      0.2189
      2  O1A        7.1330    4.6950   40.0010 O.2   360  NAD360     -0.5170
      3  O2A        9.3890    5.6740   40.6250 O.3   360  NAD360     -0.4371
      4  O5B        7.4070    6.2900   41.8630 O.3   360  NAD360     -0.3112
      5  C5B        6.0780    6.0080   42.3670 C.3   360  NAD360      0.1813
      6  C4B        6.2050    5.4100   43.7690 C.3   360  NAD360      0.1821
      7  O4B        4.8990    5.4710   44.4660 O.3   360  NAD360     -0.3135
      8  C3B        6.6180    3.9130   43.7210 C.3   360  NAD360      0.2184
      9  O3B        7.7450    3.7020   44.6000 O.3   360  NAD360     -0.2174
     10  C2B        5.3500    3.2140   44.2430 C.3   360  NAD360      0.2570
     11  O2B        5.6080    1.9890   44.9280 O.3   360  NAD360     -0.2130
     12  C1B        4.8010    4.2580   45.2160 C.3   360  NAD360      0.3186
     13  N9A        3.3410    4.0670   45.4440 N.pl3 360  NAD360     -0.1439
     14  C8A        2.4620    3.4600   44.6310 C.3   360  NAD360      0.3377
     15  N7A        1.2430    3.5150   45.1950 N.2   360  NAD360     -0.2095
     16  C5A        1.3580    4.1600   46.3570 C.2   360  NAD360      0.2526
     17  C6A        0.4710    4.5170   47.3600 C.2   360  NAD360      0.4393
     18  N6A       -0.8130    4.1910   47.2510 N.pl3 360  NAD360      0.2180
     19  N1A        0.9350    5.1850   48.4400 N.2   360  NAD360      0.0021
     20  C2A        2.2180    5.5020   48.5600 C.3   360  NAD360      0.5254
     21  N3A        3.0860    5.1740   47.6130 N.2   360  NAD360     -0.0055
     22  C4A        2.6880    4.5100   46.5150 C.2   360  NAD360      0.3518
     23  O3         7.5380    7.0700   39.4870 O.3   360  NAD360     -0.2703
     24  PN         8.2310    8.4950   39.4230 P.3   360  NAD360      0.2189
     25  O1N        8.8330    8.8480   40.6920 O.3   360  NAD360     -0.4371
     26  O2N        9.0370    8.5270   38.1710 O.2   360  NAD360     -0.5170
     27  O5D        7.0140    9.4970   39.1770 O.3   360  NAD360     -0.3112
     28  C5D        6.1650    9.9200   40.2800 C.3   360  NAD360      0.1813
     29  C4D        5.3150   11.1300   39.8070 C.3   360  NAD360      0.1799
     30  O4D        6.2610   12.1340   39.3760 O.3   360  NAD360     -0.3327
     31  C3D        4.4780   10.7650   38.5670 C.3   360  NAD360      0.2158
     32  O3D        3.2590   11.4840   38.6690 O.3   360  NAD360     -0.2175
     33  C2D        5.3290   11.3200   37.4130 C.3   360  NAD360      0.2309
     34  O2D        4.5700   11.6940   36.2460 O.3   360  NAD360     -0.2158
     35  C1D        5.8810   12.5870   38.0780 C.3   360  NAD360      0.2263
     36  N1N        7.1310   13.0350   37.4340 N.pl3 360  NAD360     -0.2787
     37  C2N        8.1400   12.1060   37.1160 C.3   360  NAD360      0.1244
     38  C3N        9.3130   12.5310   36.5010 C.2   360  NAD360      0.0544
     39  C7N       10.4600   11.5350   36.1530 C.2   360  NAD360      0.2818
     40  O7N       11.3460   11.8430   35.3540 O.2   360  NAD360     -0.2670
     41  N7N       10.4690   10.3860   36.8240 N.am  360  NAD360     -0.0839
     42  C4N        9.4520   13.8890   36.2040 C.2   360  NAD360      0.0033
     43  C5N        8.4640   14.8150   36.5190 C.2   360  NAD360      0.0157
     44  C6N        7.2960   14.3900   37.1310 C.2   360  NAD360      0.0633
@<TRIPOS>BOND
     1    40    39    2
     2    39    38    1
     3    39    41   am
     4    42    38    2
     5    42    43    1
     6    34    33    1
     7    38    37    1
     8    43    44    2
     9    37    36    1
    10    44    36    1
    11    33    35    1
    12    33    31    1
    13    36    35    1
    14    35    30    1
    15    26    24    2
    16    31    32    1
    17    31    29    1
    18    27    24    1
    19    27    28    1
    20    30    29    1
    21    24    23    1
    22    24    25    1
    23    23     1    1
    24    29    28    1
    25     2     1    2
    26     1     3    1
    27     1     4    1
    28     4     5    1
    29     5     6    1
    30     8     6    1
    31     8    10    1
    32     8     9    1
    33     6     7    1
    34    10    11    1
    35    10    12    1
    36     7    12    1
    37    14    15    1
    38    14    13    1
    39    15    16    2
    40    12    13    1
    41    13    22    1
    42    16    22    1
    43    16    17    1
    44    22    21    2
    45    18    17    1
    46    17    19    2
    47    21    20    1
    48    19    20    1
