@<TRIPOS>MOLECULE
3ie1_NUC_G_1.pdb
 41 44 0 0 0
SMALL
GASTEIGER

@<TRIPOS>ATOM
      1  OP3       36.8810   49.6680   -0.2240 O.3     1  RU1        -0.1145
      2  P         37.5500   50.4280   -1.3600 P.3     1  RU1         0.5327
      3  OP1       36.6520   50.5640   -2.5810 O.2     1  RU1        -0.2224
      4  OP2       38.1510   51.7490   -0.9050 O.3     1  RU1        -0.1145
      5  O5'       38.8120   49.5110   -1.8340 O.3     1  RU1        -0.2675
      6  C5'       39.5120   49.7950   -3.0580 C.3     1  RU1         0.1858
      7  C4'       39.2230   48.7250   -4.0810 C.3     1  RU1         0.1773
      8  O4'       38.5640   49.3250   -5.2350 O.3     1  RU1        -0.3321
      9  C3'       40.4450   47.9940   -4.6320 C.3     1  RU1         0.1857
     10  O3'       40.1140   46.6290   -4.8690 O.3     1  RU1        -0.3112
     11  C2'       40.6900   48.7230   -5.9480 C.3     1  RU1         0.2291
     12  O2'       41.4100   47.9720   -6.9020 O.3     1  RU1        -0.2158
     13  C1'       39.2550   48.9520   -6.4080 C.3     1  RU1         0.2399
     14  N1        39.1020   50.0160   -7.4100 N.am    1  RU1        -0.1766
     15  C2        39.0210   49.6330   -8.7370 C.1     1  RU1         0.2845
     16  O2        39.0710   48.4670   -9.0950 O.2     1  RU1        -0.1918
     17  N3        38.8790   50.6660   -9.6310 N.2     1  RU1        -0.2452
     18  C4        38.8100   52.0130   -9.3390 C.1     1  RU1         0.2182
     19  O4        38.6750   52.8260  -10.2580 O.2     1  RU1        -0.2085
     20  C5        38.9010   52.3270   -7.9430 C.2     1  RU1         0.1242
     21  C6        39.0410   51.3410   -7.0480 C.2     1  RU1         0.0929
     22  P         41.2790   45.5230   -4.9460 P.3     2  RU2         0.2141
     23  OP1       40.9380   44.4600   -3.9660 O.3     2  RU2        -0.4373
     24  OP2       42.5920   46.2120   -4.8530 O.2     2  RU2        -0.5172
     25  O5'       41.1360   44.9100   -6.4110 O.3     2  RU2        -0.3114
     26  C5'       42.0120   45.3080   -7.4630 C.3     2  RU2         0.1813
     27  C4'       41.9360   44.3250   -8.6070 C.3     2  RU2         0.1799
     28  O4'       41.0340   44.8390   -9.6280 O.3     2  RU2        -0.3320
     29  C3'       43.2500   44.0620   -9.3300 C.3     2  RU2         0.2158
     30  O3'       43.9980   42.9940   -8.7370 O.3     2  RU2        -0.2175
     31  C2'       42.7770   43.6860  -10.7270 C.3     2  RU2         0.2319
     32  O2'       42.3190   42.3520  -10.8020 O.3     2  RU2        -0.2157
     33  C1'       41.6030   44.6470  -10.9130 C.3     2  RU2         0.2401
     34  N1        41.9380   45.9660  -11.4760 N.am    2  RU2        -0.1766
     35  C2        42.8900   46.0370  -12.4860 C.1     2  RU2         0.2845
     36  O2        43.4790   45.0620  -12.9180 O.2     2  RU2        -0.1918
     37  N3        43.1250   47.3010  -12.9730 N.2     2  RU2        -0.2452
     38  C4        42.5230   48.4770  -12.5680 C.1     2  RU2         0.2182
     39  O4        42.8090   49.5330  -13.1360 O.2     2  RU2        -0.2085
     40  C5        41.5640   48.3230  -11.5170 C.2     2  RU2         0.1242
     41  C6        41.3120   47.1050  -11.0190 C.2     2  RU2         0.0929
@<TRIPOS>BOND
     1    39    38    2
     2    37    38    2
     3    37    35    2
     4    36    35    2
     5    38    40    1
     6    35    34   am
     7    40    41    2
     8    34    41    1
     9    34    33    1
    10    33    31    1
    11    33    28    1
    12    32    31    1
    13    31    29    1
    14    19    18    2
    15    17    18    2
    16    17    15    2
    17    28    27    1
    18    18    20    1
    19    29    30    1
    20    29    27    1
    21    16    15    2
    22    15    14   am
    23    27    26    1
    24    20    21    2
    25    26    25    1
    26    14    21    1
    27    14    13    1
    28    12    11    1
    29    25    22    1
    30    13    11    1
    31    13     8    1
    32    11     9    1
    33     8     7    1
    34    22    10    1
    35    22    24    2
    36    22    23    1
    37    10     9    1
    38     9     7    1
    39     7     6    1
    40     6     5    1
    41     3     2    2
    42     5     2    1
    43     2     4    1
    44     2     1    1
