@<TRIPOS>MOLECULE
3ie3_GSH_A_1.pdb
 20 19 0 0 0
SMALL
GASTEIGER

@<TRIPOS>ATOM
      1  N1        14.4540   10.5930   22.8570 N.3   210  GSH210     -0.1208
      2  CA1       14.4000    9.6780   23.9570 C.3   210  GSH210      0.1948
      3  C1        15.5650    8.7160   24.0810 C.2   210  GSH210      0.3819
      4  O11       16.1710    8.4100   23.0920 O.co2 210  GSH210     -0.2441
      5  O12       15.9060    8.2920   25.1290 O.co2 210  GSH210     -0.2441
      6  CB1       13.0950    8.9350   24.0920 C.3   210  GSH210      0.0402
      7  CG1       12.8640    8.2970   25.4680 C.3   210  GSH210      0.0889
      8  CD1       11.4640    7.7200   25.6050 C.2   210  GSH210      0.2418
      9  OE1       10.6270    7.7930   24.5380 O.2   210  GSH210     -0.2733
     10  N2        11.1570    7.1630   26.7380 N.am  210  GSH210     -0.1968
     11  CA2        9.9800    6.4050   27.0440 C.3   210  GSH210      0.1843
     12  C2         9.2880    6.9190   28.2860 C.2   210  GSH210      0.2627
     13  O2        10.0630    7.2950   29.2920 O.2   210  GSH210     -0.2714
     14  CB2       10.3650    4.9510   27.2430 C.3   210  GSH210      0.0997
     15  SG2       11.3890    4.3850   25.8570 S.3   210  GSH210     -0.0797
     16  N3         7.9940    7.0180   28.3370 N.am  210  GSH210     -0.1917
     17  CA3        7.3360    7.3500   29.5490 C.3   210  GSH210      0.2285
     18  C3         6.6810    8.7190   29.6290 C.2   210  GSH210      0.3865
     19  O31        6.8630    9.5360   28.7670 O.co2 210  GSH210     -0.2437
     20  O32        6.0210    8.9800   30.5920 O.co2 210  GSH210     -0.2437
@<TRIPOS>BOND
     1     1     2    1
     2     4     3   ar
     3     2     3    1
     4     2     6    1
     5     3     5   ar
     6     6     7    1
     7     9     8    2
     8     7     8    1
     9     8    10   am
    10    15    14    1
    11    10    11    1
    12    11    14    1
    13    11    12    1
    14    12    16   am
    15    12    13    2
    16    16    17    1
    17    19    18   ar
    18    17    18    1
    19    18    20   ar
