@<TRIPOS>MOLECULE
3ie3_N11_A_1.pdb
 20 21 0 0 0
SMALL
GASTEIGER

@<TRIPOS>ATOM
      1  OA5        1.6910    5.4340   32.3440 O.3   211  N11211     -0.2204
      2  CE1        2.0640    4.2940   31.5600 C.3   211  N11211      0.1821
      3  CE2        3.5340    3.9620   31.8000 C.3   211  N11211      0.0355
      4  CE3        4.2550    3.6830   30.4850 C.3   211  N11211      0.0027
      5  CE4        5.6860    3.2160   30.7300 C.3   211  N11211      0.0010
      6  CE5        6.1090    2.1530   29.7210 C.3   211  N11211      0.0120
      7  CE6        7.0730    2.7230   28.6840 C.3   211  N11211      0.0622
      8  S1         7.0010    1.7510   27.2140 S.3   211  N11211     -0.1120
      9  CF4        7.6530    2.6200   25.9120 C.ar  211  N11211      0.0478
     10  CL         6.8460    3.6610   25.2130 C.ar  211  N11211      0.1504
     11  NA3        5.5910    4.1260   25.3930 N.ar  211  N11211     -0.0477
     12  OA2        5.4430    5.1250   24.3820 O.2   211  N11211     -0.2415
     13  NA1        6.6040    5.2890   23.5670 N.ar  211  N11211     -0.0465
     14  CI         7.4780    4.3920   24.0700 C.ar  211  N11211      0.1659
     15  CF5        8.9520    2.3480   25.4850 C.ar  211  N11211      0.0096
     16  CF6        9.5360    3.0270   24.4090 C.ar  211  N11211      0.0263
     17  CF7        8.8720    4.0290   23.6960 C.ar  211  N11211      0.1653
     18  NA4        9.4990    4.6910   22.6320 N.pl3 211  N11211      0.0593
     19  OA4        8.7810    5.5900   21.8500 O.2   211  N11211     -0.1261
     20  OA3       10.8430    4.4710   22.3510 O.2   211  N11211     -0.1261
@<TRIPOS>BOND
     1    19    18    2
     2    20    18    2
     3    18    17    1
     4    13    14   ar
     5    13    12   ar
     6    17    14   ar
     7    17    16   ar
     8    14    10   ar
     9    12    11   ar
    10    16    15   ar
    11    10    11   ar
    12    10     9   ar
    13    15     9   ar
    14     9     8    1
    15     8     7    1
    16     7     6    1
    17     6     5    1
    18     4     5    1
    19     4     3    1
    20     2     3    1
    21     2     1    1
