@<TRIPOS>MOLECULE
3ie5_PG4_A_1.pdb
 13 12 0 0 0
SMALL
GASTEIGER

@<TRIPOS>ATOM
      1  O1         7.8870    4.2690    2.3190 O.3   502  PG4502     -0.2176
      2  C1         7.3820    3.1290    2.9960 C.3   502  PG4502      0.2140
      3  C2         8.3840    2.6000    3.9570 C.3   502  PG4502      0.1777
      4  O2         9.5040    2.0090    3.3070 O.3   502  PG4502     -0.3483
      5  C3        10.0210    0.8520    3.9740 C.3   502  PG4502      0.1742
      6  C4        10.6410   -0.1380    3.0440 C.3   502  PG4502      0.1742
      7  O3         9.6750   -0.7280    2.1660 O.3   502  PG4502     -0.3484
      8  C5         9.4000   -2.1090    2.3580 C.3   502  PG4502      0.1742
      9  C6         8.3480   -2.5470    1.3920 C.3   502  PG4502      0.1742
     10  O4         7.7300   -3.7410    1.8210 O.3   502  PG4502     -0.3483
     11  C7         6.9610   -4.4590    0.8520 C.3   502  PG4502      0.1777
     12  C8         7.6620   -5.5980    0.1930 C.3   502  PG4502      0.2140
     13  O5         8.0370   -6.6640    1.0580 O.3   502  PG4502     -0.2176
@<TRIPOS>BOND
     1    12    11    1
     2    12    13    1
     3    11    10    1
     4     9    10    1
     5     9     8    1
     6     7     8    1
     7     7     6    1
     8     1     2    1
     9     2     3    1
    10     6     5    1
    11     4     3    1
    12     4     5    1
