@<TRIPOS>MOLECULE
3ie7_ATP_A_1.pdb
 31 33 0 0 0
SMALL
GASTEIGER

@<TRIPOS>ATOM
      1  PG        18.8020    7.5410    6.8660 P.3   900  ATP900      0.5373
      2  O1G       18.2460    7.4450    8.2600 O.3   900  ATP900     -0.1143
      3  O2G       19.2660    6.2000    6.3440 O.3   900  ATP900     -0.1143
      4  O3G       17.7890    8.1920    5.9180 O.2   900  ATP900     -0.2221
      5  PB        20.5100    9.5830    8.1360 P.3   900  ATP900      0.2277
      6  O1B       19.5880   10.7890    8.1220 O.2   900  ATP900     -0.5168
      7  O2B       20.7030    8.7760    9.3690 O.3   900  ATP900     -0.4368
      8  O3B       20.1040    8.4850    7.0160 O.3   900  ATP900     -0.2258
      9  PA        22.4460   11.4880    7.0110 P.3   900  ATP900      0.2189
     10  O1A       21.3420   12.1380    6.2270 O.2   900  ATP900     -0.5170
     11  O2A       23.1190   12.2370    8.1060 O.3   900  ATP900     -0.4371
     12  O3A       21.9550   10.0310    7.5810 O.3   900  ATP900     -0.2700
     13  O5'       23.7350   10.5080    6.1270 O.3   900  ATP900     -0.3112
     14  C5'       24.3750    9.4500    5.5100 C.3   900  ATP900      0.1813
     15  C4'       25.6740    9.9640    4.9450 C.3   900  ATP900      0.1821
     16  O4'       25.2650   10.0300    3.5770 O.3   900  ATP900     -0.3135
     17  C3'       26.1100   11.4280    5.1870 C.3   900  ATP900      0.2184
     18  O3'       26.9680   11.5830    6.3120 O.3   900  ATP900     -0.2174
     19  C2'       26.7510   11.7670    3.8960 C.3   900  ATP900      0.2570
     20  O2'       28.0970   11.2910    3.8210 O.3   900  ATP900     -0.2130
     21  C1'       25.8780   11.1020    2.8840 C.3   900  ATP900      0.3186
     22  N9        24.8990   12.1150    2.3650 N.pl3 900  ATP900     -0.1439
     23  C8        23.6340   12.4200    2.7950 C.3   900  ATP900      0.3377
     24  N7        23.0810   13.4070    2.0490 N.2   900  ATP900     -0.2095
     25  C5        23.9880   13.7550    1.1210 C.2   900  ATP900      0.2526
     26  C6        24.0870   14.7260   -0.0060 C.2   900  ATP900      0.4393
     27  N6        23.0620   15.5430   -0.2770 N.pl3 900  ATP900      0.2180
     28  N1        25.2550   14.7640   -0.7530 N.2   900  ATP900      0.0021
     29  C2        26.3340   13.9450   -0.5130 C.3   900  ATP900      0.5254
     30  N3        26.3100   13.0300    0.5040 N.2   900  ATP900     -0.0055
     31  C4        25.1880   12.9000    1.3280 C.2   900  ATP900      0.3518
@<TRIPOS>BOND
     1    28    29    1
     2    28    26    2
     3    29    30    1
     4    27    26    1
     5    26    25    1
     6    30    31    2
     7    25    31    1
     8    25    24    2
     9    31    22    1
    10    24    23    1
    11    22    23    1
    12    22    21    1
    13    21    16    1
    14    21    19    1
    15    16    15    1
    16    20    19    1
    17    19    17    1
    18    15    17    1
    19    15    14    1
    20    17    18    1
    21    14    13    1
    22     4     1    2
    23    13     9    1
    24    10     9    2
    25     3     1    1
    26     1     8    1
    27     1     2    1
    28     9    12    1
    29     9    11    1
    30     8     5    1
    31    12     5    1
    32     6     5    2
    33     5     7    1
