@<TRIPOS>MOLECULE
3ied_AN2_A_1.pdb
 27 29 0 0 0
SMALL
GASTEIGER

@<TRIPOS>ATOM
      1  N3B       31.0610   35.3980   18.2400 N.3   401  AN2401     -0.0178
      2  PB        31.6940   36.9570   17.7630 P.3   401  AN2401      0.4738
      3  O2B       33.1010   37.0430   18.2830 O.3   401  AN2401     -0.1247
      4  O1B       30.7100   38.0060   18.2190 O.2   401  AN2401     -0.2343
      5  O3A       31.7890   37.0260   16.1540 O.3   401  AN2401     -0.2354
      6  PA        30.7130   36.4190   15.0970 P.3   401  AN2401      0.2220
      7  O1A       29.8460   35.3530   15.7320 O.3   401  AN2401     -0.4370
      8  O2A       31.4670   36.0770   13.8410 O.2   401  AN2401     -0.5170
      9  O5'       29.7920   37.6810   14.7920 O.3   401  AN2401     -0.3111
     10  C5'       30.3830   38.8750   14.3090 C.3   401  AN2401      0.1813
     11  C4'       29.5080   40.0350   14.7460 C.3   401  AN2401      0.1821
     12  O4'       28.2590   40.0150   14.0420 O.3   401  AN2401     -0.3135
     13  C3'       29.1250   39.9620   16.2030 C.3   401  AN2401      0.2184
     14  O3'       30.1050   40.5160   17.0780 O.3   401  AN2401     -0.2174
     15  C2'       27.8480   40.7710   16.2530 C.3   401  AN2401      0.2570
     16  O2'       28.1630   42.1530   16.4710 O.3   401  AN2401     -0.2130
     17  C1'       27.2360   40.5660   14.8790 C.3   401  AN2401      0.3186
     18  N9        26.0880   39.6520   15.0340 N.pl3 401  AN2401     -0.1439
     19  C8        26.4270   38.2530   14.8920 C.3   401  AN2401      0.3377
     20  N7        25.1150   37.6700   15.1160 N.2   401  AN2401     -0.2095
     21  C5        24.1780   38.6150   15.3540 C.2   401  AN2401      0.2526
     22  C4        24.8260   39.9390   15.3060 C.2   401  AN2401      0.3518
     23  N3        24.0930   41.0490   15.5100 N.2   401  AN2401     -0.0055
     24  C2        22.7740   40.9730   15.7700 C.3   401  AN2401      0.5254
     25  N1        22.1090   39.8110   15.8240 N.2   401  AN2401      0.0021
     26  C6        22.7270   38.6270   15.6340 C.2   401  AN2401      0.4393
     27  N6        22.0380   37.4710   15.7070 N.pl3 401  AN2401      0.2180
@<TRIPOS>BOND
     1     8     6    2
     2    12    11    1
     3    12    17    1
     4    10    11    1
     5    10     9    1
     6    11    13    1
     7     9     6    1
     8    17    18    1
     9    17    15    1
    10    19    18    1
    11    19    20    1
    12    18    22    1
    13     6     7    1
    14     6     5    1
    15    20    21    2
    16    22    21    1
    17    22    23    2
    18    21    26    1
    19    23    24    1
    20    26    27    1
    21    26    25    2
    22    24    25    1
    23     5     2    1
    24    13    15    1
    25    13    14    1
    26    15    16    1
    27     2     4    2
    28     2     1    1
    29     2     3    1
