@<TRIPOS>MOLECULE
3iei_SAH_A_1.pdb
 26 28 0 0 0
SMALL
GASTEIGER

@<TRIPOS>ATOM
      1  N        -21.7530    3.6480   34.7840 N.3   601  SAH601     -0.1208
      2  CA       -22.6110    2.4140   34.7190 C.3   601  SAH601      0.1952
      3  CB       -22.5440    1.5850   36.0100 C.3   601  SAH601      0.0422
      4  CG       -22.9970    2.3360   37.2710 C.3   601  SAH601      0.0597
      5  SD       -22.8290    1.2940   38.6910 S.3   601  SAH601     -0.1375
      6  C        -24.0290    2.8160   34.4600 C.2   601  SAH601      0.3819
      7  O        -24.3900    3.9610   34.7120 O.co2 601  SAH601     -0.2441
      8  OXT      -24.8580    2.0080   34.0160 O.co2 601  SAH601     -0.2441
      9  C5'      -21.3030    1.9010   39.3540 C.3   601  SAH601      0.0899
     10  C4'      -20.0940    1.2510   38.6790 C.3   601  SAH601      0.1630
     11  O4'      -18.9000    1.9100   39.1430 O.3   601  SAH601     -0.3153
     12  C3'      -19.9330   -0.2280   39.0490 C.3   601  SAH601      0.2168
     13  O3'      -19.7690   -0.9910   37.8490 O.3   601  SAH601     -0.2175
     14  C2'      -18.6770   -0.2590   39.9060 C.3   601  SAH601      0.2569
     15  O2'      -17.9710   -1.5150   39.8580 O.3   601  SAH601     -0.2130
     16  C1'      -17.8880    0.9360   39.3780 C.3   601  SAH601      0.3185
     17  N9       -16.8830    1.4200   40.3590 N.pl3 601  SAH601     -0.1439
     18  C8       -17.1520    1.9820   41.5600 C.3   601  SAH601      0.3377
     19  N7       -16.0190    2.2940   42.2280 N.2   601  SAH601     -0.2095
     20  C5       -14.9850    1.9330   41.4420 C.2   601  SAH601      0.2526
     21  C6       -13.5120    1.9820   41.5390 C.2   601  SAH601      0.4393
     22  N6       -12.9110    2.5030   42.6470 N.pl3 601  SAH601      0.2180
     23  N1       -12.8000    1.4950   40.4870 N.2   601  SAH601      0.0021
     24  C2       -13.3820    0.9720   39.3880 C.3   601  SAH601      0.5254
     25  N3       -14.7220    0.9020   39.2330 N.2   601  SAH601     -0.0055
     26  C4       -15.5580    1.3560   40.2050 C.2   601  SAH601      0.3518
@<TRIPOS>BOND
     1     8     6   ar
     2     6     7   ar
     3     6     2    1
     4     2     1    1
     5     2     3    1
     6     3     4    1
     7     4     5    1
     8    13    12    1
     9    10    12    1
    10    10    11    1
    11    10     9    1
    12     5     9    1
    13    12    14    1
    14    11    16    1
    15    25    24    1
    16    25    26    2
    17    16    14    1
    18    16    17    1
    19    24    23    1
    20    15    14    1
    21    26    17    1
    22    26    20    1
    23    17    18    1
    24    23    21    2
    25    20    21    1
    26    20    19    2
    27    21    22    1
    28    18    19    1
