@<TRIPOS>MOLECULE
3iej_599_A_1.pdb
 38 42 0 0 0
SMALL
GASTEIGER

@<TRIPOS>ATOM
      1  C1        -5.1660  -22.1770    8.8400 C.3   221  599221      0.1046
      2  N2        -4.9770  -21.3910    7.6340 N.3   221  599221     -0.2684
      3  C3        -6.1370  -20.6820    7.0940 C.3   221  599221      0.1046
      4  C4        -6.5570  -19.7320    8.2340 C.3   221  599221      0.1595
      5  O5        -6.6950  -20.4170    9.4980 O.3   221  599221     -0.3508
      6  C6        -5.5600  -21.1750    9.9310 C.3   221  599221      0.1595
      7  C13       -3.6530  -21.2560    7.0430 C.3   221  599221      0.0743
      8  C14       -3.5080  -22.2970    5.9520 C.3   221  599221      0.0437
      9  C15       -2.1600  -22.1560    5.2430 C.3   221  599221      0.1285
     10  N16       -1.3020  -23.2720    5.6430 N.ar  221  599221     -0.2551
     11  N21       -0.4110  -22.9710    6.6630 N.ar  221  599221     -0.1699
     12  C22        0.2870  -24.0990    6.9070 C.ar  221  599221      0.0996
     13  C23       -0.1870  -25.1060    6.0780 C.ar  221  599221      0.0303
     14  C24       -1.1890  -24.5610    5.2870 C.ar  221  599221      0.0564
     15  C30       -1.9300  -25.3460    4.2330 C.3   221  599221      0.0667
     16  C31       -1.5950  -26.8350    4.3500 C.3   221  599221      0.1001
     17  N32       -0.1430  -26.9390    4.5710 N.am  221  599221     -0.2728
     18  C33        0.2610  -26.5510    5.9380 C.3   221  599221      0.1229
     19  C39        1.3300  -24.1640    7.9480 C.ar  221  599221      0.0198
     20  C41        2.2520  -23.1200    8.0180 C.ar  221  599221      0.0024
     21  C42        3.2290  -23.1230    8.9990 C.ar  221  599221      0.0121
     22  C43        3.2630  -24.1680    9.9250 C.ar  221  599221      0.0653
     23  C44        2.3400  -25.2100    9.8640 C.ar  221  599221      0.0526
     24  C45        1.3550  -25.2110    8.8720 C.ar  221  599221      0.0106
     25  C52        2.3660  -26.1530   10.7410 C.1   221  599221     -0.0589
     26  C53        2.4790  -26.8770   11.6820 C.1   221  599221     -0.0597
     27  C54        2.4340  -27.6420   12.7210 C.ar  221  599221      0.0420
     28  C58        1.6180  -28.7780   12.7190 C.ar  221  599221      0.0091
     29  C59        1.5870  -29.6230   13.8320 C.ar  221  599221      0.0120
     30  C60        2.3820  -29.3360   14.9450 C.ar  221  599221      0.0577
     31  C61        3.2090  -28.2040   14.9350 C.ar  221  599221      0.0120
     32  C62        3.2260  -27.3550   13.8250 C.ar  221  599221      0.0091
     33  C69        0.7440  -27.3020    3.6440 C.2   221  599221      0.2595
     34  C70        0.3280  -27.4090    2.1890 C.3   221  599221      0.2665
     35  O71        1.5010  -27.4360    1.3560 O.3   221  599221     -0.2099
     36  O77        1.8950  -27.5290    3.9310 O.2   221  599221     -0.2720
     37 CL81        4.5270  -24.1460   11.1880 Cl    221  599221     -0.0816
     38 CL83        2.3300  -30.4130   16.3840 Cl    221  599221     -0.0822
@<TRIPOS>BOND
     1    35    34    1
     2    34    33    1
     3    33    36    2
     4    33    17   am
     5    15    16    1
     6    15    14    1
     7    16    17    1
     8    17    18    1
     9     9    10    1
    10     9     8    1
    11    14    10   ar
    12    14    13   ar
    13    10    11   ar
    14    18    13    1
    15     8     7    1
    16    13    12   ar
    17    11    12   ar
    18    12    19    1
    19     7     2    1
    20     3     2    1
    21     3     4    1
    22     2     1    1
    23    19    20   ar
    24    19    24   ar
    25    20    21   ar
    26     4     5    1
    27     1     6    1
    28    24    23   ar
    29    21    22   ar
    30     5     6    1
    31    23    22   ar
    32    23    25    1
    33    22    37    1
    34    25    26    3
    35    26    27    1
    36    28    27   ar
    37    28    29   ar
    38    27    32   ar
    39    32    31   ar
    40    29    30   ar
    41    31    30   ar
    42    30    38    1
