@<TRIPOS>MOLECULE
3iel_U5P_A_1.pdb
 21 22 0 0 0
SMALL
GASTEIGER

@<TRIPOS>ATOM
      1  N1        24.2030  -10.3850   35.1330 N.am  465  U5P465     -0.1766
      2  C2        23.9900  -11.6920   34.4850 C.1   465  U5P465      0.2845
      3  N3        23.5620  -12.7460   35.2470 N.2   465  U5P465     -0.2452
      4  C4        23.3260  -12.6080   36.6110 C.1   465  U5P465      0.2182
      5  C5        23.5200  -11.3670   37.2800 C.2   465  U5P465      0.1242
      6  C6        23.9670  -10.2550   36.4990 C.2   465  U5P465      0.0929
      7  O2        24.1890  -11.8790   33.2360 O.2   465  U5P465     -0.1918
      8  O4        22.9310  -13.6330   37.2340 O.2   465  U5P465     -0.2085
      9  C1'       24.6620   -9.3050   34.1970 C.3   465  U5P465      0.2401
     10  C2'       23.7620   -8.1350   33.8190 C.3   465  U5P465      0.2319
     11  O2'       23.7760   -7.8550   32.4050 O.3   465  U5P465     -0.2157
     12  C3'       24.2830   -6.9560   34.6480 C.3   465  U5P465      0.2158
     13  C4'       25.7430   -7.3230   34.9530 C.3   465  U5P465      0.1801
     14  O3'       24.2180   -5.6910   33.9880 O.3   465  U5P465     -0.2175
     15  O4'       25.9000   -8.7350   34.6860 O.3   465  U5P465     -0.3320
     16  C5'       26.2260   -6.9790   36.3940 C.3   465  U5P465      0.1859
     17  O5'       25.1650   -6.9020   37.3750 O.3   465  U5P465     -0.2675
     18  P         25.4110   -6.4620   38.7900 P.3   465  U5P465      0.5327
     19  O1P       25.1160   -5.0350   38.9400 O.2   465  U5P465     -0.2224
     20  O2P       24.5510   -7.4150   39.7760 O.3   465  U5P465     -0.1145
     21  O3P       26.8520   -6.6980   39.1570 O.3   465  U5P465     -0.1145
@<TRIPOS>BOND
     1    11    10    1
     2     7     2    2
     3    10     9    1
     4    10    12    1
     5    14    12    1
     6     9    15    1
     7     9     1    1
     8     2     1   am
     9     2     3    2
    10    12    13    1
    11    15    13    1
    12    13    16    1
    13     1     6    1
    14     3     4    2
    15    16    17    1
    16     6     5    2
    17     4     8    2
    18     4     5    1
    19    17    18    1
    20    18    19    2
    21    18    21    1
    22    18    20    1
