@<TRIPOS>MOLECULE
3iem_NUC_J_1.pdb
 41 44 0 0 0
SMALL
GASTEIGER

@<TRIPOS>ATOM
      1  O3'        1.4540   -4.0520   10.9520 O.2     1  RU1        -0.2426
      2  O2'        6.0490   -7.7840   11.9720 O.3     2  RU2        -0.2158
      3  C2'        5.3890   -6.7390   12.6430 C.3     2  RU2         0.2292
      4  C1'        5.8320   -6.7220   14.0970 C.3     2  RU2         0.2400
      5  O4'        5.5540   -5.4140   14.5450 O.3     2  RU2        -0.3321
      6  C4'        5.5890   -4.4970   13.4150 C.3     2  RU2         0.1773
      7  C5'        4.2850   -3.7470   13.3590 C.3     2  RU2         0.1842
      8  O5'        3.3190   -4.5050   12.6040 O.3     2  RU2        -0.2822
      9  P          1.7800   -3.9910   12.4410 P.3     2  RU2         0.4295
     10  S1P        0.6330   -5.1320   13.3730 S.3     2  RU2         0.0413
     11  OP2        1.7300   -2.5870   13.0300 O.3     2  RU2        -0.1307
     12  C3'        5.8500   -5.3640   12.1920 C.3     2  RU2         0.1887
     13  O3'        7.2260   -5.4100   11.8650 O.3     2  RU2        -0.2834
     14  N1         5.0740   -7.6740   14.9160 N.am    2  RU2        -0.1766
     15  C6         3.8320   -7.3600   15.4140 C.2     2  RU2         0.0929
     16  C5         3.1120   -8.2150   16.1470 C.2     2  RU2         0.1242
     17  C4         3.6350   -9.5120   16.4380 C.1     2  RU2         0.2182
     18  O4         3.0650  -10.3900   17.0800 O.2     2  RU2        -0.2085
     19  N3         4.8870   -9.7600   15.9160 N.2     2  RU2        -0.2452
     20  C2         5.6520   -8.9050   15.1590 C.1     2  RU2         0.2845
     21  O2         6.7620   -9.2140   14.7390 O.2     2  RU2        -0.1918
     22  O2'        7.0270  -11.0850   10.9370 O.3     3  RU3        -0.2157
     23  C2'        7.3880   -9.9080   10.2380 C.3     3  RU3         0.2319
     24  C1'        8.1680  -10.2730    8.9770 C.3     3  RU3         0.2401
     25  O4'        7.9910   -9.1900    8.0880 O.3     3  RU3        -0.3320
     26  C4'        6.7360   -8.5180    8.3810 C.3     3  RU3         0.1800
     27  C5'        6.9400   -7.0090    8.3510 C.3     3  RU3         0.1843
     28  O5'        6.6460   -6.4210    9.6230 O.3     3  RU3        -0.2836
     29  P          7.6570   -5.3940   10.3240 P.3     3  RU3         0.4035
     30  S1P        7.4120   -3.4130    9.6190 S.3     3  RU3         0.0393
     31  OP2        9.0620   -5.8550   10.1690 O.2     3  RU3        -0.2449
     32  C3'        6.1870   -9.1570    9.6570 C.3     3  RU3         0.2158
     33  O3'        5.1360  -10.0810    9.3540 O.3     3  RU3        -0.2175
     34  N1         9.6100  -10.4580    9.2010 N.am    3  RU3        -0.1766
     35  C6        10.5120   -9.4540    8.9170 C.2     3  RU3         0.0929
     36  C5        11.8310   -9.6020    9.0820 C.2     3  RU3         0.1242
     37  C4        12.3510  -10.8480    9.5680 C.1     3  RU3         0.2182
     38  O4        13.5400  -11.1330    9.6940 O.2     3  RU3        -0.2085
     39  N3        11.3950  -11.8020    9.8480 N.2     3  RU3        -0.2452
     40  C2        10.0360  -11.6790    9.6970 C.1     3  RU3         0.2845
     41  O2         9.2680  -12.5790    9.9860 O.2     3  RU3        -0.1918
@<TRIPOS>BOND
     1    25    26    1
     2    25    24    1
     3    27    26    1
     4    27    28    1
     5    26    32    1
     6    35    36    2
     7    35    34    1
     8    24    34    1
     9    24    23    1
    10    36    37    1
    11    34    40   am
    12    33    32    1
    13    37    38    2
    14    37    39    2
    15    30    29    1
    16    28    29    1
    17    32    23    1
    18    40    39    2
    19    40    41    2
    20    31    29    2
    21    23    22    1
    22    29    13    1
    23     1     9    2
    24    13    12    1
    25     2     3    1
    26    12     3    1
    27    12     6    1
    28     9     8    1
    29     9    11    1
    30     9    10    1
    31     8     7    1
    32     3     4    1
    33     7     6    1
    34     6     5    1
    35     4     5    1
    36     4    14    1
    37    21    20    2
    38    14    20   am
    39    14    15    1
    40    20    19    2
    41    15    16    2
    42    19    17    2
    43    16    17    1
    44    17    18    2
