@<TRIPOS>MOLECULE
3ieo_AMJ_A_1.pdb
 18 18 0 0 0
SMALL
GASTEIGER

@<TRIPOS>ATOM
      1  C         -5.7070    8.1990   12.0880 C.2   300  AMJ300      0.2641
      2  N         -5.1340    6.0750   13.1670 N.am  300  AMJ300     -0.1951
      3  O         -6.2950    9.1100   12.6680 O.2   300  AMJ300     -0.2714
      4  CA        -4.6100    7.3960   12.7910 C.3   300  AMJ300      0.2021
      5  CB        -3.4180    7.2240   11.8470 C.3   300  AMJ300      0.1732
      6  CAA       -3.6230    4.9190   11.4990 C.3   300  AMJ300      0.1742
      7  CAB       -7.0550    7.2340   14.0610 C.3   300  AMJ300      0.0964
      8  OAC       -6.7780    4.8430   14.1110 O.2   300  AMJ300     -0.2733
      9  CAE       -5.0600   10.9920    7.0690 C.ar  300  AMJ300     -0.0000
     10  CAF       -6.0070   11.5360    7.9290 C.ar  300  AMJ300     -0.0003
     11  CAG       -4.7320    9.6450    7.1590 C.ar  300  AMJ300     -0.0003
     12  CAH       -6.6250   10.7320    8.8790 C.ar  300  AMJ300     -0.0026
     13  CAI       -5.3500    8.8410    8.1090 C.ar  300  AMJ300     -0.0026
     14  CAJ       -6.9780    8.4990   10.0150 C.3   300  AMJ300      0.1415
     15  NAL       -5.9550    7.8320   10.8340 N.am  300  AMJ300     -0.1990
     16  OAN       -2.8090    5.9440   12.0740 O.3   300  AMJ300     -0.3487
     17  CAO       -6.3050    5.9300   13.7810 C.2   300  AMJ300      0.2423
     18  CAQ       -6.2970    9.3840    8.9690 C.ar  300  AMJ300     -0.0006
@<TRIPOS>BOND
     1     9    11   ar
     2     9    10   ar
     3    11    13   ar
     4    10    12   ar
     5    13    18   ar
     6    12    18   ar
     7    18    14    1
     8    14    15    1
     9    15     1   am
    10     6    16    1
    11     5    16    1
    12     5     4    1
    13     1     3    2
    14     1     4    1
    15     4     2    1
    16     2    17   am
    17    17     7    1
    18    17     8    2
