@<TRIPOS>MOLECULE
3ieq_C_A_1.pdb
 17 18 0 0 0
SMALL
GASTEIGER

@<TRIPOS>ATOM
      1  O5'       23.8250  -35.8370    1.8440 O.3   901  C901       -0.2176
      2  C5'       24.0140  -36.5500    3.0680 C.3   901  C901        0.2142
      3  C4'       22.6800  -36.7680    3.7560 C.3   901  C901        0.1829
      4  O4'       22.0530  -35.4770    3.9820 O.3   901  C901       -0.3318
      5  C3'       21.7040  -37.6160    2.9440 C.3   901  C901        0.2159
      6  O3'       21.2040  -38.7110    3.7200 O.3   901  C901       -0.2175
      7  C2'       20.5770  -36.6620    2.5550 C.3   901  C901        0.2319
      8  O2'       19.3100  -37.3010    2.6170 O.3   901  C901       -0.2157
      9  C1'       20.7040  -35.5220    3.5640 C.3   901  C901        0.2400
     10  N1        20.3350  -34.1880    2.9720 N.am  901  C901       -0.1778
     11  C2        19.2210  -33.5040    3.4800 C.1   901  C901        0.2756
     12  O2        18.5750  -34.0080    4.4030 O.2   901  C901       -0.1925
     13  N3        18.8720  -32.3060    2.9400 N.2   901  C901       -0.3024
     14  C4        19.5840  -31.7870    1.9410 C.2   901  C901        0.2346
     15  N4        19.1930  -30.6040    1.4520 N.pl3 901  C901       -0.0921
     16  C5        20.7290  -32.4620    1.4070 C.2   901  C901        0.0687
     17  C6        21.0630  -33.6430    1.9460 C.2   901  C901        0.0836
@<TRIPOS>BOND
     1    16    14    1
     2    16    17    2
     3    15    14    1
     4     1     2    1
     5    14    13    2
     6    17    10    1
     7     7     8    1
     8     7     5    1
     9     7     9    1
    10    13    11    2
    11     5     6    1
    12     5     3    1
    13    10    11   am
    14    10     9    1
    15     2     3    1
    16    11    12    2
    17     9     4    1
    18     3     4    1
