@<TRIPOS>MOLECULE
3ies_M24_A_1.pdb
 43 48 0 0 0
SMALL
GASTEIGER

@<TRIPOS>ATOM
      1  P        -29.9490   11.6760   -8.2560 P.3   552  M24552      0.2725
      2  N1       -30.5710    6.5980  -16.9790 N.2   552  M24552      0.0021
      3  C2       -30.8850    7.8810  -17.2360 C.3   552  M24552      0.5254
      4  N3       -30.9680    8.8080  -16.2720 N.2   552  M24552     -0.0055
      5  C4       -30.7600    8.4780  -14.9700 C.2   552  M24552      0.3518
      6  C5       -30.4320    7.1890  -14.6300 C.2   552  M24552      0.2526
      7  C6       -30.3230    6.1970  -15.7140 C.2   552  M24552      0.4393
      8  N6       -30.0150    4.8960  -15.4330 N.pl3 552  M24552      0.2180
      9  N7       -30.2800    7.1350  -13.2780 N.2   552  M24552     -0.2095
     10  C8       -30.4860    8.3880  -12.8200 C.3   552  M24552      0.3377
     11  N9       -30.7910    9.1840  -13.8450 N.pl3 552  M24552     -0.1439
     12  C1'      -31.0760   10.6270  -13.7640 C.3   552  M24552      0.3186
     13  O1P      -28.5000   12.1110   -8.0910 O.2   552  M24552     -0.5081
     14  C2'      -32.5700   10.9110  -13.8360 C.3   552  M24552      0.2570
     15  O2'      -32.7170   12.1550  -14.5040 O.3   552  M24552     -0.2130
     16  C24      -29.3110    9.0710   -8.7260 C.2   552  M24552      0.3452
     17  O25      -28.7160    9.3800   -9.7440 O.2   552  M24552     -0.2446
     18  C26      -29.3490    7.6750   -8.1350 C.ar  552  M24552      0.0766
     19  C27      -29.8300    7.5370   -6.8320 C.ar  552  M24552      0.0065
     20  C28      -29.9080    6.2970   -6.2210 C.ar  552  M24552      0.0009
     21  C29      -29.4780    5.1740   -6.8950 C.ar  552  M24552      0.0111
     22  O2P      -30.0290   10.0780   -8.0060 O.3   552  M24552     -0.4070
     23  C3'      -32.9830   11.1000  -12.3980 C.3   552  M24552      0.2184
     24  O3'      -34.1040   11.9960  -12.3110 O.3   552  M24552     -0.2174
     25  C30      -29.0160    5.3030   -8.1840 C.ar  552  M24552      0.0773
     26  C31      -28.9310    6.5500   -8.8140 C.ar  552  M24552      0.0176
     27  C32      -28.5770    4.0720   -8.8740 C.1   552  M24552      0.1272
     28  N33      -28.1660    4.0820  -10.1370 N.2   552  M24552     -0.0068
     29  O34      -27.8380    2.8190  -10.4220 O.2   552  M24552     -0.3108
     30  C35      -28.0300    2.0150   -9.3780 C.2   552  M24552      0.3191
     31  N36      -28.4910    2.7990   -8.3740 N.2   552  M24552     -0.3085
     32  C37      -27.8070    0.5730   -9.4060 C.ar  552  M24552      0.0966
     33  C38      -27.2860   -0.0490  -10.5170 C.ar  552  M24552      0.0081
     34  C39      -27.1230   -1.4290  -10.4870 C.ar  552  M24552      0.0003
     35  O3P      -31.0030   12.1060   -7.2900 O.3   552  M24552     -0.4273
     36  C4'      -31.7240   11.6650  -11.7510 C.3   552  M24552      0.1822
     37  O4'      -30.6180   11.1190  -12.5050 O.3   552  M24552     -0.3135
     38  C40      -27.5140   -2.1450   -9.3600 C.ar  552  M24552      0.0023
     39  C41      -28.0770   -1.4940   -8.2690 C.ar  552  M24552      0.0298
     40  C42      -28.2190   -0.1240   -8.3000 C.ar  552  M24552      0.1458
     41  F43      -28.7410    0.5880   -7.2920 F     552  M24552     -0.2040
     42  C5'      -31.6050   11.2750  -10.2860 C.3   552  M24552      0.1823
     43  O5'      -30.3700   11.8180   -9.8030 O.3   552  M24552     -0.3024
@<TRIPOS>BOND
     1     3     2    1
     2     3     4    1
     3     2     7    2
     4     4     5    2
     5     7     8    1
     6     7     6    1
     7     5     6    1
     8     5    11    1
     9     6     9    2
    10    15    14    1
    11    11    12    1
    12    11    10    1
    13    14    12    1
    14    14    23    1
    15    12    37    1
    16     9    10    1
    17    37    36    1
    18    23    24    1
    19    23    36    1
    20    36    42    1
    21    33    34   ar
    22    33    32   ar
    23    34    38   ar
    24    29    28    1
    25    29    30    1
    26    42    43    1
    27    28    27    2
    28    43     1    1
    29    17    16    2
    30    32    30    1
    31    32    40   ar
    32    30    31    2
    33    38    39   ar
    34    27    31    2
    35    27    25    1
    36    26    25   ar
    37    26    18   ar
    38    16    18    1
    39    16    22    1
    40    40    39   ar
    41    40    41    1
    42     1    13    2
    43     1    22    1
    44     1    35    1
    45    25    21   ar
    46    18    19   ar
    47    21    20   ar
    48    19    20   ar
