@<TRIPOS>MOLECULE
3iet_A2G_Q_1.pdb
 14 14 0 0 0
SMALL
GASTEIGER

@<TRIPOS>ATOM
      1  O         51.4890   13.0240   10.3560 O.3   800  A2G800     -0.3489
      2  C1        52.7810   12.3680   10.2710 C.3   800  A2G800      0.1665
      3  C2        52.5950   11.0150    9.6000 C.3   800  A2G800      0.1576
      4  N2        53.8970   10.3540    9.4830 N.am  800  A2G800     -0.2019
      5  C3        52.0140   11.2140    8.1980 C.3   800  A2G800      0.2069
      6  O3        51.8680    9.9610    7.5230 O.3   800  A2G800     -0.2184
      7  C4        50.6740   11.9030    8.3500 C.3   800  A2G800      0.2134
      8  O4        49.7780   11.0650    9.0990 O.3   800  A2G800     -0.2176
      9  C5        50.8790   13.2340    9.0660 C.3   800  A2G800      0.1809
     10  C6        49.5040   13.8210    9.3290 C.3   800  A2G800      0.2141
     11  O6        48.7730   14.0010    8.1120 O.3   800  A2G800     -0.2176
     12  C7        54.1050    9.1490   10.0100 C.2   800  A2G800      0.2420
     13  O7        53.2510    8.5170   10.6290 O.2   800  A2G800     -0.2733
     14  C8        55.5150    8.5800    9.8160 C.3   800  A2G800      0.0964
@<TRIPOS>BOND
     1     6     5    1
     2    11    10    1
     3     5     7    1
     4     5     3    1
     5     7     9    1
     6     7     8    1
     7     9    10    1
     8     9     1    1
     9     4     3    1
    10     4    12   am
    11     3     2    1
    12    14    12    1
    13    12    13    2
    14     2     1    1
