@<TRIPOS>MOLECULE
3iet_III_Q_1.pdb
 42 43 0 0 0
SMALL
GASTEIGER

@<TRIPOS>ATOM
      1  N         60.0520   14.3250    9.0600 N.3   212  GLY212     -0.1210
      2  CA        58.6550   14.0130    8.8440 C.3   212  GLY212      0.1956
      3  C         57.7470   14.5050    9.9530 C.2   212  GLY212      0.2613
      4  O         58.1220   15.3740   10.7450 O.2   212  GLY212     -0.2717
      5  N         56.5490   13.9250   10.0130 N.am  213  THR213     -0.1938
      6  CA        55.4720   14.3940   10.9130 C.3   213  THR213      0.2028
      7  C         55.3630   13.5010   12.1570 C.2   213  THR213      0.2642
      8  O         55.8860   12.3890   12.1920 O.2   213  THR213     -0.2714
      9  CB        54.1550   14.4660   10.0820 C.3   213  THR213      0.1808
     10  OG1       53.6580   13.2160    9.4830 O.3   213  THR213     -0.2208
     11  CG2       54.2570   15.5460    8.9970 C.3   213  THR213      0.0379
     12  N         54.6970   14.0130   13.1850 N.am  214  LYS214     -0.1963
     13  CA        54.4990   13.2460   14.4090 C.3   214  LYS214      0.1713
     14  C         53.6560   12.0050   14.1290 C.2   214  LYS214      0.2458
     15  O         52.5080   12.1160   13.6920 O.2   214  LYS214     -0.2730
     16  CB        53.8260   14.1060   15.4820 C.3   214  LYS214      0.0311
     17  CG        52.4100   14.5640   15.1250 C.3   214  LYS214      0.0038
     18  CD        51.5470   14.7840   16.3690 C.3   214  LYS214      0.0206
     19  CE        51.5570   13.5510   17.2800 C.3   214  LYS214      0.1093
     20  NZ        52.7700   13.5210   18.1660 N.3   214  LYS214     -0.1314
     21  N         54.2180   10.8180   14.3700 N.am  215  PRO215     -0.2716
     22  CA        53.4810    9.5780   14.1300 C.3   215  PRO215      0.1521
     23  C         52.6890    9.1800   15.3640 C.2   215  PRO215      0.2440
     24  O         52.8590    9.7860   16.4220 O.2   215  PRO215     -0.2731
     25  CB        54.5860    8.5430   13.8920 C.3   215  PRO215      0.0310
     26  CG        55.9040    9.2420   14.2440 C.3   215  PRO215      0.0237
     27  CD        55.5760   10.5510   14.8790 C.3   215  PRO215      0.0939
     28  N         51.8280    8.1650   15.2280 N.am  216  PRO216     -0.2716
     29  CA        51.0820    7.5880   16.3470 C.3   216  PRO216      0.1536
     30  C         52.0150    6.8440   17.2890 C.2   216  PRO216      0.2598
     31  O         53.0720    6.3650   16.8710 O.2   216  PRO216     -0.2715
     32  CB        50.1650    6.5800   15.6530 C.3   216  PRO216      0.0310
     33  CG        50.9220    6.2160   14.4100 C.3   216  PRO216      0.0237
     34  CD        51.4440    7.5370   13.9550 C.3   216  PRO216      0.0939
     35  N         51.6030    6.7430   18.5470 N.am  217  LEU217     -0.1978
     36  CA        52.3480    6.0160   19.5680 C.3   217  LEU217      0.1596
     37  C         52.8420    4.6600   19.0710 C.2   217  LEU217      0.2287
     38  O         52.0510    3.7650   18.7700 O.2   217  LEU217     -0.2864
     39  CB        51.4790    5.8340   20.8130 C.3   217  LEU217      0.0297
     40  CG        51.3610    7.0690   21.7120 C.3   217  LEU217      0.0022
     41  CD1       51.6110    8.3550   20.9410 C.3   217  LEU217      0.0001
     42  CD2       50.0170    7.1130   22.4240 C.3   217  LEU217      0.0001
@<TRIPOS>BOND
     1     2     1    1
     2     2     3    1
     3    11     9    1
     4    10     9    1
     5     3     5   am
     6     3     4    2
     7     5     6    1
     8     9     6    1
     9     6     7    1
    10     7     8    2
    11     7    12   am
    12    12    13    1
    13    15    14    2
    14    25    22    1
    15    25    26    1
    16    34    33    1
    17    34    28    1
    18    14    21   am
    19    14    13    1
    20    22    21    1
    21    22    23    1
    22    26    27    1
    23    21    27    1
    24    13    16    1
    25    33    32    1
    26    17    16    1
    27    17    18    1
    28    28    23   am
    29    28    29    1
    30    23    24    2
    31    32    29    1
    32    29    30    1
    33    18    19    1
    34    31    30    2
    35    19    20    1
    36    30    35   am
    37    35    36    1
    38    38    37    2
    39    37    36    1
    40    36    39    1
    41    39    40    1
    42    41    40    1
    43    40    42    1
