@<TRIPOS>MOLECULE
3ieu_GDP_A_1.pdb
 28 30 0 0 0
SMALL
GASTEIGER

@<TRIPOS>ATOM
      1  PB        20.3110   28.8310   37.4010 P.3   302  GDP302      0.5373
      2  O1B       21.2860   28.7420   38.5620 O.3   302  GDP302     -0.1143
      3  O2B       20.0850   30.2840   37.0120 O.2   302  GDP302     -0.2221
      4  O3B       19.0100   28.2010   37.8410 O.3   302  GDP302     -0.1143
      5  O3A       20.9360   28.0410   36.1650 O.3   302  GDP302     -0.2261
      6  PA        20.4830   26.6030   35.6160 P.3   302  GDP302      0.2231
      7  O1A       19.3210   26.8000   34.6460 O.2   302  GDP302     -0.5169
      8  O2A       20.1480   25.6750   36.7460 O.3   302  GDP302     -0.4370
      9  O5'       21.7450   26.0890   34.7630 O.3   302  GDP302     -0.3111
     10  C5'       22.0760   26.9240   33.6430 C.3   302  GDP302      0.1813
     11  C4'       22.8970   26.2010   32.6170 C.3   302  GDP302      0.1799
     12  O4'       23.9410   25.5460   33.3210 O.3   302  GDP302     -0.3326
     13  C3'       22.0770   25.1130   31.9540 C.3   302  GDP302      0.2158
     14  O3'       22.3160   25.1260   30.5470 O.3   302  GDP302     -0.2175
     15  C2'       22.6110   23.8240   32.5280 C.3   302  GDP302      0.2310
     16  O2'       22.5470   22.7140   31.6270 O.3   302  GDP302     -0.2158
     17  C1'       24.0370   24.2000   32.8600 C.3   302  GDP302      0.2293
     18  N9        24.5130   23.2870   33.9120 N.pl3 302  GDP302     -0.2354
     19  C8        23.9130   23.0660   35.0970 C.3   302  GDP302      0.2246
     20  N7        24.6120   22.1540   35.8180 N.2   302  GDP302     -0.2322
     21  C5        25.6740   21.7870   35.0900 C.2   302  GDP302      0.2182
     22  C6        26.8050   20.8600   35.2640 C.1   302  GDP302      0.2372
     23  O6        26.9240   20.1960   36.3180 O.2   302  GDP302     -0.2069
     24  N1        27.6880   20.7670   34.2580 N.2   302  GDP302     -0.2485
     25  C2        27.5740   21.4770   33.1200 C.1   302  GDP302      0.2531
     26  N2        28.5160   21.3260   32.1580 N.pl3 302  GDP302     -0.0226
     27  N3        26.5580   22.3470   32.8940 N.2   302  GDP302     -0.3074
     28  C4        25.6030   22.5340   33.8280 C.2   302  GDP302      0.2300
@<TRIPOS>BOND
     1    14    13    1
     2    16    15    1
     3    13    15    1
     4    13    11    1
     5    26    25    1
     6    15    17    1
     7    11    12    1
     8    11    10    1
     9    17    12    1
    10    17    18    1
    11    27    25    2
    12    27    28    2
    13    25    24    2
    14    10     9    1
    15    28    18    1
    16    28    21    1
    17    18    19    1
    18    24    22    2
    19     7     6    2
    20     9     6    1
    21    21    22    1
    22    21    20    2
    23    19    20    1
    24    22    23    2
    25     6     5    1
    26     6     8    1
    27     5     1    1
    28     3     1    2
    29     1     4    1
    30     1     2    1
