@<TRIPOS>MOLECULE
3iew_CDP_A_1.pdb
 25 26 0 0 0
SMALL
GASTEIGER

@<TRIPOS>ATOM
      1  O3B       28.9900  -37.5970    0.9580 O.3   901  CDP901     -0.1143
      2  PB        28.5130  -36.1960    0.6340 P.3   901  CDP901      0.5373
      3  O1B       29.0800  -35.1540    1.5710 O.3   901  CDP901     -0.1143
      4  O2B       28.6510  -35.8810   -0.8370 O.2   901  CDP901     -0.2221
      5  O3A       26.9060  -36.1850    0.9190 O.3   901  CDP901     -0.2261
      6  PA        25.9530  -34.8640    0.9810 P.3   901  CDP901      0.2231
      7  O1A       26.6620  -33.7750    1.7590 O.3   901  CDP901     -0.4370
      8  O2A       25.4470  -34.5480   -0.4060 O.2   901  CDP901     -0.5169
      9  O5'       24.6860  -35.3210    1.8860 O.3   901  CDP901     -0.3111
     10  C5'       23.9970  -36.5710    1.7410 C.3   901  CDP901      0.1813
     11  C4'       22.9940  -36.8450    2.8780 C.3   901  CDP901      0.1799
     12  O4'       22.4260  -35.6440    3.4170 O.3   901  CDP901     -0.3320
     13  C3'       21.8110  -37.6900    2.4070 C.3   901  CDP901      0.2158
     14  O3'       21.4300  -38.6920    3.3600 O.3   901  CDP901     -0.2175
     15  C2'       20.6560  -36.7290    2.2670 C.3   901  CDP901      0.2319
     16  O2'       19.4010  -37.3930    2.5170 O.3   901  CDP901     -0.2157
     17  C1'       21.0000  -35.6040    3.2380 C.3   901  CDP901      0.2400
     18  N1        20.5560  -34.3080    2.6960 N.am  901  CDP901     -0.1778
     19  C2        19.4570  -33.6280    3.2550 C.1   901  CDP901      0.2756
     20  O2        18.8430  -34.1040    4.2310 O.2   901  CDP901     -0.1925
     21  N3        19.0470  -32.4390    2.7440 N.2   901  CDP901     -0.3024
     22  C4        19.6790  -31.8730    1.7010 C.2   901  CDP901      0.2346
     23  N4        19.2600  -30.6870    1.2060 N.pl3 901  CDP901     -0.0921
     24  C5        20.7640  -32.5270    1.1360 C.2   901  CDP901      0.0687
     25  C6        21.1870  -33.7520    1.6520 C.2   901  CDP901      0.0836
@<TRIPOS>BOND
     1     4     2    2
     2     8     6    2
     3     2     5    1
     4     2     1    1
     5     2     3    1
     6     5     6    1
     7     6     7    1
     8     6     9    1
     9    24    25    2
    10    24    22    1
    11    23    22    1
    12    25    18    1
    13    22    21    2
    14    10     9    1
    15    10    11    1
    16    15    13    1
    17    15    16    1
    18    15    17    1
    19    13    11    1
    20    13    14    1
    21    18    17    1
    22    18    19   am
    23    21    19    2
    24    11    12    1
    25    17    12    1
    26    19    20    2
