@<TRIPOS>MOLECULE
3iew_CTP_B_1.pdb
 29 30 0 0 0
SMALL
GASTEIGER

@<TRIPOS>ATOM
      1  N1        10.4770  -27.1720  -24.3440 N.am  901  CTP901     -0.1778
      2  C2        10.8990  -27.2720  -25.6550 C.1   901  CTP901      0.2756
      3  N3        12.1450  -26.7920  -26.0340 N.2   901  CTP901     -0.3024
      4  C4        12.9910  -26.2070  -25.1080 C.2   901  CTP901      0.2346
      5  C5        12.5650  -26.0780  -23.7940 C.2   901  CTP901      0.0687
      6  C6        11.3630  -26.6850  -23.4080 C.2   901  CTP901      0.0836
      7  O2        10.1760  -27.8010  -26.4950 O.2   901  CTP901     -0.1925
      8  N4        14.1990  -25.7740  -25.4640 N.pl3 901  CTP901     -0.0921
      9  C1'        9.0970  -27.5920  -23.9540 C.3   901  CTP901      0.2400
     10  C2'        9.0560  -29.0370  -23.4620 C.3   901  CTP901      0.2319
     11  O2'        7.8980  -29.6870  -23.9390 O.3   901  CTP901     -0.2157
     12  C3'        9.0340  -28.9000  -21.9570 C.3   901  CTP901      0.2158
     13  C4'        8.1790  -27.6490  -21.8400 C.3   901  CTP901      0.1799
     14  O4'        8.5830  -26.7970  -22.8990 O.3   901  CTP901     -0.3320
     15  O3'        8.5760  -30.0370  -21.2270 O.3   901  CTP901     -0.2175
     16  C5'        8.3590  -26.9830  -20.4930 C.3   901  CTP901      0.1813
     17  O5'        9.7170  -26.6360  -20.3030 O.3   901  CTP901     -0.3112
     18  PA        10.1370  -26.1530  -18.8310 P.3   901  CTP901      0.2189
     19  O1A        9.6750  -24.7280  -18.6460 O.3   901  CTP901     -0.4371
     20  O2A       11.6320  -26.2760  -18.6530 O.2   901  CTP901     -0.5170
     21  O3A        9.3050  -27.1530  -17.8370 O.3   901  CTP901     -0.2700
     22  PB         9.0060  -26.8720  -16.2620 P.3   901  CTP901      0.2277
     23  O1B        9.9640  -25.8340  -15.7580 O.2   901  CTP901     -0.5168
     24  O2B        9.0780  -28.1490  -15.4470 O.3   901  CTP901     -0.4368
     25  O3B        7.5030  -26.2870  -16.1910 O.3   901  CTP901     -0.2258
     26  PG         6.8630  -25.6140  -14.8610 P.3   901  CTP901      0.5373
     27  O1G        7.1460  -26.4840  -13.6640 O.3   901  CTP901     -0.1143
     28  O2G        5.3630  -25.4910  -15.0170 O.2   901  CTP901     -0.2221
     29  O3G        7.4400  -24.2280  -14.6320 O.3   901  CTP901     -0.1143
@<TRIPOS>BOND
     1     7     2    2
     2     3     2    2
     3     3     4    2
     4     2     1   am
     5     8     4    1
     6     4     5    1
     7     1     9    1
     8     1     6    1
     9     9    10    1
    10     9    14    1
    11    11    10    1
    12     5     6    2
    13    10    12    1
    14    14    13    1
    15    12    13    1
    16    12    15    1
    17    13    16    1
    18    16    17    1
    19    17    18    1
    20    18    20    2
    21    18    19    1
    22    18    21    1
    23    21    22    1
    24    22    25    1
    25    22    23    2
    26    22    24    1
    27    25    26    1
    28    28    26    2
    29    26    29    1
    30    26    27    1
