@<TRIPOS>MOLECULE
3iex_GMP_A_1.pdb
 20 22 0 0 0
SMALL
GASTEIGER

@<TRIPOS>ATOM
      1  O5'      -20.2140   -0.1870  -31.6990 O.3   300  GMP300     -0.2176
      2  C5'      -21.0600    0.9060  -31.4320 C.3   300  GMP300      0.2142
      3  C4'      -21.5640    0.7660  -30.0080 C.3   300  GMP300      0.1828
      4  O4'      -20.5380    0.1480  -29.2610 O.3   300  GMP300     -0.3325
      5  C3'      -21.8120    2.1260  -29.3810 C.3   300  GMP300      0.2159
      6  O3'      -22.9310    2.0510  -28.5270 O.3   300  GMP300     -0.2175
      7  C2'      -20.5370    2.4180  -28.6050 C.3   300  GMP300      0.2310
      8  O2'      -20.8200    2.9140  -27.3120 O.3   300  GMP300     -0.2158
      9  C1'      -19.7950    1.0880  -28.5100 C.3   300  GMP300      0.2293
     10  N9       -18.4520    1.1540  -29.1210 N.pl3 300  GMP300     -0.2354
     11  C8       -17.7130    0.0780  -29.5330 C.3   300  GMP300      0.2246
     12  N7       -16.5520    0.5290  -30.0500 N.2   300  GMP300     -0.2322
     13  C5       -16.5380    1.8800  -29.9980 C.2   300  GMP300      0.2182
     14  C6       -15.6060    2.8370  -30.3990 C.1   300  GMP300      0.2372
     15  O6       -14.5330    2.5210  -30.9140 O.2   300  GMP300     -0.2069
     16  N1       -15.8930    4.1690  -30.2040 N.2   300  GMP300     -0.2485
     17  C2       -17.0780    4.5480  -29.6210 C.1   300  GMP300      0.2531
     18  N2       -17.3550    5.8320  -29.4380 N.pl3 300  GMP300     -0.0226
     19  N3       -17.9910    3.5960  -29.2370 N.2   300  GMP300     -0.3074
     20  C4       -17.7310    2.2830  -29.4160 C.2   300  GMP300      0.2300
@<TRIPOS>BOND
     1     1     2    1
     2     2     3    1
     3    15    14    2
     4    14    16    2
     5    14    13    1
     6    16    17    2
     7    12    13    2
     8    12    11    1
     9     3     5    1
    10     3     4    1
    11    13    20    1
    12    17    18    1
    13    17    19    2
    14    11    10    1
    15    20    19    2
    16    20    10    1
    17     5     7    1
    18     5     6    1
    19     4     9    1
    20    10     9    1
    21     7     9    1
    22     7     8    1
