@<TRIPOS>MOLECULE
3if1_NGA_B_1.pdb
 15 15 0 0 0
SMALL
GASTEIGER

@<TRIPOS>ATOM
      1  C1        -1.5820    2.8220   13.0300 C.3     1  NGA1        0.2917
      2  C2        -1.2820    4.2020   13.4810 C.3     1  NGA1        0.1871
      3  C3         0.0900    4.1710   14.1370 C.3     1  NGA1        0.2095
      4  C4        -0.0700    3.3310   15.3790 C.3     1  NGA1        0.2136
      5  C5        -0.5430    1.9080   15.0330 C.3     1  NGA1        0.1835
      6  C6        -0.8600    0.9320   16.1910 C.3     1  NGA1        0.2142
      7  C7        -2.0550    5.9790   12.0350 C.2     1  NGA1        0.2421
      8  C8        -1.7930    6.6740   10.7580 C.3     1  NGA1        0.0964
      9  N2        -1.2280    4.9980   12.3270 N.am    1  NGA1       -0.1991
     10  O1        -0.8020    2.1800   12.1830 O.3     1  NGA1       -0.1879
     11  O3         0.3080    5.5040   14.4720 O.3     1  NGA1       -0.2183
     12  O4        -1.0520    3.9260   16.2060 O.3     1  NGA1       -0.2176
     13  O5        -1.7510    2.0270   14.2160 O.3     1  NGA1       -0.3242
     14  O6         0.3000    0.9780   16.9890 O.3     1  NGA1       -0.2176
     15  O7        -2.9500    6.2700   12.7580 O.2     1  NGA1       -0.2733
@<TRIPOS>BOND
     1     8     7    1
     2     7     9   am
     3     7    15    2
     4    10     1    1
     5     9     2    1
     6     1     2    1
     7     1    13    1
     8     2     3    1
     9     3    11    1
    10     3     4    1
    11    13     5    1
    12     5     4    1
    13     5     6    1
    14     4    12    1
    15     6    14    1
