@<TRIPOS>MOLECULE
3if2_PLP_A_1.pdb
 16 16 0 0 0
SMALL
GASTEIGER

@<TRIPOS>ATOM
      1  N1        27.3430   60.8730   73.8910 N.ar  500  PLP500     -0.2452
      2  C2        26.7620   60.5190   75.0900 C.ar  500  PLP500      0.0982
      3  C2A       27.5270   60.8040   76.3430 C.3   500  PLP500      0.0555
      4  C3        25.4800   59.9240   75.1010 C.ar  500  PLP500      0.2120
      5  O3        24.8640   59.5600   76.2690 O.3   500  PLP500     -0.2852
      6  C4        24.8110   59.6700   73.8800 C.ar  500  PLP500      0.0822
      7  C4A       23.5710   58.7850   73.9360 C.2   500  PLP500      0.2372
      8  O4A       22.5230   59.0990   73.3580 O.2   500  PLP500     -0.2830
      9  C5        25.4430   60.0450   72.6480 C.ar  500  PLP500      0.0333
     10  C6        26.7140   60.6480   72.6970 C.ar  500  PLP500      0.0969
     11  C5A       24.8250   59.7780   71.2610 C.3   500  PLP500      0.1819
     12  O4P       23.9620   60.8020   70.8130 O.3   500  PLP500     -0.2653
     13  P         23.4790   60.8620   69.2840 P.3   500  PLP500      0.5329
     14  O1P       23.9710   59.8340   68.2940 O.2   500  PLP500     -0.2224
     15  O2P       23.9800   62.2060   68.8750 O.3   500  PLP500     -0.1145
     16  O3P       22.0050   60.7820   69.3460 O.3   500  PLP500     -0.1145
@<TRIPOS>BOND
     1    14    13    2
     2    15    13    1
     3    13    16    1
     4    13    12    1
     5    12    11    1
     6    11     9    1
     7     9    10   ar
     8     9     6   ar
     9    10     1   ar
    10     8     7    2
    11     6     7    1
    12     6     4   ar
    13     1     2   ar
    14     2     4   ar
    15     2     3    1
    16     4     5    1
