@<TRIPOS>MOLECULE
3if7_SPU_A_1.pdb
 28 27 0 0 0
SMALL
GASTEIGER

@<TRIPOS>ATOM
      1  C11      -28.7180    7.4870  -17.4100 C.3   153  SPU153      0.0000
      2  C14      -27.9110    8.4660  -18.2570 C.3   153  SPU153      0.0000
      3  C17      -28.3630    9.9100  -18.0700 C.3   153  SPU153      0.0000
      4  C20      -27.3330   10.6690  -17.2620 C.3   153  SPU153      0.0000
      5  C23      -26.9880   12.0470  -17.8150 C.3   153  SPU153      0.0000
      6  C26      -26.3380   12.8970  -16.7370 C.3   153  SPU153      0.0000
      7  C29      -26.2720   14.3490  -17.1190 C.3   153  SPU153      0.0000
      8  C32      -25.2780   15.1080  -16.2540 C.3   153  SPU153      0.0003
      9  C35      -24.7140   16.2820  -17.0170 C.3   153  SPU153      0.0047
     10  C38      -23.8930   15.7440  -18.1900 C.3   153  SPU153      0.0258
     11  C41      -22.5380   16.3700  -18.1420 C.2   153  SPU153     -0.0282
     12  C43      -21.9260   16.8160  -19.2330 C.2   153  SPU153      0.0031
     13  C45      -20.5670   17.4460  -19.0700 C.3   153  SPU153      0.1936
     14  O47      -20.2360   18.0080  -20.3210 O.3   153  SPU153     -0.2167
     15  C49      -20.6320   18.5790  -18.0500 C.3   153  SPU153      0.1562
     16  N51      -22.0170   19.0060  -17.8770 N.3   153  SPU153     -0.1272
     17  C54      -20.1180   18.2440  -16.6640 C.3   153  SPU153      0.1710
     18  O57      -20.9330   19.0080  -15.7900 O.3   153  SPU153     -0.3124
     19  P58      -20.7970   18.8170  -14.2230 P.3   153  SPU153      0.2140
     20  O59      -21.6830   17.6320  -13.8520 O.3   153  SPU153     -0.4373
     21  O60      -19.2970   18.8330  -13.9630 O.2   153  SPU153     -0.5172
     22  O61      -21.4530   20.1310  -13.5410 O.3   153  SPU153     -0.3163
     23  C62      -21.3630   20.3190  -12.1210 C.3   153  SPU153      0.1271
     24  C65      -21.2980   21.8150  -11.7760 C.3   153  SPU153     -0.0402
     25  N68      -19.9290   22.3520  -11.7450 N.4   153  SPU153      0.3874
     26  C70      -19.1860   21.8430  -12.8930 C.3   153  SPU153     -0.0959
     27  C74      -19.9380   23.8340  -11.7920 C.3   153  SPU153     -0.0959
     28  C78      -19.2160   21.8760  -10.5540 C.3   153  SPU153     -0.0959
@<TRIPOS>BOND
     1    14    13    1
     2    12    13    1
     3    12    11    2
     4    13    15    1
     5     2     3    1
     6     2     1    1
     7    10    11    1
     8    10     9    1
     9     3     4    1
    10    15    16    1
    11    15    17    1
    12     5     4    1
    13     5     6    1
    14     7     6    1
    15     7     8    1
    16     9     8    1
    17    17    18    1
    18    18    19    1
    19    19    21    2
    20    19    20    1
    21    19    22    1
    22    22    23    1
    23    26    25    1
    24    23    24    1
    25    27    25    1
    26    24    25    1
    27    25    28    1
