@<TRIPOS>MOLECULE
3ifa_AMP_A_1.pdb
 23 25 0 0 0
SMALL
GASTEIGER

@<TRIPOS>ATOM
      1  P        -29.1820  -64.8900   20.4200 P.3   339  AMP339      0.5327
      2  O1P      -30.2030  -64.0440   19.6430 O.2   339  AMP339     -0.2224
      3  O2P      -27.9620  -64.0540   20.7440 O.3   339  AMP339     -0.1145
      4  O3P      -29.8810  -65.7170   21.4860 O.3   339  AMP339     -0.1145
      5  O5'      -28.4880  -65.8000   19.3420 O.3   339  AMP339     -0.2675
      6  C5'      -29.2340  -66.9260   18.8450 C.3   339  AMP339      0.1860
      7  C4'      -28.3070  -67.9950   18.2800 C.3   339  AMP339      0.1823
      8  O4'      -27.3700  -67.5040   17.3190 O.3   339  AMP339     -0.3135
      9  C3'      -27.4560  -68.6800   19.3620 C.3   339  AMP339      0.2184
     10  O3'      -28.2300  -69.5660   20.1950 O.3   339  AMP339     -0.2174
     11  C2'      -26.3340  -69.2640   18.5490 C.3   339  AMP339      0.2570
     12  O2'      -26.6990  -70.5660   18.0330 O.3   339  AMP339     -0.2130
     13  C1'      -26.1010  -68.1680   17.4840 C.3   339  AMP339      0.3186
     14  N9       -25.1360  -67.1330   18.0440 N.pl3 339  AMP339     -0.1439
     15  C8       -25.4850  -65.9570   18.6420 C.3   339  AMP339      0.3377
     16  N7       -24.4210  -65.2140   19.0410 N.2   339  AMP339     -0.2095
     17  C5       -23.3520  -65.9770   18.7190 C.2   339  AMP339      0.2526
     18  C6       -21.8980  -65.8470   18.9190 C.2   339  AMP339      0.4393
     19  N6       -21.4220  -64.7210   19.4910 N.pl3 339  AMP339      0.2180
     20  N1       -21.0950  -66.8260   18.4080 N.2   339  AMP339      0.0021
     21  C2       -21.5980  -67.9310   17.8170 C.3   339  AMP339      0.5254
     22  N3       -22.9250  -68.1480   17.6530 N.2   339  AMP339     -0.0055
     23  C4       -23.8150  -67.2090   18.0480 C.2   339  AMP339      0.3518
@<TRIPOS>BOND
     1     8    13    1
     2     8     7    1
     3    13    14    1
     4    13    11    1
     5    22    21    1
     6    22    23    2
     7    21    20    1
     8    12    11    1
     9    14    23    1
    10    14    15    1
    11    23    17    1
    12     7     6    1
    13     7     9    1
    14    20    18    2
    15    11     9    1
    16    15    16    1
    17    17    18    1
    18    17    16    2
    19     6     5    1
    20    18    19    1
    21     5     1    1
    22     9    10    1
    23     2     1    2
    24     1     3    1
    25     1     4    1
