@<TRIPOS>MOLECULE
3ifc_AMP_A_1.pdb
 23 25 0 0 0
SMALL
GASTEIGER

@<TRIPOS>ATOM
      1  P        -29.0510  -64.9800   20.2450 P.3   339  AMP339      0.5327
      2  O1P      -30.0820  -64.3000   19.3630 O.2   339  AMP339     -0.2224
      3  O2P      -27.8430  -64.1050   20.5200 O.3   339  AMP339     -0.1145
      4  O3P      -29.7330  -65.7100   21.3890 O.3   339  AMP339     -0.1145
      5  O5'      -28.4150  -65.9760   19.1740 O.3   339  AMP339     -0.2675
      6  C5'      -29.2180  -67.0460   18.6230 C.3   339  AMP339      0.1860
      7  C4'      -28.2790  -68.1680   18.1680 C.3   339  AMP339      0.1823
      8  O4'      -27.3310  -67.6370   17.2370 O.3   339  AMP339     -0.3135
      9  C3'      -27.4030  -68.8040   19.2620 C.3   339  AMP339      0.2184
     10  O3'      -28.0620  -69.7760   20.0980 O.3   339  AMP339     -0.2174
     11  C2'      -26.2260  -69.3310   18.4530 C.3   339  AMP339      0.2570
     12  O2'      -26.5060  -70.6430   17.9370 O.3   339  AMP339     -0.2130
     13  C1'      -26.0200  -68.2440   17.3680 C.3   339  AMP339      0.3186
     14  N9       -25.0170  -67.2310   17.9010 N.pl3 339  AMP339     -0.1439
     15  C8       -25.3480  -66.0500   18.5270 C.3   339  AMP339      0.3377
     16  N7       -24.2570  -65.3440   18.9230 N.2   339  AMP339     -0.2095
     17  C5       -23.1910  -66.1190   18.5750 C.2   339  AMP339      0.2526
     18  C6       -21.7240  -65.9690   18.7220 C.2   339  AMP339      0.4393
     19  N6       -21.2350  -64.8460   19.3320 N.pl3 339  AMP339      0.2180
     20  N1       -20.9490  -66.9700   18.2040 N.2   339  AMP339      0.0021
     21  C2       -21.4730  -68.0740   17.5790 C.3   339  AMP339      0.5254
     22  N3       -22.8080  -68.2880   17.4430 N.2   339  AMP339     -0.0055
     23  C4       -23.6870  -67.3450   17.8890 C.2   339  AMP339      0.3518
@<TRIPOS>BOND
     1     8    13    1
     2     8     7    1
     3    13    14    1
     4    13    11    1
     5    22    21    1
     6    22    23    2
     7    21    20    1
     8    23    14    1
     9    23    17    1
    10    14    15    1
    11    12    11    1
    12     7     6    1
    13     7     9    1
    14    20    18    2
    15    11     9    1
    16    15    16    1
    17    17    18    1
    18    17    16    2
    19     6     5    1
    20    18    19    1
    21     5     1    1
    22     9    10    1
    23     2     1    2
    24     1     3    1
    25     1     4    1
