@<TRIPOS>MOLECULE
3ifc_P6P_A_1.pdb
 16 16 0 0 0
SMALL
GASTEIGER

@<TRIPOS>ATOM
      1  P         -9.0330  -89.1820   41.2630 P.3   340  P6P340      0.5327
      2  C1       -10.6410  -83.6490   40.9000 C.3   340  P6P340      0.2434
      3  O1        -9.5290  -82.8680   40.4910 O.3   340  P6P340     -0.2148
      4  C2       -11.4390  -84.2400   39.7210 C.3   340  P6P340      0.2807
      5  O2       -12.8440  -83.8680   39.8690 O.3   340  P6P340     -0.1896
      6  C3       -10.9920  -83.9520   38.2490 C.3   340  P6P340      0.2409
      7  O3       -10.4780  -82.5990   37.9660 O.3   340  P6P340     -0.2149
      8  C4       -10.0830  -85.1810   37.9610 C.3   340  P6P340      0.2167
      9  O4       -10.1430  -85.7720   36.6660 O.3   340  P6P340     -0.2175
     10  C5       -10.5100  -86.2970   38.9410 C.3   340  P6P340      0.1808
     11  O5       -11.3080  -85.6580   39.9300 O.3   340  P6P340     -0.3254
     12  C6        -9.3560  -87.0600   39.6280 C.3   340  P6P340      0.1859
     13  O6        -9.8420  -87.9230   40.6610 O.3   340  P6P340     -0.2675
     14  O1P      -10.0920  -90.0660   41.8740 O.3   340  P6P340     -0.1145
     15  O2P       -8.1240  -88.7790   42.3830 O.3   340  P6P340     -0.1145
     16  O3P       -8.2070  -89.8420   40.1360 O.2   340  P6P340     -0.2224
@<TRIPOS>BOND
     1     9     8    1
     2     8     6    1
     3     8    10    1
     4     7     6    1
     5     6     4    1
     6    10    12    1
     7    10    11    1
     8    12    13    1
     9     4     5    1
    10     4    11    1
    11     4     2    1
    12    16     1    2
    13     3     2    1
    14    13     1    1
    15     1    14    1
    16     1    15    1
