@<TRIPOS>MOLECULE
3ifx_MTN_B_1.pdb
 12 12 0 0 0
SMALL
GASTEIGER

@<TRIPOS>ATOM
      1  O1        54.3120   28.2250   29.2370 O.3   248  MTN248     -0.1175
      2  N1        54.1960   29.4260   29.4160 N.4   248  MTN248     -0.1311
      3  C1        55.2980   30.3660   29.4330 C.3   248  MTN248      0.0909
      4  C2        54.6140   31.6840   29.7340 C.2   248  MTN248     -0.0160
      5  C3        53.2910   31.4910   29.7940 C.2   248  MTN248     -0.0205
      6  C4        52.2780   32.6000   29.8820 C.3   248  MTN248      0.0917
      7  S1        50.7920   31.9960   29.1780 S.3   248  MTN248     -0.0773
      8  C5        52.9120   30.0340   29.6630 C.3   248  MTN248      0.0886
      9  C6        51.9750   29.8940   28.4620 C.3   248  MTN248      0.0227
     10  C7        52.2760   29.4150   30.9090 C.3   248  MTN248      0.0227
     11  C8        56.2630   29.9930   30.5520 C.3   248  MTN248      0.0230
     12  C9        55.9740   30.3990   28.0730 C.3   248  MTN248      0.0230
@<TRIPOS>BOND
     1    12     3    1
     2     9     8    1
     3     7     6    1
     4     1     2    1
     5     2     3    1
     6     2     8    1
     7     3     4    1
     8     3    11    1
     9     8     5    1
    10     8    10    1
    11     4     5    2
    12     5     6    1
