@<TRIPOS>MOLECULE
3ifx_TBA_B_1.pdb
 17 16 0 0 0
SMALL
GASTEIGER

@<TRIPOS>ATOM
      1  N1        23.8860   28.3050   22.6600 N.4   203  TBA203      0.3899
      2  C11       23.6830   29.4580   21.7810 C.3   203  TBA203     -0.0730
      3  C12       24.6930   30.5210   22.1660 C.3   203  TBA203     -0.0223
      4  C21       25.3230   28.0770   22.8280 C.3   203  TBA203     -0.0730
      5  C22       25.8630   27.3240   21.6230 C.3   203  TBA203     -0.0223
      6  C31       23.2610   27.1190   22.0640 C.3   203  TBA203     -0.0730
      7  C32       23.1360   26.0300   23.1180 C.3   203  TBA203     -0.0223
      8  C41       23.2770   28.5800   23.9630 C.3   203  TBA203     -0.0730
      9  C42       21.7650   28.4890   23.8480 C.3   203  TBA203     -0.0223
     10  C13       24.0220   31.8700   22.4080 C.3   203  TBA203     -0.0021
     11  C14       24.9760   32.8080   23.0160 C.3   203  TBA203     -0.0001
     12  C23       27.3420   27.0400   21.8360 C.3   203  TBA203     -0.0021
     13  C24       28.1530   27.6530   20.6640 C.3   203  TBA203     -0.0001
     14  C33       23.7400   24.7350   22.6000 C.3   203  TBA203     -0.0021
     15  C34       22.9850   23.5290   23.0800 C.3   203  TBA203     -0.0001
     16  C43       21.1200   29.8270   24.1770 C.3   203  TBA203     -0.0021
     17  C44       19.6740   29.8350   23.7320 C.3   203  TBA203     -0.0001
@<TRIPOS>BOND
     1    13    12    1
     2     5    12    1
     3     5     4    1
     4     2     3    1
     5     2     1    1
     6     6     1    1
     7     6     7    1
     8     3    10    1
     9    10    11    1
    10    14    15    1
    11    14     7    1
    12     1     4    1
    13     1     8    1
    14    17    16    1
    15     9     8    1
    16     9    16    1
