@<TRIPOS>MOLECULE
3ig1_JTH_A_1.pdb
 13 13 0 0 0
SMALL
GASTEIGER

@<TRIPOS>ATOM
      1  C1        11.3800   19.4830   12.6820 C.ar  1001  JTH1001     0.2727
      2  O1        10.8000   18.8820   11.7170 O.2   1001  JTH1001    -0.2797
      3  C2        10.8460   20.8520   13.0200 C.ar  1001  JTH1001     0.2372
      4  O2         9.8560   21.1600   12.2170 O.3   1001  JTH1001    -0.2830
      5  C3        11.1990   21.7520   13.9610 C.ar  1001  JTH1001     0.0412
      6  C4        12.2270   21.7600   14.9990 C.ar  1001  JTH1001    -0.0191
      7  C5        13.1180   20.7280   15.2360 C.ar  1001  JTH1001    -0.0008
      8  C6        13.2390   19.4250   14.5280 C.ar  1001  JTH1001     0.0452
      9  C7        12.5440   18.8570   13.4610 C.ar  1001  JTH1001     0.2375
     10  O7        12.8780   17.6110   12.9990 O.3   1001  JTH1001    -0.2830
     11  C41       12.3090   24.4030   15.0000 C.3   1001  JTH1001     0.0047
     12  C42       12.2300   23.0630   15.8470 C.3   1001  JTH1001     0.0225
     13  C43       10.9470   23.1410   16.7770 C.3   1001  JTH1001     0.0047
@<TRIPOS>BOND
     1     2     1    2
     2     4     3    1
     3     1     3   ar
     4     1     9   ar
     5    10     9    1
     6     3     5   ar
     7     9     8   ar
     8     5     6   ar
     9     8     7   ar
    10     6     7   ar
    11     6    12    1
    12    11    12    1
    13    12    13    1
