@<TRIPOS>MOLECULE
3ig5_GLU_A_1.pdb
 10 9 0 0 0
SMALL
GASTEIGER

@<TRIPOS>ATOM
      1  N          1.5690   35.3270  -18.4430 N.3   693  GLU693     -0.1208
      2  CA         1.2730   34.7450  -19.7850 C.3   693  GLU693      0.1949
      3  C          1.3800   35.8390  -20.8620 C.2   693  GLU693      0.3819
      4  O          2.0970   36.8380  -20.7210 O.co2 693  GLU693     -0.2441
      5  CB        -0.1330   34.1260  -19.8110 C.3   693  GLU693      0.0424
      6  CG        -0.3160   32.6940  -19.2440 C.3   693  GLU693      0.1161
      7  CD        -1.7730   32.4770  -18.7790 C.2   693  GLU693      0.3649
      8  OE1       -2.2320   33.3560  -17.9970 O.co2 693  GLU693     -0.2457
      9  OE2       -2.4800   31.4760  -19.1840 O.co2 693  GLU693     -0.2457
     10  OXT        0.7470   35.7490  -21.9250 O.co2 693  GLU693     -0.2441
@<TRIPOS>BOND
     1    10     3   ar
     2     3     4   ar
     3     3     2    1
     4     5     2    1
     5     5     6    1
     6     2     1    1
     7     6     7    1
     8     9     7   ar
     9     7     8   ar
