@<TRIPOS>MOLECULE
3ig6_III_A_1.pdb
 19 18 0 0 0
SMALL
GASTEIGER

@<TRIPOS>ATOM
      1  N         18.9630  -14.5300  -24.3810 N.3    13  CYS13      -0.1221
      2  CA        17.5940  -14.5620  -23.8810 C.3    13  CYS13       0.1808
      3  C         16.6530  -15.2340  -24.8770 C.2    13  CYS13       0.2602
      4  O         17.0130  -15.4560  -26.0340 O.2    13  CYS13      -0.2717
      5  CB        17.1130  -13.1410  -23.5800 C.3    13  CYS13       0.0970
      6  SG        17.3520  -11.9580  -24.9440 S.3    13  CYS13      -0.0800
      7  N         15.4500  -15.5650  -24.4190 N.am   14  GLY14      -0.1942
      8  CA        14.5190  -16.2940  -25.2610 C.3    14  GLY14       0.2014
      9  C         14.9070  -17.7540  -25.3930 C.2    14  GLY14       0.2638
     10  O         15.3870  -18.1850  -26.4400 O.2    14  GLY14      -0.2714
     11  N         14.7040  -18.5200  -24.3270 N.am   15  GLN15      -0.1977
     12  CA        15.0440  -19.9370  -24.3300 C.3    15  GLN15       0.1601
     13  C         14.2410  -20.6840  -25.3900 C.2    15  GLN15       0.2287
     14  O         13.0300  -20.8600  -25.2540 O.2    15  GLN15      -0.2864
     15  CB        14.7660  -20.5520  -22.9590 C.3    15  GLN15       0.0394
     16  CG        15.5860  -19.9690  -21.8200 C.3    15  GLN15       0.0908
     17  CD        15.1760  -20.5310  -20.4720 C.2    15  GLN15       0.2608
     18  OE1       15.7640  -21.4960  -19.9830 O.2    15  GLN15      -0.2717
     19  NE2       14.1590  -19.9300  -19.8640 N.am   15  GLN15      -0.0878
@<TRIPOS>BOND
     1    10     9    2
     2     4     3    2
     3     9     8    1
     4     9    11   am
     5    13    14    2
     6    13    12    1
     7     8     7    1
     8     6     5    1
     9     3     7   am
    10     3     2    1
    11     1     2    1
    12    12    11    1
    13    12    15    1
    14     2     5    1
    15    15    16    1
    16    16    17    1
    17    17    18    2
    18    17    19   am
