@<TRIPOS>MOLECULE
3ig6_438_B_1.pdb
 44 48 0 0 0
SMALL
GASTEIGER

@<TRIPOS>ATOM
      1  N1        14.6630    2.5310   -1.6670 N.3   400  438400     -0.1262
      2  C2        16.0800    2.1570   -1.7790 C.3   400  438400      0.1356
      3  C3        16.3480   -0.6640    0.8860 C.ar  400  438400     -0.0002
      4  C4        16.7360   -1.7670    0.0510 C.ar  400  438400     -0.0000
      5  C5        16.9000   -1.5950   -1.3520 C.ar  400  438400     -0.0003
      6  C6        16.6820   -0.3220   -1.9450 C.ar  400  438400     -0.0028
      7  C7        16.3010    0.7820   -1.1370 C.ar  400  438400     -0.0032
      8  C8        16.1350    0.6150    0.2700 C.ar  400  438400     -0.0028
      9  C9        16.2030   -0.8280    2.3060 C.ar  400  438400      0.0030
     10  C10       17.0310   -1.7500    3.0280 C.ar  400  438400      0.0376
     11  C11       16.8810   -1.9230    4.4540 C.ar  400  438400      0.1483
     12  C12       15.8850   -1.1760    5.1430 C.ar  400  438400      0.0376
     13  C13       15.0560   -0.2640    4.4390 C.ar  400  438400      0.0031
     14  C14       15.2130   -0.0880    3.0370 C.ar  400  438400      0.0002
     15  O15       17.7350   -2.7360    5.2120 O.3   400  438400     -0.4257
     16  N16       19.3800   -3.9960    4.0400 N.2   400  438400     -0.3305
     17  C17       19.0340   -2.8730    4.7300 C.2   400  438400      0.3140
     18  C18       19.9720   -1.8200    4.8780 C.2   400  438400      0.2184
     19  C19       21.2800   -1.9430    4.3020 C.2   400  438400      0.1017
     20  C20       21.5870   -3.1510    3.5870 C.3   400  438400      0.2869
     21  C21       20.6180   -4.1560    3.4670 C.2   400  438400      0.2992
     22  F22       19.5910   -0.7020    5.5180 F     400  438400     -0.1969
     23  N23       22.1950   -0.9100    4.3660 N.pl3 400  438400     -0.3049
     24  F24       22.7830   -3.3390    2.9980 F     400  438400     -0.2195
     25  O25       20.9010   -5.2430    2.6630 O.3   400  438400     -0.4280
     26  C26       20.0530   -6.3310    2.7490 C.ar  400  438400      0.1555
     27  C27       20.4910   -7.4980    3.4310 C.ar  400  438400      0.0523
     28  C28       19.7140   -8.7030    3.4060 C.ar  400  438400      0.0510
     29  N29       20.1700   -9.8590    4.0210 N.pl3 400  438400     -0.3040
     30  C30       18.4670   -8.6930    2.6890 C.ar  400  438400      0.0149
     31  C31       18.0230   -7.5350    2.0120 C.ar  400  438400      0.0109
     32  C32       18.8030   -6.3500    2.0240 C.ar  400  438400      0.1143
     33  C33       18.3290   -5.1230    1.1960 C.2   400  438400      0.3907
     34  O34       17.1170   -5.0530    0.8790 O.co2 400  438400     -0.2404
     35  O35       19.1850   -4.2720    0.8550 O.co2 400  438400     -0.2404
     36  C36       19.3860  -11.1220    3.9790 C.3   400  438400      0.1122
     37  C37       21.4940   -9.9110    4.6950 C.3   400  438400      0.1122
     38  C38       23.2270   -0.6110    3.3290 C.3   400  438400      0.1066
     39  C39       23.9520    0.6380    3.8860 C.3   400  438400      0.0791
     40  C40       23.7950    0.4740    5.3980 C.3   400  438400      0.0391
     41  C41       22.3240    0.0850    5.4780 C.3   400  438400      0.0921
     42  N42       25.4030    0.7680    3.4450 N.3   400  438400     -0.2699
     43  C43       26.2630   -0.4100    3.7870 C.3   400  438400      0.0897
     44  C44       25.5150    1.0220    1.9880 C.3   400  438400      0.0897
@<TRIPOS>BOND
     1     6     5   ar
     2     6     7   ar
     3     2     1    1
     4     2     7    1
     5     5     4   ar
     6     7     8   ar
     7     4     3   ar
     8     8     3   ar
     9    35    33   ar
    10    34    33   ar
    11     3     9    1
    12    33    32    1
    13    44    42    1
    14    31    32   ar
    15    31    30   ar
    16    32    26   ar
    17     9    10   ar
    18     9    14   ar
    19    25    26    1
    20    25    21    1
    21    30    28   ar
    22    26    27   ar
    23    24    20    1
    24    10    11   ar
    25    14    13   ar
    26    38    39    1
    27    38    23    1
    28    28    27   ar
    29    28    29    1
    30    42    43    1
    31    42    39    1
    32    21    20    1
    33    21    16    2
    34    20    19    1
    35    39    40    1
    36    36    29    1
    37    29    37    1
    38    16    17    2
    39    19    23    1
    40    19    18    2
    41    23    41    1
    42    13    12   ar
    43    11    12   ar
    44    11    15    1
    45    17    18    1
    46    17    15    1
    47    18    22    1
    48    40    41    1
