@<TRIPOS>MOLECULE
3ig7_EFP_A_1.pdb
 25 27 0 0 0
SMALL
GASTEIGER

@<TRIPOS>ATOM
      1  C1        -1.4630   31.0240    8.4320 C.3   999  EFP999      0.0654
      2  N3        -0.1160   30.9430    7.9000 N.3   999  EFP999     -0.2181
      3  C4         0.6890   29.8230    8.0140 C.3   999  EFP999      0.1983
      4  C6         1.8520   30.1660    7.3230 C.2   999  EFP999      0.3578
      5  N7         3.0190   29.4310    7.2010 N.am  999  EFP999      0.0291
      6  C9         3.3100   28.1670    7.6870 C.2   999  EFP999      0.3565
      7  C10        4.7450   27.7230    7.4290 C.3   999  EFP999      0.1430
      8  C13        4.7800   26.6560    6.3800 C.ar  999  EFP999     -0.0104
      9  C14        5.0960   27.0780    5.0820 C.ar  999  EFP999     -0.0006
     10  C16        5.1210   26.1810    4.0270 C.ar  999  EFP999      0.0366
     11  C18        4.8450   24.8300    4.2640 C.ar  999  EFP999      0.1387
     12  O19        4.8660   23.9010    3.2590 O.3   999  EFP999     -0.4714
     13  C20        6.1550   23.6860    2.6690 C.3   999  EFP999      0.2525
     14  C24        4.5510   24.4030    5.5570 C.ar  999  EFP999      0.0366
     15  C26        4.4940   25.3150    6.6330 C.ar  999  EFP999     -0.0006
     16  O28        2.5770   27.3580    8.2740 O.2   999  EFP999     -0.2425
     17  N29        1.7530   31.4700    6.8750 N.2   999  EFP999     -0.0449
     18  C30        0.5540   31.9080    7.2260 C.3   999  EFP999      0.3426
     19  C32       -1.4680   30.7480    9.9510 C.3   999  EFP999      0.0379
     20  C35       -2.8580   30.0560    9.7250 C.3   999  EFP999      0.0980
     21  N37       -2.9220   28.7610   10.4620 N.am  999  EFP999     -0.2071
     22  C39       -3.7890   28.6780   11.5390 C.2   999  EFP999      0.2418
     23  C40       -4.0620   27.2620   12.0070 C.3   999  EFP999      0.0964
     24  O44       -4.2600   29.6800   12.0900 O.2   999  EFP999     -0.2733
     25  C45       -2.4350   29.8440    8.2320 C.3   999  EFP999      0.0379
@<TRIPOS>BOND
     1    13    12    1
     2    12    11    1
     3    10    11   ar
     4    10     9   ar
     5    11    14   ar
     6     9     8   ar
     7    14    15   ar
     8     8    15   ar
     9     8     7    1
    10    17    18    1
    11    17     4    2
    12     5     4    1
    13     5     6   am
    14    18     2    1
    15     4     3    1
    16     7     6    1
    17     6    16    2
    18     2     3    1
    19     2     1    1
    20    25     1    1
    21    25    20    1
    22     1    19    1
    23    20    19    1
    24    20    21    1
    25    21    22   am
    26    22    23    1
    27    22    24    2
