@<TRIPOS>MOLECULE
3ig8_GLU_A_1.pdb
 10 9 0 0 0
SMALL
GASTEIGER

@<TRIPOS>ATOM
      1  N         35.6310    1.5040   18.5860 N.3   693  GLU693     -0.1208
      2  CA        35.0400    1.1330   19.9010 C.3   693  GLU693      0.1949
      3  C         35.9440    1.2950   21.0980 C.2   693  GLU693      0.3819
      4  O         36.9990    1.9720   21.0640 O.co2 693  GLU693     -0.2441
      5  CB        34.5960   -0.3010   19.8650 C.3   693  GLU693      0.0424
      6  CG        33.1830   -0.4300   19.4060 C.3   693  GLU693      0.1161
      7  CD        33.0280   -1.6830   18.6740 C.2   693  GLU693      0.3649
      8  OE1       32.3830   -2.6280   19.2050 O.co2 693  GLU693     -0.2457
      9  OE2       33.6310   -1.7250   17.5790 O.co2 693  GLU693     -0.2457
     10  OXT       35.5760    0.7130   22.1290 O.co2 693  GLU693     -0.2441
@<TRIPOS>BOND
     1     9     7   ar
     2     1     2    1
     3     7     8   ar
     4     7     6    1
     5     6     5    1
     6     5     2    1
     7     2     3    1
     8     4     3   ar
     9     3    10   ar
