@<TRIPOS>MOLECULE
3ig8_ADP_A_1.pdb
 27 29 0 0 0
SMALL
GASTEIGER

@<TRIPOS>ATOM
      1  PB        32.2560   -8.2100   17.1400 P.3   694  ADP694      0.5373
      2  O1B       30.8690   -8.6410   17.5570 O.3   694  ADP694     -0.1143
      3  O2B       33.3200   -8.4570   18.2110 O.3   694  ADP694     -0.1143
      4  O3B       32.3270   -6.8370   16.4390 O.2   694  ADP694     -0.2221
      5  PA        33.6270   -9.5200   14.9150 P.3   694  ADP694      0.2231
      6  O1A       32.8950  -10.0970   13.7130 O.2   694  ADP694     -0.5169
      7  O2A       34.4650   -8.2590   14.7680 O.3   694  ADP694     -0.4370
      8  O3A       32.4700   -9.3820   16.0440 O.3   694  ADP694     -0.2261
      9  O5'       34.6630  -10.6280   15.4600 O.3   694  ADP694     -0.3111
     10  C5'       34.4560  -11.3340   16.6720 C.3   694  ADP694      0.1813
     11  C4'       35.8140  -11.7900   17.1920 C.3   694  ADP694      0.1821
     12  O4'       35.6010  -13.1540   17.5470 O.3   694  ADP694     -0.3135
     13  C3'       36.9940  -11.7850   16.2030 C.3   694  ADP694      0.2184
     14  O3'       38.2050  -11.2900   16.8230 O.3   694  ADP694     -0.2174
     15  C2'       37.0970  -13.2630   15.8150 C.3   694  ADP694      0.2570
     16  O2'       38.3620  -13.6950   15.2970 O.3   694  ADP694     -0.2130
     17  C1'       36.7110  -13.9320   17.1290 C.3   694  ADP694      0.3186
     18  N9        36.2080  -15.2990   17.0230 N.pl3 694  ADP694     -0.1439
     19  C8        35.7210  -15.8740   15.9150 C.3   694  ADP694      0.3377
     20  N7        35.3390  -17.1440   16.1850 N.2   694  ADP694     -0.2095
     21  C5        35.5840  -17.3860   17.4980 C.2   694  ADP694      0.2526
     22  C6        35.4140  -18.5140   18.4400 C.2   694  ADP694      0.4393
     23  N6        34.8930  -19.6960   18.0500 N.pl3 694  ADP694      0.2180
     24  N1        35.7840  -18.3280   19.7140 N.2   694  ADP694      0.0021
     25  C2        36.2820  -17.1660   20.1290 C.3   694  ADP694      0.5254
     26  N3        36.4700  -16.1140   19.3300 N.2   694  ADP694     -0.0055
     27  C4        36.1460  -16.1510   18.0350 C.2   694  ADP694      0.3518
@<TRIPOS>BOND
     1     6     5    2
     2     7     5    1
     3     5     9    1
     4     5     8    1
     5    16    15    1
     6     9    10    1
     7    15    13    1
     8    15    17    1
     9    19    20    1
    10    19    18    1
    11     8     1    1
    12    20    21    2
    13    13    14    1
    14    13    11    1
    15     4     1    2
    16    10    11    1
    17    18    17    1
    18    18    27    1
    19    17    12    1
    20     1     2    1
    21     1     3    1
    22    11    12    1
    23    21    27    1
    24    21    22    1
    25    27    26    2
    26    23    22    1
    27    22    24    2
    28    26    25    1
    29    24    25    1
