@<TRIPOS>MOLECULE
3igb_454_A_1.pdb
 22 25 0 0 0
SMALL
GASTEIGER

@<TRIPOS>ATOM
      1  C1         9.9100   -7.7440   16.0740 C.ar    1  4541       -0.0000
      2  N1        14.1760   -6.1000   18.6390 N.2     1  4541       -0.0651
      3  C2        10.6400   -8.6090   16.8850 C.ar    1  4541       -0.0002
      4  N2        15.3640   -5.3080   16.7130 N.pl3   1  4541       -0.1102
      5  C3        12.0270   -8.4660   16.9910 C.ar    1  4541       -0.0001
      6  N3        14.8410   -6.8160   15.1370 N.2     1  4541       -0.0742
      7  C4        12.7170   -7.4550   16.2860 C.ar    1  4541        0.0287
      8  N4        16.3620   -5.0820   14.5680 N.pl3   1  4541        0.1534
      9  C5        11.9570   -6.5950   15.4750 C.ar    1  4541       -0.0001
     10  C6        10.5720   -6.7420   15.3720 C.ar    1  4541       -0.0002
     11  C7        14.2430   -7.3390   16.4470 C.3     1  4541        0.2790
     12  C8        14.6700   -6.2290   17.4510 C.2     1  4541        0.3474
     13  C9        14.5390   -4.8500   19.3420 C.3     1  4541        0.2673
     14  C10       15.8130   -4.1930   18.7830 C.3     1  4541        0.1092
     15  C11       15.6600   -4.0060   17.2780 C.3     1  4541        0.2177
     16  C12       15.5330   -5.7400   15.4240 C.cat   1  4541        0.4794
     17  C13       14.9280   -8.6750   16.7790 C.ar    1  4541        0.0287
     18  C14       14.8620   -9.7420   15.8680 C.ar    1  4541       -0.0001
     19  C15       15.4770  -10.9650   16.1360 C.ar    1  4541       -0.0002
     20  C16       16.1650  -11.1410   17.3310 C.ar    1  4541       -0.0000
     21  C17       16.2470  -10.0950   18.2440 C.ar    1  4541       -0.0002
     22  C18       15.6300   -8.8720   17.9730 C.ar    1  4541       -0.0001
@<TRIPOS>BOND
     1     8    16    1
     2     6    16    2
     3     6    11    1
     4    10     9   ar
     5    10     1   ar
     6    16     4    1
     7     9     7   ar
     8    18    19   ar
     9    18    17   ar
    10     1     3   ar
    11    19    20   ar
    12     7    11    1
    13     7     5   ar
    14    11    17    1
    15    11    12    1
    16     4    15    1
    17     4    12    1
    18    17    22   ar
    19     3     5   ar
    20    15    14    1
    21    20    21   ar
    22    12     2    2
    23    22    21   ar
    24     2    13    1
    25    14    13    1
