@<TRIPOS>MOLECULE
3igg_EFQ_A_1.pdb
 22 24 0 0 0
SMALL
GASTEIGER

@<TRIPOS>ATOM
      1  C1        -1.4530   31.8920    8.6890 C.3   999  EFQ999      0.0670
      2  N1        -0.1600   31.6100    8.1410 N.3   999  EFQ999     -0.2181
      3  O1        -3.1600   30.3130   11.1490 O.3   999  EFQ999     -0.2231
      4  C2         0.6210   30.5100    8.1670 C.3   999  EFQ999      0.1983
      5  N2         1.6810   32.1370    7.0490 N.2   999  EFQ999     -0.0449
      6  O2         2.4330   28.2990    8.5350 O.2   999  EFQ999     -0.2425
      7  C3         0.5010   32.5740    7.4750 C.3   999  EFQ999      0.3426
      8  N3         2.9960   30.0580    7.1750 N.am  999  EFQ999      0.0291
      9  O3         4.4810   24.6730    3.2720 O.3   999  EFQ999     -0.4714
     10  C4        -2.4830   30.7350    8.7410 C.3   999  EFQ999      0.0491
     11  C5        -1.4590   31.8270   10.2650 C.3   999  EFQ999      0.0491
     12  C6         1.7950   30.8520    7.4630 C.2   999  EFQ999      0.3578
     13  C7        -2.9160   31.2770   10.1230 C.3   999  EFQ999      0.1547
     14  C8         3.2290   28.8950    7.8150 C.2   999  EFQ999      0.3565
     15  C9         4.6330   28.3980    7.5700 C.3   999  EFQ999      0.1430
     16  C10        4.5950   27.4500    6.4140 C.ar  999  EFQ999     -0.0104
     17  C11        4.3850   26.1020    6.6270 C.ar  999  EFQ999     -0.0006
     18  C12        4.7770   27.9140    5.1070 C.ar  999  EFQ999     -0.0006
     19  C13        4.3690   25.1890    5.5890 C.ar  999  EFQ999      0.0366
     20  C14        4.7620   26.9930    4.0720 C.ar  999  EFQ999      0.0366
     21  C15        4.5260   25.6380    4.2890 C.ar  999  EFQ999      0.1387
     22  C16        5.6580   24.7400    2.4610 C.3   999  EFQ999      0.2525
@<TRIPOS>BOND
     1    22     9    1
     2     9    21    1
     3    20    21   ar
     4    20    18   ar
     5    21    19   ar
     6    18    16   ar
     7    19    17   ar
     8    16    17   ar
     9    16    15    1
    10     5    12    2
    11     5     7    1
    12     8    12    1
    13     8    14   am
    14    12     4    1
    15     7     2    1
    16    15    14    1
    17    14     6    2
    18     2     4    1
    19     2     1    1
    20     1    10    1
    21     1    11    1
    22    10    13    1
    23    13    11    1
    24    13     3    1
