@<TRIPOS>MOLECULE
3ign_C2E_A_1.pdb
 46 52 0 0 0
SMALL
GASTEIGER

@<TRIPOS>ATOM
      1  P1        22.9150   58.4200   69.2100 P.3   401  C2E401      0.2141
      2  O2P       21.9580   57.1470   69.4410 O.3   401  C2E401     -0.4373
      3  O1P       24.2900   57.9540   68.9050 O.2   401  C2E401     -0.5172
      4  O5'       22.4000   59.3210   68.0110 O.3   401  C2E401     -0.3114
      5  C5'       21.7800   58.7770   66.9100 C.3   401  C2E401      0.1812
      6  C4'       21.3130   59.8340   65.9120 C.3   401  C2E401      0.1771
      7  O4'       20.7020   59.0600   64.8710 O.3   401  C2E401     -0.3327
      8  C3'       20.2340   60.7670   66.5190 C.3   401  C2E401      0.1857
      9  O3'       20.5060   62.1770   66.5580 O.3   401  C2E401     -0.3112
     10  C2'       18.9580   60.4220   65.7740 C.3   401  C2E401      0.2282
     11  O2'       18.3980   61.5840   65.1630 O.3   401  C2E401     -0.2159
     12  C1'       19.2790   59.2900   64.8070 C.3   401  C2E401      0.2292
     13  N9        18.5230   58.1710   65.4160 N.pl3 401  C2E401     -0.2354
     14  C8        18.9840   57.2600   66.3470 C.3   401  C2E401      0.2246
     15  N7        18.0690   56.4330   66.6920 N.2   401  C2E401     -0.2322
     16  C5        16.9450   56.7340   66.0190 C.2   401  C2E401      0.2182
     17  C6        15.6370   56.1900   65.9920 C.1   401  C2E401      0.2372
     18  O6        15.3440   55.2310   66.6930 O.2   401  C2E401     -0.2069
     19  N1        14.7100   56.7690   65.1620 N.2   401  C2E401     -0.2485
     20  C2        15.0390   57.8490   64.3710 C.1   401  C2E401      0.2531
     21  N2        14.0940   58.4010   63.5500 N.pl3 401  C2E401     -0.0226
     22  N3        16.2570   58.3690   64.3930 N.2   401  C2E401     -0.3074
     23  C4        17.2220   57.8500   65.1860 C.2   401  C2E401      0.2300
     24  P11       19.9190   62.7890   67.9350 P.3   401  C2E401      0.2141
     25  O21       18.3320   62.5330   68.0900 O.3   401  C2E401     -0.4373
     26  O11       20.1820   64.2440   67.9980 O.2   401  C2E401     -0.5172
     27  O5A       20.7370   62.0190   69.0680 O.3   401  C2E401     -0.3114
     28  C5A       20.4620   62.1220   70.4110 C.3   401  C2E401      0.1812
     29  C4A       21.4350   61.2990   71.2550 C.3   401  C2E401      0.1771
     30  O4A       20.9130   61.3540   72.5870 O.3   401  C2E401     -0.3327
     31  C3A       21.5490   59.8230   70.8240 C.3   401  C2E401      0.1857
     32  O3A       22.8450   59.3770   70.4950 O.3   401  C2E401     -0.3112
     33  C2A       20.9420   59.0250   71.9430 C.3   401  C2E401      0.2282
     34  O2A       21.8460   58.0430   72.4680 O.3   401  C2E401     -0.2159
     35  C1A       20.4670   60.0140   72.9920 C.3   401  C2E401      0.2292
     36  N91       19.0020   59.8100   72.8480 N.pl3 401  C2E401     -0.2354
     37  C81       18.1110   60.5760   72.1210 C.3   401  C2E401      0.2246
     38  N71       16.9180   60.0870   72.2010 N.2   401  C2E401     -0.2322
     39  C51       16.9410   58.9860   72.9730 C.2   401  C2E401      0.2182
     40  C61       15.9540   58.0510   73.3990 C.1   401  C2E401      0.2372
     41  O61       14.7910   58.1750   73.0550 O.2   401  C2E401     -0.2069
     42  N11       16.3390   57.0130   74.2050 N.2   401  C2E401     -0.2485
     43  C21       17.6540   56.8680   74.5910 C.1   401  C2E401      0.2531
     44  N21       18.0080   55.8150   75.3990 N.pl3 401  C2E401     -0.0226
     45  N31       18.5850   57.7310   74.1980 N.2   401  C2E401     -0.3074
     46  C41       18.2770   58.7890   73.3990 C.2   401  C2E401      0.2300
@<TRIPOS>BOND
     1    21    20    1
     2    20    22    2
     3    20    19    2
     4    22    23    2
     5    12     7    1
     6    12    13    1
     7    12    10    1
     8     7     6    1
     9    19    17    2
    10    11    10    1
    11    23    13    1
    12    23    16    1
    13    13    14    1
    14    10     8    1
    15     6     8    1
    16     6     5    1
    17    17    16    1
    18    17    18    2
    19    16    15    2
    20    14    15    1
    21     8     9    1
    22     9    24    1
    23     5     4    1
    24    24    26    2
    25    24    25    1
    26    24    27    1
    27     4     1    1
    28     3     1    2
    29    27    28    1
    30     1     2    1
    31     1    32    1
    32    28    29    1
    33    32    31    1
    34    31    29    1
    35    31    33    1
    36    29    30    1
    37    33    34    1
    38    33    35    1
    39    37    38    1
    40    37    36    1
    41    38    39    2
    42    30    35    1
    43    36    35    1
    44    36    46    1
    45    39    40    1
    46    39    46    1
    47    41    40    2
    48    40    42    2
    49    46    45    2
    50    45    43    2
    51    42    43    2
    52    43    44    1
