@<TRIPOS>MOLECULE
3igo_ANP_A_1.pdb
 31 33 0 0 0
SMALL
GASTEIGER

@<TRIPOS>ATOM
      1  PG        19.3870   13.8130    0.1180 P.3   610  ANP610      0.4884
      2  O1G       19.4980   14.7420   -1.0810 O.2   610  ANP610     -0.2331
      3  O2G       17.9610   13.6690    0.5960 O.3   610  ANP610     -0.1240
      4  O3G       20.0960   12.4950   -0.0910 O.3   610  ANP610     -0.1240
      5  PB        21.9630   14.8730    1.3760 P.3   610  ANP610      0.4669
      6  O1B       22.2970   15.6860    2.6140 O.3   610  ANP610     -0.1253
      7  O2B       22.3670   15.4850    0.0630 O.2   610  ANP610     -0.2351
      8  N3B       20.2370   14.6240    1.4090 N.3   610  ANP610     -0.0163
      9  PA        22.4020   12.2470    2.4970 P.3   610  ANP610      0.2220
     10  O1A       21.0540   11.7280    2.0730 O.2   610  ANP610     -0.5170
     11  O2A       22.5700   12.6160    3.9580 O.3   610  ANP610     -0.4370
     12  O3A       22.7790   13.4710    1.4820 O.3   610  ANP610     -0.2360
     13  O5'       23.5460   11.1950    2.1180 O.3   610  ANP610     -0.3111
     14  C5'       23.8180   10.8660    0.7510 C.3   610  ANP610      0.1813
     15  C4'       24.2550    9.4140    0.6750 C.3   610  ANP610      0.1821
     16  O4'       25.4930    9.1850    1.3410 O.3   610  ANP610     -0.3135
     17  C3'       23.2410    8.4800    1.3270 C.3   610  ANP610      0.2184
     18  O3'       22.4600    7.9450    0.2710 O.3   610  ANP610     -0.2174
     19  C2'       24.0570    7.3730    1.9610 C.3   610  ANP610      0.2570
     20  O2'       24.1400    6.2780    1.0400 O.3   610  ANP610     -0.2130
     21  C1'       25.4390    7.9910    2.1330 C.3   610  ANP610      0.3186
     22  N9        25.6520    8.3210    3.5650 N.pl3 610  ANP610     -0.1439
     23  C8        25.2090    9.4190    4.2050 C.3   610  ANP610      0.3377
     24  N7        25.5890    9.4150    5.5040 N.2   610  ANP610     -0.2095
     25  C5        26.2860    8.2940    5.7180 C.2   610  ANP610      0.2526
     26  C6        26.9570    7.6500    6.8710 C.2   610  ANP610      0.4393
     27  N6        26.9770    8.2380    8.0880 N.pl3 610  ANP610      0.2180
     28  N1        27.5740    6.4610    6.6500 N.2   610  ANP610      0.0021
     29  C2        27.5870    5.8590    5.4400 C.3   610  ANP610      0.5254
     30  N3        26.9760    6.3850    4.3620 N.2   610  ANP610     -0.0055
     31  C4        26.3290    7.5720    4.4330 C.2   610  ANP610      0.3518
@<TRIPOS>BOND
     1     2     1    2
     2     4     1    1
     3     7     5    2
     4     1     3    1
     5     1     8    1
     6    18    17    1
     7    15    14    1
     8    15    17    1
     9    15    16    1
    10    14    13    1
    11    20    19    1
    12    17    19    1
    13    16    21    1
    14     5     8    1
    15     5    12    1
    16     5     6    1
    17    12     9    1
    18    19    21    1
    19    10     9    2
    20    13     9    1
    21    21    22    1
    22     9    11    1
    23    22    23    1
    24    22    31    1
    25    23    24    1
    26    30    31    2
    27    30    29    1
    28    31    25    1
    29    29    28    1
    30    24    25    2
    31    25    26    1
    32    28    26    2
    33    26    27    1
