@<TRIPOS>MOLECULE
3igp_DT7_A_1.pdb
 18 19 0 0 0
SMALL
GASTEIGER

@<TRIPOS>ATOM
      1  CAA       -4.0610    7.2340   11.1240 C.3   263  DT7263      0.2526
      2  CAB       -0.2620    4.3570   12.5330 C.3   263  DT7263      0.2526
      3  NAD       -5.2910   -0.4010   16.1810 N.3   263  DT7263      0.0516
      4  OAE       -5.2360    1.2140   18.0710 O.2   263  DT7263     -0.1383
      5  OAF       -7.3450    0.9480   16.7030 O.2   263  DT7263     -0.1383
      6  CAG       -4.7030    5.5210   13.2720 C.ar  263  DT7263      0.0356
      7  CAH       -2.5690    3.8940   13.9890 C.ar  263  DT7263      0.0369
      8  CAI       -6.3290    4.0080   14.2810 C.3   263  DT7263      0.0454
      9  CAJ       -6.4400    3.2210   15.5690 C.3   263  DT7263      0.1020
     10  OAK       -3.1710    7.0700   12.2540 O.3   263  DT7263     -0.4684
     11  OAL       -1.0760    5.4600   12.9630 O.3   263  DT7263     -0.4684
     12  CAM       -4.9130    4.3290   13.9690 C.ar  263  DT7263     -0.0201
     13  CAN       -3.4100    5.8970   12.9320 C.ar  263  DT7263      0.1721
     14  CAO       -2.3460    5.0820   13.2960 C.ar  263  DT7263      0.1721
     15  CAP       -3.8470    3.5110   14.3320 C.ar  263  DT7263     -0.0051
     16  CAQ       -4.1050    2.1750   15.0780 C.3   263  DT7263      0.1231
     17  NAR       -5.3080    2.3140   15.9320 N.3   263  DT7263     -0.1382
     18  SAS       -5.8520    0.9620   16.7650 S.O2  263  DT7263      0.1330
@<TRIPOS>BOND
     1     1    10    1
     2    10    13    1
     3     2    11    1
     4    13     6   ar
     5    13    14   ar
     6    11    14    1
     7     6    12   ar
     8    14     7   ar
     9    12     8    1
    10    12    15   ar
    11     7    15   ar
    12     8     9    1
    13    15    16    1
    14    16    17    1
    15     9    17    1
    16    17    18    1
    17     3    18    1
    18     5    18    2
    19    18     4    2
