@<TRIPOS>MOLECULE
3igs_16G_A_1.pdb
 19 19 0 0 0
SMALL
GASTEIGER

@<TRIPOS>ATOM
      1  C1        41.4360   29.8270    5.8800 C.3   230  16G230      0.2917
      2  C2        40.2090   29.8600    4.9740 C.3   230  16G230      0.1871
      3  C3        40.6270   29.9190    3.5180 C.3   230  16G230      0.2095
      4  C4        41.6540   31.0260    3.2930 C.3   230  16G230      0.2135
      5  C5        42.8110   30.9140    4.2710 C.3   230  16G230      0.1807
      6  C6        43.7910   32.0600    4.0110 C.3   230  16G230      0.1859
      7  C7        38.0630   28.7840    4.7580 C.2   230  16G230      0.2421
      8  C8        37.2910   27.5030    4.8970 C.3   230  16G230      0.0964
      9  N2        39.3550   28.6970    5.0870 N.am  230  16G230     -0.1991
     10  O1        42.1580   28.6090    5.6650 O.3   230  16G230     -0.1879
     11  O3        39.4380   30.1560    2.7540 O.3   230  16G230     -0.2183
     12  O4        42.2000   30.9250    1.9720 O.3   230  16G230     -0.2176
     13  O5        42.2980   30.9400    5.6050 O.3   230  16G230     -0.3243
     14  O6        45.1400   31.6540    4.3070 O.3   230  16G230     -0.2675
     15  O7        37.5270   29.8430    4.4090 O.2   230  16G230     -0.2733
     16  P         46.2510   31.2970    3.1670 P.3   230  16G230      0.5327
     17  O1P       45.8690   29.9800    2.6050 O.3   230  16G230     -0.1145
     18  O2P       47.6810   31.1680    3.8850 O.3   230  16G230     -0.1145
     19  O3P       46.1470   32.3800    2.0000 O.2   230  16G230     -0.2224
@<TRIPOS>BOND
     1    12     4    1
     2    19    16    2
     3    17    16    1
     4    11     3    1
     5    16    18    1
     6    16    14    1
     7     4     3    1
     8     4     5    1
     9     3     2    1
    10     6     5    1
    11     6    14    1
    12     5    13    1
    13    15     7    2
    14     7     8    1
    15     7     9   am
    16     2     9    1
    17     2     1    1
    18    13     1    1
    19    10     1    1
