@<TRIPOS>MOLECULE
3igu_7JZ_A_1.pdb
 12 12 0 0 0
SMALL
GASTEIGER

@<TRIPOS>ATOM
      1  F2A       57.2310   -3.3570   17.2580 F     1001  7JZ1001    -0.1988
      2  C2        57.2650   -4.4790   17.9470 C.3   1001  7JZ1001     0.3206
      3  F2B       56.4160   -4.3640   18.9480 F     1001  7JZ1001    -0.1988
      4  C1        58.7430   -4.6940   18.3880 C.3   1001  7JZ1001     0.2112
      5  C3        56.7080   -5.6070   17.0710 C.3   1001  7JZ1001     0.2476
      6  O3        55.7690   -5.1020   16.1130 O.3   1001  7JZ1001    -0.2143
      7  C4        57.8470   -6.2680   16.3350 C.3   1001  7JZ1001     0.2172
      8  O4        58.4960   -5.2210   15.5920 O.3   1001  7JZ1001    -0.2175
      9  C5        58.7880   -6.9260   17.3520 C.3   1001  7JZ1001     0.1812
     10  O5        58.9580   -6.1130   18.5450 O.3   1001  7JZ1001    -0.3451
     11  C6        60.1220   -7.2690   16.6950 C.3   1001  7JZ1001     0.2141
     12  O6        60.9230   -8.0920   17.5490 O.3   1001  7JZ1001    -0.2176
@<TRIPOS>BOND
     1     8     7    1
     2     6     5    1
     3     7     5    1
     4     7     9    1
     5    11     9    1
     6    11    12    1
     7     5     2    1
     8     1     2    1
     9     9    10    1
    10     2     4    1
    11     2     3    1
    12     4    10    1
