@<TRIPOS>MOLECULE
3igv_B80_A_1.pdb
 35 38 0 0 0
SMALL
GASTEIGER

@<TRIPOS>ATOM
      1  O31       96.0130    7.0700   62.9810 O.2   579  B80579     -0.1528
      2  S35       96.6500    8.3690   63.3160 S.O2  579  B80579      0.0750
      3  O30       96.1820    8.7890   64.6570 O.2   579  B80579     -0.1528
      4  C20       98.3040    8.2080   63.3880 C.3   579  B80579      0.2016
      5  N26       96.3100    9.4620   62.2940 N.pl3 579  B80579     -0.1009
      6  C10       96.1380    9.3040   60.9440 C.2   579  B80579      0.0882
      7  C4        95.4330   10.2980   60.2670 C.2   579  B80579     -0.0005
      8  C3        95.2190   10.2060   58.8940 C.3   579  B80579      0.0887
      9  C7        96.6370    8.2100   60.2170 C.2   579  B80579      0.0405
     10  C12       96.4270    8.1090   58.8350 C.2   579  B80579      0.1576
     11  C9        95.7170    9.1200   58.1770 C.2   579  B80579      0.1438
     12  N23       95.4850    9.0690   56.8440 N.2   579  B80579     -0.3515
     13  S34       96.9860    6.8610   57.9900 S.O2  579  B80579      0.1112
     14  O28       98.3880    6.5720   58.3470 O.2   579  B80579     -0.1456
     15  O29       96.1700    5.6670   58.2640 O.2   579  B80579     -0.1456
     16  N24       96.9130    7.2270   56.4320 N.2   579  B80579     -0.0614
     17  C15       96.1430    8.2500   55.9790 C.1   579  B80579      0.1132
     18  C13       95.9980    8.4860   54.4920 C.2   579  B80579      0.1632
     19  C14       96.2560    7.5040   53.6150 C.2   579  B80579      0.1895
     20  O32       96.7620    6.3430   54.0180 O.2   579  B80579     -0.2904
     21  C17       95.9680    7.6900   52.1410 C.3   579  B80579      0.0898
     22  C18       96.2070    9.1300   51.6760 C.3   579  B80579      0.0837
     23  C22       97.7070    9.4370   51.6380 C.3   579  B80579      0.0203
     24  C19       98.2960    9.1300   50.2770 C.3   579  B80579      0.0018
     25  C16       95.5630    9.8020   53.9870 C.2   579  B80579      0.2625
     26  O27       95.1960   10.6760   54.7590 O.2   579  B80579     -0.2690
     27  N25       95.5640   10.0190   52.6620 N.am  579  B80579     -0.2725
     28  C21       94.9070   11.1520   52.0220 C.3   579  B80579      0.1204
     29  C8        93.5300   10.7390   51.5570 C.ar  579  B80579     -0.0022
     30  C1        93.2180   10.8130   50.1990 C.ar  579  B80579     -0.0003
     31  C5        91.9590   10.4300   49.7530 C.ar  579  B80579      0.0294
     32  C2        92.5860   10.2830   52.4750 C.ar  579  B80579     -0.0003
     33  C6        91.3270    9.8980   52.0300 C.ar  579  B80579      0.0294
     34  C11       91.0160    9.9730   50.6730 C.ar  579  B80579      0.1401
     35  F33       89.7970    9.6060   50.2460 F     579  B80579     -0.2042
@<TRIPOS>BOND
     1    31    30   ar
     2    31    34   ar
     3    30    29   ar
     4    35    34    1
     5    24    23    1
     6    34    33   ar
     7    29    28    1
     8    29    32   ar
     9    23    22    1
    10    22    21    1
    11    22    27    1
    12    28    27    1
    13    33    32   ar
    14    21    19    1
    15    27    25   am
    16    19    20    1
    17    19    18    2
    18    25    18    1
    19    25    26    2
    20    18    17    1
    21    17    16    2
    22    17    12    2
    23    16    13    1
    24    12    11    2
    25    13    15    2
    26    13    14    2
    27    13    10    1
    28    11    10    1
    29    11     8    1
    30    10     9    2
    31     8     7    1
    32     9     6    1
    33     7     6    2
    34     6     5    1
    35     5     2    1
    36     1     2    2
    37     2     4    1
    38     2     3    2
