@<TRIPOS>MOLECULE
3ih0_ANP_A_1.pdb
 31 33 0 0 0
SMALL
GASTEIGER

@<TRIPOS>ATOM
      1  PG         5.1880    7.6360   19.4100 P.3   900  ANP900      0.4884
      2  O1G        5.5670    6.5190   20.3620 O.3   900  ANP900     -0.1240
      3  O2G        3.9600    8.4120   19.8110 O.3   900  ANP900     -0.1240
      4  O3G        5.0580    7.1300   17.9940 O.2   900  ANP900     -0.2331
      5  PB         7.9600    8.6670   20.3290 P.3   900  ANP900      0.4669
      6  O1B        8.3570    9.9940   20.9200 O.2   900  ANP900     -0.2351
      7  O2B        7.8270    7.4850   21.2080 O.3   900  ANP900     -0.1253
      8  N3B        6.4850    8.7890   19.3890 N.3   900  ANP900     -0.0163
      9  PA         9.3790    9.0770   17.7580 P.3   900  ANP900      0.2220
     10  O1A        9.4270    8.1020   16.6040 O.2   900  ANP900     -0.5170
     11  O2A        8.5060   10.2790   17.6340 O.3   900  ANP900     -0.4370
     12  O3A        9.0240    8.2970   19.1640 O.3   900  ANP900     -0.2360
     13  O5'       10.8560    9.5740   18.1520 O.3   900  ANP900     -0.3111
     14  C5'       11.9610    8.6930   18.3990 C.3   900  ANP900      0.1813
     15  C4'       13.2780    9.4620   18.2380 C.3   900  ANP900      0.1821
     16  O4'       13.9180    8.8530   17.1230 O.3   900  ANP900     -0.3135
     17  C3'       13.1940   10.9520   17.8440 C.3   900  ANP900      0.2184
     18  O3'       13.1160   11.8440   18.9250 O.3   900  ANP900     -0.2174
     19  C2'       14.4010   11.1400   17.0080 C.3   900  ANP900      0.2570
     20  O2'       15.5390   11.5270   17.7810 O.3   900  ANP900     -0.2130
     21  C1'       14.6010    9.8110   16.3240 C.3   900  ANP900      0.3186
     22  N9        14.0010    9.9280   14.9430 N.pl3 900  ANP900     -0.1439
     23  C8        12.7210    9.6760   14.5150 C.3   900  ANP900      0.3377
     24  N7        12.5770    9.9020   13.1840 N.2   900  ANP900     -0.2095
     25  C5        13.7720   10.3020   12.7230 C.2   900  ANP900      0.2526
     26  C6        14.3690   10.7160   11.4080 C.2   900  ANP900      0.4393
     27  N6        13.6150   10.7360   10.2930 N.pl3 900  ANP900      0.2180
     28  N1        15.7140   11.0720   11.3760 N.2   900  ANP900      0.0021
     29  C2        16.5290   11.0640   12.4980 C.3   900  ANP900      0.5254
     30  N3        16.0490   10.7010   13.7250 N.2   900  ANP900     -0.0055
     31  C4        14.7170   10.3180   13.8900 C.2   900  ANP900      0.3518
@<TRIPOS>BOND
     1    27    26    1
     2    28    26    2
     3    28    29    1
     4    26    25    1
     5    29    30    1
     6    25    24    2
     7    25    31    1
     8    24    23    1
     9    30    31    2
    10    31    22    1
    11    23    22    1
    12    22    21    1
    13    21    19    1
    14    21    16    1
    15    10     9    2
    16    19    20    1
    17    19    17    1
    18    16    15    1
    19    11     9    1
    20     9    13    1
    21     9    12    1
    22    17    15    1
    23    17    18    1
    24     4     1    2
    25    13    14    1
    26    15    14    1
    27    12     5    1
    28     8     1    1
    29     8     5    1
    30     1     3    1
    31     1     2    1
    32     5     6    2
    33     5     7    1
