@<TRIPOS>MOLECULE
3iha_GLU_A_1.pdb
 10 9 0 0 0
SMALL
GASTEIGER

@<TRIPOS>ATOM
      1  N          8.6150   16.4770   20.7430 N.3   500  GLU500     -0.1208
      2  CA         8.6970   17.6010   19.7730 C.3   500  GLU500      0.1949
      3  C          7.7150   18.6880   20.1440 C.2   500  GLU500      0.3819
      4  O          7.9050   19.8290   19.6830 O.co2 500  GLU500     -0.2441
      5  CB         8.3830   17.1100   18.3630 C.3   500  GLU500      0.0424
      6  CG         9.5560   16.4710   17.6610 C.3   500  GLU500      0.1161
      7  CD         9.2740   16.2040   16.2020 C.2   500  GLU500      0.3649
      8  OE1        8.6640   17.0800   15.5490 O.co2 500  GLU500     -0.2457
      9  OE2        9.6680   15.1240   15.7130 O.co2 500  GLU500     -0.2457
     10  OXT        6.7650   18.3700   20.8840 O.co2 500  GLU500     -0.2441
@<TRIPOS>BOND
     1     8     7   ar
     2     9     7   ar
     3     7     6    1
     4     6     5    1
     5     5     2    1
     6     4     3   ar
     7     2     3    1
     8     2     1    1
     9     3    10   ar
