@<TRIPOS>MOLECULE
3ihg_VAK_A_1.pdb
 30 33 0 0 0
SMALL
GASTEIGER

@<TRIPOS>ATOM
      1  C1        12.8320   34.8440   -5.8580 C.ar  537  VAK537      0.0035
      2  C2        13.4240   35.8810   -6.5970 C.ar  537  VAK537      0.0034
      3  C3        13.0800   37.2270   -6.3210 C.ar  537  VAK537      0.0421
      4  C4        12.1240   37.5030   -5.3360 C.ar  537  VAK537      0.1988
      5  C5        10.6120   36.8390   -3.6280 C.2   537  VAK537      0.2019
      6  C6         9.0700   36.1510   -1.9030 C.ar  537  VAK537      0.1969
      7  C7         7.5040   35.4860   -0.0540 C.3   537  VAK537      0.1795
      8  C8         7.5190   34.3740    0.9740 C.3   537  VAK537      0.0689
      9  C9         7.2190   33.0180    0.2860 C.3   537  VAK537      0.1431
     10  C10        8.3110   32.6160   -0.6930 C.3   537  VAK537      0.1491
     11  C11        9.7620   33.4540   -2.4550 C.ar  537  VAK537     -0.0004
     12  C12       11.2790   34.1270   -4.1640 C.2   537  VAK537      0.1959
     13  C13        7.0940   31.8120    1.2170 C.3   537  VAK537      0.0314
     14  C14        9.5640   32.2150    0.0790 C.2   537  VAK537      0.3231
     15  C15       11.6610   30.8120    0.2040 C.3   537  VAK537      0.2556
     16  C16       11.5230   36.4830   -4.6220 C.ar  537  VAK537      0.0810
     17  O16       10.3920   31.1040   -0.3840 O.3   537  VAK537     -0.4441
     18  C17       10.0030   35.8210   -2.8980 C.ar  537  VAK537      0.0807
     19  O17        9.9520   32.8300    1.0540 O.2   537  VAK537     -0.2497
     20  C18       10.3510   34.4790   -3.1670 C.ar  537  VAK537      0.0448
     21  O18       11.5840   32.9230   -4.4130 O.2   537  VAK537     -0.2866
     22  C19        8.8310   33.7490   -1.4670 C.ar  537  VAK537     -0.0080
     23  O19       11.7710   38.7590   -5.0300 O.3   537  VAK537     -0.2865
     24  C20        8.4590   35.1540   -1.1600 C.ar  537  VAK537      0.0435
     25  O20       10.3460   38.0740   -3.4140 O.2   537  VAK537     -0.2864
     26  C21       11.8820   35.1520   -4.8800 C.ar  537  VAK537      0.0451
     27  O21        8.7520   37.4380   -1.6330 O.3   537  VAK537     -0.2867
     28  C22        6.5970   32.2650    2.5520 C.3   537  VAK537      0.0026
     29  O22        6.1630   35.7800   -0.4320 O.3   537  VAK537     -0.2181
     30  O23        5.9770   33.1830   -0.4290 O.3   537  VAK537     -0.2247
@<TRIPOS>BOND
     1     2     3   ar
     2     2     1   ar
     3     3     4   ar
     4     1    26   ar
     5     4    23    1
     6     4    16   ar
     7    26    16   ar
     8    26    12    1
     9    16     5    1
    10    21    12    2
    11    12    20    1
    12     5    25    2
    13     5    18    1
    14    20    18   ar
    15    20    11   ar
    16    18     6   ar
    17    11    22   ar
    18     6    27    1
    19     6    24   ar
    20    22    24   ar
    21    22    10    1
    22    24     7    1
    23    10    14    1
    24    10     9    1
    25    29     7    1
    26    30     9    1
    27    17    14    1
    28    17    15    1
    29     7     8    1
    30    14    19    2
    31     9     8    1
    32     9    13    1
    33    13    28    1
