@<TRIPOS>MOLECULE
3ihj_PLP_A_1.pdb
 15 15 0 0 0
SMALL
GASTEIGER

@<TRIPOS>ATOM
      1  N1       -14.4790   57.2500    9.9540 N.ar    1  PLP1       -0.2452
      2  C2       -15.4260   58.0260   10.5220 C.ar    1  PLP1        0.0978
      3  C2A      -15.8570   59.2180    9.7890 C.3     1  PLP1        0.0555
      4  C3       -15.9290   57.6910   11.7660 C.ar    1  PLP1        0.2049
      5  O3       -16.9230   58.4610   12.3270 O.3     1  PLP1       -0.2857
      6  C4       -15.4620   56.5380   12.4150 C.ar    1  PLP1        0.0182
      7  C4A      -15.9760   56.2230   13.7960 C.3     1  PLP1        0.0342
      8  C5       -14.4990   55.7510   11.8390 C.ar    1  PLP1        0.0261
      9  C6       -14.0480   56.1260   10.6020 C.ar    1  PLP1        0.0965
     10  C5A      -13.9740   54.4370   12.4440 C.3     1  PLP1        0.1815
     11  O4P      -14.9370   53.3780   12.4490 O.3     1  PLP1       -0.2653
     12  P        -14.8230   52.0410   13.4060 P.3     1  PLP1        0.5329
     13  O1P      -13.3160   51.8120   13.4940 O.3     1  PLP1       -0.1145
     14  O2P      -15.5120   51.0370   12.5680 O.2     1  PLP1       -0.2224
     15  O3P      -15.4070   52.5080   14.6700 O.3     1  PLP1       -0.1145
@<TRIPOS>BOND
     1     3     2    1
     2     1     2   ar
     3     1     9   ar
     4     2     4   ar
     5     9     8   ar
     6     4     5    1
     7     4     6   ar
     8     8     6   ar
     9     8    10    1
    10     6     7    1
    11    10    11    1
    12    11    12    1
    13    14    12    2
    14    12    13    1
    15    12    15    1
