@<TRIPOS>MOLECULE
3ihk_TPP_A_1.pdb
 26 27 0 0 0
SMALL
GASTEIGER

@<TRIPOS>ATOM
      1  N1'       12.6790    9.9000  -14.9400 N.pl3 902  TPP902     -0.1904
      2  C2'       12.8310    8.5970  -15.5840 C.3   902  TPP902      0.3090
      3  CM2       11.8280    7.6150  -14.9840 C.3   902  TPP902      0.0835
      4  N3'       14.1610    8.0150  -15.3660 N.2   902  TPP902     -0.0395
      5  C4'       15.0590    8.9030  -15.7570 C.2   902  TPP902      0.4110
      6  N4'       16.1510    8.4590  -16.3510 N.pl3 902  TPP902      0.2157
      7  C5'       14.9720   10.2810  -15.5790 C.2   902  TPP902      0.1040
      8  C6'       13.7190   10.7070  -15.1780 C.2   902  TPP902      0.0894
      9  C7'       16.0250   11.3690  -15.8190 C.3   902  TPP902      0.1273
     10  N3        16.9330   11.5030  -14.6740 N.pl3 902  TPP902     -0.2969
     11  C2        16.5010   11.0660  -13.3380 C.3   902  TPP902      0.1543
     12  S1        18.0680   11.3130  -12.4410 S.3   902  TPP902     -0.0951
     13  C5        18.8960   12.1450  -13.7300 C.2   902  TPP902      0.0164
     14  C4        18.1300   12.0330  -14.8840 C.2   902  TPP902      0.0279
     15  CM4       18.6240   12.5010  -16.2620 C.3   902  TPP902      0.0473
     16  C6        20.2910   12.7410  -13.5800 C.3   902  TPP902      0.0661
     17  C7        20.3150   14.2660  -13.7200 C.3   902  TPP902      0.1544
     18  O7        20.2700   14.9290  -12.4510 O.3   902  TPP902     -0.3134
     19  PA        21.6070   15.4720  -11.7240 P.3   902  TPP902      0.2230
     20  O1A       21.2780   16.0500  -10.4010 O.3   902  TPP902     -0.4370
     21  O2A       22.6620   14.4360  -11.7840 O.2   902  TPP902     -0.5169
     22  O3A       22.0600   16.6740  -12.6940 O.3   902  TPP902     -0.2261
     23  PB        21.0040   17.8280  -13.0750 P.3   902  TPP902      0.5373
     24  O1B       19.5960   17.3670  -13.0910 O.3   902  TPP902     -0.1143
     25  O2B       21.2420   19.0250  -12.0250 O.3   902  TPP902     -0.1143
     26  O3B       21.4680   18.3960  -14.5080 O.2   902  TPP902     -0.2221
@<TRIPOS>BOND
     1     6     5    1
     2    15    14    1
     3     9     7    1
     4     9    10    1
     5     5     7    1
     6     5     4    2
     7     2     4    1
     8     2     3    1
     9     2     1    1
    10     7     8    2
    11     8     1    1
    12    14    10    1
    13    14    13    2
    14    10    11    1
    15    26    23    2
    16    13    16    1
    17    13    12    1
    18    17    16    1
    19    17    18    1
    20    11    12    1
    21    24    23    1
    22    23    22    1
    23    23    25    1
    24    22    19    1
    25    18    19    1
    26    21    19    2
    27    19    20    1
