@<TRIPOS>MOLECULE
3ihl_ADP_A_1.pdb
 27 29 0 0 0
SMALL
GASTEIGER

@<TRIPOS>ATOM
      1  PB        70.7720   42.3640   42.4140 P.3   300  ADP300      0.5373
      2  O1B       70.7790   43.7600   41.8770 O.3   300  ADP300     -0.1143
      3  O2B       69.7660   41.4850   41.7010 O.2   300  ADP300     -0.2221
      4  O3B       72.1380   41.7570   42.5830 O.3   300  ADP300     -0.1143
      5  PA        70.9760   42.5640   45.2950 P.3   300  ADP300      0.2231
      6  O1A       71.4900   41.2040   45.7310 O.3   300  ADP300     -0.4370
      7  O2A       71.8800   43.7720   45.2680 O.2   300  ADP300     -0.5169
      8  O3A       70.1390   42.4540   43.9020 O.3   300  ADP300     -0.2261
      9  O5'       69.8060   42.9080   46.3410 O.3   300  ADP300     -0.3111
     10  C5'       69.0670   44.1240   46.2010 C.3   300  ADP300      0.1813
     11  C4'       68.7010   44.6400   47.5750 C.3   300  ADP300      0.1821
     12  O4'       67.7490   43.7580   48.1730 O.3   300  ADP300     -0.3135
     13  C3'       69.8810   44.6590   48.5250 C.3   300  ADP300      0.2184
     14  O3'       69.6650   45.7260   49.4410 O.3   300  ADP300     -0.2174
     15  C2'       69.7880   43.3300   49.2440 C.3   300  ADP300      0.2570
     16  O2'       70.4300   43.2920   50.5260 O.3   300  ADP300     -0.2130
     17  C1'       68.2820   43.1810   49.3490 C.3   300  ADP300      0.3186
     18  N9        67.8470   41.7910   49.4020 N.pl3 300  ADP300     -0.1439
     19  C8        68.1930   40.8010   48.5710 C.3   300  ADP300      0.3377
     20  N7        67.5850   39.6540   48.9460 N.2   300  ADP300     -0.2095
     21  C5        66.8440   39.9090   50.0270 C.2   300  ADP300      0.2526
     22  C6        65.9600   39.1540   50.9100 C.2   300  ADP300      0.4393
     23  N6        65.7520   37.8390   50.6990 N.pl3 300  ADP300      0.2180
     24  N1        65.3760   39.7920   51.9430 N.2   300  ADP300      0.0021
     25  C2        65.5850   41.1020   52.1550 C.3   300  ADP300      0.5254
     26  N3        66.3800   41.8580   51.3840 N.2   300  ADP300     -0.0055
     27  C4        67.0220   41.3210   50.3250 C.2   300  ADP300      0.3518
@<TRIPOS>BOND
     1     3     1    2
     2     2     1    1
     3     1     4    1
     4     1     8    1
     5     8     5    1
     6     7     5    2
     7     5     6    1
     8     5     9    1
     9    10     9    1
    10    10    11    1
    11    11    12    1
    12    11    13    1
    13    12    17    1
    14    13    15    1
    15    13    14    1
    16    19    20    1
    17    19    18    1
    18    20    21    2
    19    15    17    1
    20    15    16    1
    21    17    18    1
    22    18    27    1
    23    21    27    1
    24    21    22    1
    25    27    26    2
    26    23    22    1
    27    22    24    2
    28    26    25    1
    29    24    25    1
