@<TRIPOS>MOLECULE
3iht_SAM_A_1.pdb
 27 29 0 0 0
SMALL
GASTEIGER

@<TRIPOS>ATOM
      1  N          6.5480   45.5240   10.5310 N.3   200  SAM200     -0.1208
      2  CA         5.2020   45.1510   11.0840 C.3   200  SAM200      0.1952
      3  C          5.2790   43.8560   11.9270 C.2   200  SAM200      0.3819
      4  O          4.2570   43.3350   12.4370 O.co2 200  SAM200     -0.2441
      5  OXT        6.3760   43.2540   12.0130 O.co2 200  SAM200     -0.2441
      6  CB         4.1210   45.0670    9.9870 C.3   200  SAM200      0.0414
      7  CG         3.7160   46.4220    9.3630 C.3   200  SAM200      0.0503
      8  SD         2.3340   46.2910    8.1420 S.3   200  SAM200     -0.1761
      9  CE         3.1990   45.3110    6.8730 C.3   200  SAM200      0.0590
     10  C5'        2.3900   48.0010    7.4510 C.3   200  SAM200      0.0806
     11  C4'        1.9050   49.1050    8.3800 C.3   200  SAM200      0.1622
     12  O4'        2.2710   50.3760    7.8020 O.3   200  SAM200     -0.3153
     13  C3'        0.3870   49.1370    8.5910 C.3   200  SAM200      0.2168
     14  O3'        0.0350   49.1210    9.9750 O.3   200  SAM200     -0.2175
     15  C2'       -0.0760   50.4070    7.8830 C.3   200  SAM200      0.2569
     16  O2'       -1.2460   51.0690    8.4010 O.3   200  SAM200     -0.2130
     17  C1'        1.1730   51.2680    7.9870 C.3   200  SAM200      0.3185
     18  N9         1.2010   52.3530    6.9710 N.pl3 200  SAM200     -0.1439
     19  C8         1.2180   52.1990    5.5970 C.3   200  SAM200      0.3377
     20  N7         1.2610   53.4270    5.0200 N.2   200  SAM200     -0.2095
     21  C5         1.2610   54.3650    5.9990 C.2   200  SAM200      0.2526
     22  C6         1.3070   55.7590    5.9570 C.2   200  SAM200      0.4393
     23  N6         1.3130   56.4350    4.7840 N.pl3 200  SAM200      0.2180
     24  N1         1.3390   56.4290    7.1670 N.2   200  SAM200      0.0021
     25  C2         1.3000   55.7860    8.3860 C.3   200  SAM200      0.5254
     26  N3         1.2380   54.3920    8.4180 N.2   200  SAM200     -0.0055
     27  C4         1.2340   53.7060    7.2400 C.2   200  SAM200      0.3518
@<TRIPOS>BOND
     1    23    22    1
     2    20    19    1
     3    20    21    2
     4    19    18    1
     5    22    21    1
     6    22    24    2
     7    21    27    1
     8     9     8    1
     9    18    27    1
    10    18    17    1
    11    24    25    1
    12    27    26    2
    13    10     8    1
    14    10    11    1
    15    12    17    1
    16    12    11    1
    17    15    17    1
    18    15    16    1
    19    15    13    1
    20     8     7    1
    21    11    13    1
    22    25    26    1
    23    13    14    1
    24     7     6    1
    25     6     2    1
    26     1     2    1
    27     2     3    1
    28     3     5   ar
    29     3     4   ar
