@<TRIPOS>MOLECULE
3ii0_PLP_A_1.pdb
 16 16 0 0 0
SMALL
GASTEIGER

@<TRIPOS>ATOM
      1  N1        35.6020   -3.4290  -32.5560 N.ar    1  PLP1       -0.2452
      2  C2        36.2780   -4.4630  -33.1300 C.ar    1  PLP1        0.0982
      3  C2A       37.7700   -4.3700  -33.2260 C.3     1  PLP1        0.0555
      4  C3        35.5930   -5.5890  -33.5240 C.ar    1  PLP1        0.2120
      5  O3        36.2930   -6.5910  -34.0830 O.3     1  PLP1       -0.2852
      6  C4        34.2080   -5.6910  -33.4390 C.ar    1  PLP1        0.0822
      7  C4A       33.5550   -7.0340  -33.6800 C.2     1  PLP1        0.2372
      8  O4A       33.4140   -7.8730  -32.7450 O.2     1  PLP1       -0.2830
      9  C5        33.5280   -4.6030  -32.8960 C.ar    1  PLP1        0.0333
     10  C6        34.2420   -3.5130  -32.4570 C.ar    1  PLP1        0.0969
     11  C5A       32.0220   -4.4860  -32.7670 C.3     1  PLP1        0.1819
     12  O4P       31.4000   -5.5170  -32.1200 O.3     1  PLP1       -0.2653
     13  P         29.8360   -5.5610  -32.0160 P.3     1  PLP1        0.5329
     14  O1P       29.5930   -5.9420  -30.5830 O.3     1  PLP1       -0.1145
     15  O2P       29.2370   -6.6460  -32.8410 O.2     1  PLP1       -0.2224
     16  O3P       29.1170   -4.2430  -32.3470 O.3     1  PLP1       -0.1145
@<TRIPOS>BOND
     1     5     4    1
     2     7     6    1
     3     7     8    2
     4     4     6   ar
     5     4     2   ar
     6     6     9   ar
     7     3     2    1
     8     2     1   ar
     9     9    11    1
    10     9    10   ar
    11    15    13    2
    12    11    12    1
    13     1    10   ar
    14    16    13    1
    15    12    13    1
    16    13    14    1
