@<TRIPOS>MOLECULE
3ii1_BGC_A_1.pdb
 12 12 0 0 0
SMALL
GASTEIGER

@<TRIPOS>ATOM
      1  C2         5.0000   28.5360   13.0960 C.3   561  BGC561      0.2434
      2  C3         5.4700   29.9630   13.3730 C.3   561  BGC561      0.2199
      3  C4         4.1460   30.7040   13.6270 C.3   561  BGC561      0.2144
      4  C5         3.7750   30.2620   15.0500 C.3   561  BGC561      0.1836
      5  C6         2.7340   31.1650   15.7880 C.3   561  BGC561      0.2142
      6  C1         3.6670   28.1340   13.8100 C.3   561  BGC561      0.3024
      7  O1         2.4800   28.1210   12.9820 O.3   561  BGC561     -0.1869
      8  O2         6.0450   27.6510   13.4730 O.3   561  BGC561     -0.2148
      9  O3         6.3170   30.4940   12.3130 O.3   561  BGC561     -0.2174
     10  O4         4.1780   32.1250   13.4090 O.3   561  BGC561     -0.2176
     11  O5         3.3860   28.8760   14.9910 O.3   561  BGC561     -0.3236
     12  O6         1.3940   30.6090   15.9740 O.3   561  BGC561     -0.2176
@<TRIPOS>BOND
     1     9     2    1
     2     7     6    1
     3     1     2    1
     4     1     8    1
     5     1     6    1
     6     2     3    1
     7    10     3    1
     8     3     4    1
     9     6    11    1
    10    11     4    1
    11     4     5    1
    12     5    12    1
