@<TRIPOS>MOLECULE
3ii4_3II_A_1.pdb
 43 47 0 0 0
SMALL
GASTEIGER

@<TRIPOS>ATOM
      1  C1       -25.9350    3.0300   34.5350 C.ar  465  3II465      0.0107
      2  C2       -25.7410    1.7220   35.1450 C.ar  465  3II465      0.0877
      3  C3       -26.9760    0.8000   35.2660 C.2   465  3II465      0.2520
      4  C4       -24.4310    1.2770   35.6420 C.ar  465  3II465      0.1461
      5  O5       -22.4250    4.3400   34.8040 O.3   465  3II465     -0.4713
      6  C6       -21.9180    5.0430   36.1550 C.3   465  3II465      0.2525
      7  O7       -27.7120    0.9690   36.2460 O.2   465  3II465     -0.2698
      8  N8       -27.2460   -0.1740   34.3080 N.am  465  3II465     -0.2759
      9  C9       -25.8340   -1.9080   33.2460 C.3   465  3II465      0.0486
     10  C10      -26.4140   -0.4600   33.0870 C.3   465  3II465      0.0959
     11  C11      -28.4550   -1.0490   34.4410 C.3   465  3II465      0.0959
     12  C12      -26.9550   -2.9910   33.5330 C.3   465  3II465      0.1313
     13  C13      -27.9910   -2.5200   34.6460 C.3   465  3II465      0.0486
     14  C14      -27.6450   -3.3820   32.2020 C.2   465  3II465      0.2433
     15  C15      -23.3580    2.2410   35.4780 C.ar  465  3II465      0.0739
     16  C16      -23.5100    3.5540   34.8790 C.ar  465  3II465      0.1418
     17  O17      -24.2640    0.0300   36.2220 O.3   465  3II465     -0.4712
     18  C18      -22.9550   -0.3970   36.7140 C.3   465  3II465      0.2525
     19  C19      -24.8290    3.9270   34.4070 C.ar  465  3II465      0.0373
     20  N20      -26.3200   -4.3540   33.9670 N.pl3 465  3II465     -0.2857
     21  N21      -27.6240   -4.7720   32.0750 N.am  465  3II465     -0.2521
     22  O22      -28.1070   -2.6220   31.3540 O.2   465  3II465     -0.2731
     23  C23      -26.8870   -5.4700   33.1430 C.3   465  3II465      0.1914
     24  C24      -25.4270   -4.5660   35.1440 C.ar  465  3II465      0.0493
     25  C25      -28.6000   -5.5730   31.2880 C.3   465  3II465      0.1821
     26  C26      -24.8160   -5.8960   35.3710 C.ar  465  3II465      0.0146
     27  C27      -25.0630   -3.5550   36.1620 C.ar  465  3II465      0.0146
     28  C28      -24.1940   -3.8280   37.2800 C.ar  465  3II465      0.0013
     29  C29      -29.9020   -5.4970   31.6750 C.2   465  3II465      0.2617
     30  C30      -23.6340   -5.1360   37.4470 C.ar  465  3II465      0.0001
     31  C31      -23.9440   -6.1720   36.4930 C.ar  465  3II465      0.0013
     32  O32      -30.2440   -5.5730   32.8420 O.2   465  3II465     -0.2715
     33  N33      -30.7980   -5.3430   30.7490 N.am  465  3II465     -0.2036
     34  C34      -31.6820   -4.2820   30.7920 C.3   465  3II465      0.1199
     35  C35      -32.2790   -3.7230   29.4810 C.3   465  3II465      0.0506
     36  C36      -33.7960   -3.3840   29.3910 C.ar  465  3II465     -0.0098
     37  C37      -34.4420   -2.4580   30.3280 C.ar  465  3II465     -0.0025
     38  C38      -35.8510   -2.1350   30.2520 C.ar  465  3II465      0.0111
     39  C39      -36.6780   -2.7300   29.2250 C.ar  465  3II465      0.0585
     40 CL40      -38.3550   -2.3360   29.1380 Cl    465  3II465     -0.0822
     41  C41      -36.0880   -3.6520   28.2760 C.ar  465  3II465      0.0225
     42  C42      -34.6700   -3.9830   28.3450 C.ar  465  3II465      0.0546
     43 CL43      -34.0850   -5.1010   27.1490 Cl    465  3II465     -0.0825
@<TRIPOS>BOND
     1    43    42    1
     2    41    42   ar
     3    41    39   ar
     4    42    36   ar
     5    40    39    1
     6    39    38   ar
     7    36    35    1
     8    36    37   ar
     9    35    34    1
    10    38    37   ar
    11    33    34    1
    12    33    29   am
    13    25    29    1
    14    25    21    1
    15    22    14    2
    16    29    32    2
    17    21    14   am
    18    21    23    1
    19    14    12    1
    20    10     9    1
    21    10     8    1
    22    23    20    1
    23     9    12    1
    24    12    20    1
    25    12    13    1
    26    20    24    1
    27     8    11    1
    28     8     3   am
    29    19     1   ar
    30    19    16   ar
    31    11    13    1
    32     1     2   ar
    33     5    16    1
    34     5     6    1
    35    16    15   ar
    36    24    26   ar
    37    24    27   ar
    38     2     3    1
    39     2     4   ar
    40     3     7    2
    41    26    31   ar
    42    15     4   ar
    43     4    17    1
    44    27    28   ar
    45    17    18    1
    46    31    30   ar
    47    28    30   ar
