@<TRIPOS>MOLECULE
3ii5_831_A_1.pdb
 38 42 0 0 0
SMALL
GASTEIGER

@<TRIPOS>ATOM
      1  C1       -11.9550    8.5420    9.0290 C.3     1  8311        0.0899
      2  F1        -8.5590   22.0150    1.2540 F       1  8311       -0.1659
      3  N1       -12.8220    9.0000   10.1780 N.3     1  8311       -0.2665
      4  O1        -8.6300   20.8260    5.7140 O.2     1  8311       -0.2680
      5  C2       -14.0960    9.6700    9.7310 C.3     1  8311        0.0899
      6  F2        -6.7380   22.5700    0.1950 F       1  8311       -0.1659
      7  N2        -8.6910   16.8420    9.8400 N.2     1  8311       -0.0896
      8  C3       -12.0500    9.7430   11.2660 C.3     1  8311        0.0992
      9  F3        -7.8680   24.0670    1.2580 F       1  8311       -0.1659
     10  N3        -9.8980   17.3980   10.1210 N.pl3   1  8311       -0.0749
     11  C4       -11.5880   11.1680   11.0270 C.ar    1  8311       -0.0062
     12  N4       -12.1400   16.7890   10.7540 N.2     1  8311       -0.0379
     13  C5       -12.2670   12.2670   11.5860 C.ar    1  8311       -0.0032
     14  N5        -6.9640   21.3760    7.2520 N.am    1  8311       -0.1755
     15  C6       -11.8360   13.5840   11.3620 C.ar    1  8311       -0.0036
     16  C7       -10.7050   13.8370   10.5690 C.ar    1  8311       -0.0052
     17  C8       -10.0250   12.7400   10.0190 C.ar    1  8311       -0.0036
     18  C9       -10.4550   11.4270   10.2420 C.ar    1  8311       -0.0032
     19  C10      -10.2060   15.1920   10.3450 C.3     1  8311        0.1749
     20  C11       -8.8930   15.5400    9.9800 C.2     1  8311        0.1325
     21  C12      -10.8590   16.4200   10.4380 C.2     1  8311        0.3336
     22  C13      -12.4000   18.0630   10.7380 C.2     1  8311        0.2353
     23  C14      -11.4560   19.1600   10.4160 C.2     1  8311        0.0771
     24  C15      -10.2040   18.7700   10.1080 C.3     1  8311        0.2355
     25  C16       -9.1710   19.7890    9.8230 C.ar    1  8311        0.0279
     26  C17       -8.7870   20.5510   10.9340 C.ar    1  8311        0.0001
     27  C18       -7.8270   21.5510   10.8460 C.ar    1  8311        0.0012
     28  C19       -7.2210   21.8130    9.6250 C.ar    1  8311        0.0166
     29  C20       -7.5730   21.0740    8.4930 C.ar    1  8311        0.0735
     30  C21       -8.5550   20.0530    8.5830 C.ar    1  8311        0.0166
     31  C22       -7.5210   21.2500    5.9980 C.2     1  8311        0.2690
     32  C23       -6.6740   21.7180    4.8850 C.ar    1  8311        0.0553
     33  C24       -5.2890   21.8720    4.9640 C.ar    1  8311        0.0046
     34  C25       -4.5940   22.3280    3.8430 C.ar    1  8311        0.0001
     35  C26       -5.2730   22.6290    2.6590 C.ar    1  8311        0.0039
     36  C27       -6.6610   22.4770    2.5840 C.ar    1  8311        0.0716
     37  C28       -7.3530   22.0220    3.7040 C.ar    1  8311        0.0084
     38  C29       -7.4380   22.7820    1.3400 C.3     1  8311        0.4186
@<TRIPOS>BOND
     1     6    38    1
     2     2    38    1
     3     9    38    1
     4    38    36    1
     5    36    35   ar
     6    36    37   ar
     7    35    34   ar
     8    37    32   ar
     9    34    33   ar
    10    32    33   ar
    11    32    31    1
    12     4    31    2
    13    31    14   am
    14    14    29    1
    15    29    30   ar
    16    29    28   ar
    17    30    25   ar
    18     1     3    1
    19    28    27   ar
    20     5     3    1
    21    25    24    1
    22    25    26   ar
    23     7    20    2
    24     7    10    1
    25    20    19    1
    26    17    18   ar
    27    17    16   ar
    28    24    10    1
    29    24    23    1
    30    10    21    1
    31     3     8    1
    32    18    11   ar
    33    19    21    1
    34    19    16    1
    35    23    22    2
    36    21    12    2
    37    16    15   ar
    38    22    12    1
    39    27    26   ar
    40    11     8    1
    41    11    13   ar
    42    15    13   ar
