@<TRIPOS>MOLECULE
3iid_APR_A_1.pdb
 36 39 0 0 0
SMALL
GASTEIGER

@<TRIPOS>ATOM
      1  N1         6.4380  -34.4820   -6.1200 N.2   400  APR400      0.0021
      2  C2         6.2590  -34.1280   -4.8410 C.3   400  APR400      0.5254
      3  N3         6.6100  -34.8900   -3.7940 N.2   400  APR400     -0.0055
      4  C4         7.2010  -36.0990   -4.0480 C.2   400  APR400      0.3518
      5  C5         7.4450  -36.5720   -5.4210 C.2   400  APR400      0.2526
      6  C6         7.0040  -35.6720   -6.4930 C.2   400  APR400      0.4393
      7  N6         7.1990  -36.0020   -7.7850 N.pl3 400  APR400      0.2180
      8  N7         8.0350  -37.7770   -5.3300 N.2   400  APR400     -0.2095
      9  C8         8.1340  -38.0640   -4.0110 C.3   400  APR400      0.3377
     10  N9         7.6510  -37.0580   -3.2620 N.pl3 400  APR400     -0.1439
     11  C1'        7.5910  -36.8940   -1.7990 C.3   400  APR400      0.3186
     12  C2'        7.9270  -38.1230   -0.9740 C.3   400  APR400      0.2570
     13  O2'        6.8510  -39.0390   -0.7660 O.3   400  APR400     -0.2130
     14  C3'        8.3240  -37.4560    0.3360 C.3   400  APR400      0.2184
     15  O3'        7.1960  -37.3940    1.1870 O.3   400  APR400     -0.2174
     16  O4'        8.6560  -35.9650   -1.4820 O.3   400  APR400     -0.3135
     17  C4'        8.8890  -36.0970   -0.0620 C.3   400  APR400      0.1821
     18  C5'       10.3820  -35.9360    0.2230 C.3   400  APR400      0.1813
     19  O5'       11.1750  -37.0170   -0.3200 O.3   400  APR400     -0.3112
     20  PA        12.6380  -36.8860   -0.8320 P.3   400  APR400      0.2189
     21  O1A       12.8720  -36.1920   -2.1350 O.2   400  APR400     -0.5170
     22  O2A       13.2550  -38.2940   -0.8650 O.3   400  APR400     -0.4371
     23  O3A       13.3820  -35.9460    0.2770 O.3   400  APR400     -0.2703
     24  PB        13.9940  -36.3060    1.7470 P.3   400  APR400      0.2189
     25  O1B       14.2330  -34.9520    2.4140 O.2   400  APR400     -0.5170
     26  O2B       13.1710  -37.2600    2.5180 O.3   400  APR400     -0.4371
     27  O5D       15.4290  -36.9090    1.4410 O.3   400  APR400     -0.3112
     28  C5D       16.3820  -36.3370    0.5830 C.3   400  APR400      0.1813
     29  O4D       17.8820  -37.5560   -0.8480 O.3   400  APR400     -0.3237
     30  O1D       19.5350  -36.6580   -2.3070 O.3   400  APR400     -0.1869
     31  C1D       18.7850  -36.4870   -1.1030 C.3   400  APR400      0.3023
     32  O2D       20.6470  -37.5690   -0.0980 O.3   400  APR400     -0.2148
     33  C2D       19.6720  -36.5470    0.1090 C.3   400  APR400      0.2433
     34  O3D       19.2430  -38.0870    1.9400 O.3   400  APR400     -0.2175
     35  C3D       18.7400  -36.9500    1.2230 C.3   400  APR400      0.2168
     36  C4D       17.4870  -37.3770    0.4980 C.3   400  APR400      0.1807
@<TRIPOS>BOND
     1     7     6    1
     2     6     1    2
     3     6     5    1
     4     1     2    1
     5     5     8    2
     6     5     4    1
     7     8     9    1
     8     2     3    1
     9     4     3    2
    10     4    10    1
    11     9    10    1
    12    10    11    1
    13    30    31    1
    14    21    20    2
    15    11    16    1
    16    11    12    1
    17    16    17    1
    18    31    29    1
    19    31    33    1
    20    12    13    1
    21    12    14    1
    22    22    20    1
    23    29    36    1
    24    20    19    1
    25    20    23    1
    26    19    18    1
    27    32    33    1
    28    17    18    1
    29    17    14    1
    30    33    35    1
    31    23    24    1
    32    14    15    1
    33    36    28    1
    34    36    35    1
    35    28    27    1
    36    35    34    1
    37    27    24    1
    38    24    25    2
    39    24    26    1
