@<TRIPOS>MOLECULE
3iif_APR_A_1.pdb
 36 39 0 0 0
SMALL
GASTEIGER

@<TRIPOS>ATOM
      1  N1        51.7560  -15.6420   26.2790 N.2   400  APR400      0.0021
      2  C2        50.9690  -15.9870   25.2600 C.3   400  APR400      0.5254
      3  N3        50.1410  -17.0530   25.2830 N.2   400  APR400     -0.0055
      4  C4        50.0640  -17.8310   26.4030 C.2   400  APR400      0.3518
      5  C5        50.8670  -17.5250   27.5740 C.2   400  APR400      0.2526
      6  C6        51.7490  -16.3540   27.4420 C.2   400  APR400      0.4393
      7  N6        52.5250  -16.0150   28.4720 N.pl3 400  APR400      0.2180
      8  N7        50.6020  -18.4590   28.5290 N.2   400  APR400     -0.2095
      9  C8        49.6880  -19.2800   27.9900 C.3   400  APR400      0.3377
     10  N9        49.3680  -18.8900   26.7380 N.pl3 400  APR400     -0.1439
     11  C1'       48.4080  -19.5040   25.8140 C.3   400  APR400      0.3186
     12  C2'       47.7870  -20.8130   26.2530 C.3   400  APR400      0.2570
     13  O2'       48.6660  -21.9170   26.0950 O.3   400  APR400     -0.2130
     14  C3'       46.5900  -20.8540   25.3340 C.3   400  APR400      0.2184
     15  O3'       46.9970  -21.4720   24.1120 O.3   400  APR400     -0.2174
     16  O4'       47.2910  -18.6360   25.7020 O.3   400  APR400     -0.3135
     17  C4'       46.2120  -19.3690   25.1180 C.3   400  APR400      0.1821
     18  C5'       44.8670  -18.9000   25.6900 C.3   400  APR400      0.1813
     19  O5'       44.6390  -19.4620   26.9780 O.3   400  APR400     -0.3112
     20  PA        43.8180  -18.6790   28.1280 P.3   400  APR400      0.2189
     21  O1A       44.4590  -17.3650   28.4380 O.2   400  APR400     -0.5170
     22  O2A       43.5970  -19.6000   29.2940 O.3   400  APR400     -0.4371
     23  O3A       42.4730  -18.2840   27.3710 O.3   400  APR400     -0.2703
     24  PB        41.1070  -19.0610   27.1000 P.3   400  APR400      0.2189
     25  O1B       40.4260  -18.2790   26.0380 O.2   400  APR400     -0.5170
     26  O2B       41.3910  -20.5240   26.8620 O.3   400  APR400     -0.4371
     27  O5D       40.2490  -18.8980   28.4490 O.3   400  APR400     -0.3112
     28  C5D       40.5900  -18.1350   29.6040 C.3   400  APR400      0.1813
     29  O4D       39.6550  -16.7890   31.4330 O.3   400  APR400     -0.3237
     30  O1D       39.3060  -17.1920   33.5970 O.3   400  APR400     -0.1869
     31  C1D       38.6310  -16.8980   32.3880 C.3   400  APR400      0.3023
     32  O2D       36.4320  -17.9110   32.0630 O.3   400  APR400     -0.2148
     33  C2D       37.8230  -18.1360   32.0590 C.3   400  APR400      0.2433
     34  O3D       38.6900  -19.8790   30.7310 O.3   400  APR400     -0.2175
     35  C3D       38.2590  -18.5310   30.6660 C.3   400  APR400      0.2168
     36  C4D       39.3390  -17.5510   30.2550 C.3   400  APR400      0.1807
@<TRIPOS>BOND
     1    15    14    1
     2    17    14    1
     3    17    18    1
     4    17    16    1
     5     2     3    1
     6     2     1    1
     7     3     4    2
     8    14    12    1
     9    18    19    1
    10    16    11    1
    11    11    12    1
    12    11    10    1
    13    25    24    2
    14    13    12    1
    15     1     6    2
    16     4    10    1
    17     4     5    1
    18    10     9    1
    19    26    24    1
    20    19    20    1
    21    24    23    1
    22    24    27    1
    23    23    20    1
    24     6     5    1
    25     6     7    1
    26     5     8    2
    27     9     8    1
    28    20    21    2
    29    20    22    1
    30    27    28    1
    31    28    36    1
    32    36    35    1
    33    36    29    1
    34    35    34    1
    35    35    33    1
    36    29    31    1
    37    33    32    1
    38    33    31    1
    39    31    30    1
