@<TRIPOS>MOLECULE
3iij_ADP_A_1.pdb
 27 29 0 0 0
SMALL
GASTEIGER

@<TRIPOS>ATOM
      1  PB        37.0420  -53.8660   -8.0640 P.3   173  ADP173      0.5373
      2  O1B       37.7270  -53.8680   -6.7050 O.3   173  ADP173     -0.1143
      3  O2B       37.6110  -52.8410   -9.0000 O.2   173  ADP173     -0.2221
      4  O3B       35.5370  -53.7870   -7.9710 O.3   173  ADP173     -0.1143
      5  PA        36.5050  -56.3270   -9.5720 P.3   173  ADP173      0.2231
      6  O1A       35.4560  -56.9780   -8.7200 O.3   173  ADP173     -0.4370
      7  O2A       36.1060  -55.5960  -10.8260 O.2   173  ADP173     -0.5169
      8  O3A       37.4250  -55.3180   -8.6580 O.3   173  ADP173     -0.2261
      9  O5'       37.5720  -57.4840   -9.9140 O.3   173  ADP173     -0.3111
     10  C5'       38.6790  -57.2120  -10.7850 C.3   173  ADP173      0.1813
     11  C4'       39.0700  -58.4820  -11.5440 C.3   173  ADP173      0.1821
     12  O4'       39.6370  -59.4290  -10.6430 O.3   173  ADP173     -0.3135
     13  C3'       37.9030  -59.2000  -12.2130 C.3   173  ADP173      0.2184
     14  O3'       38.4150  -59.7910  -13.4170 O.3   173  ADP173     -0.2174
     15  C2'       37.5220  -60.3000  -11.2480 C.3   173  ADP173      0.2570
     16  O2'       36.9460  -61.4430  -11.8990 O.3   173  ADP173     -0.2130
     17  C1'       38.8600  -60.6340  -10.6170 C.3   173  ADP173      0.3186
     18  N9        38.7830  -61.0420   -9.2070 N.pl3 173  ADP173     -0.1439
     19  C8        38.1610  -60.4040   -8.1930 C.3   173  ADP173      0.3377
     20  N7        38.3400  -61.0660   -7.0290 N.2   173  ADP173     -0.2095
     21  C5        39.1140  -62.1410   -7.3010 C.2   173  ADP173      0.2526
     22  C6        39.6920  -63.2570   -6.5360 C.2   173  ADP173      0.4393
     23  N6        39.4890  -63.3620   -5.2000 N.pl3 173  ADP173      0.2180
     24  N1        40.4360  -64.1650   -7.2270 N.2   173  ADP173      0.0021
     25  C2        40.6620  -64.0690   -8.5490 C.3   173  ADP173      0.5254
     26  N3        40.1680  -63.0780   -9.3090 N.2   173  ADP173     -0.0055
     27  C4        39.4030  -62.1120   -8.7360 C.2   173  ADP173      0.3518
@<TRIPOS>BOND
     1    14    13    1
     2    13    11    1
     3    13    15    1
     4    16    15    1
     5    11    10    1
     6    11    12    1
     7    15    17    1
     8     7     5    2
     9    10     9    1
    10    12    17    1
    11    17    18    1
    12     9     5    1
    13     5     6    1
    14     5     8    1
    15    26    27    2
    16    26    25    1
    17    18    27    1
    18    18    19    1
    19     3     1    2
    20    27    21    1
    21     8     1    1
    22    25    24    1
    23    19    20    1
    24     1     4    1
    25     1     2    1
    26    21    20    2
    27    21    22    1
    28    24    22    2
    29    22    23    1
