@<TRIPOS>MOLECULE
3iil_ADP_A_1.pdb
 27 29 0 0 0
SMALL
GASTEIGER

@<TRIPOS>ATOM
      1  PB        33.9960   -5.2630   -7.6340 P.3   174  ADP174      0.5373
      2  O1B       33.6820   -5.8170   -6.2560 O.3   174  ADP174     -0.1143
      3  O2B       34.5450   -6.2840   -8.5780 O.2   174  ADP174     -0.2221
      4  O3B       34.8160   -3.9860   -7.6470 O.3   174  ADP174     -0.1143
      5  PA        32.0790   -3.5300   -9.0220 P.3   174  ADP174      0.2231
      6  O1A       31.9620   -2.3350   -8.1080 O.3   174  ADP174     -0.4370
      7  O2A       32.9010   -3.4660  -10.2740 O.2   174  ADP174     -0.5169
      8  O3A       32.5370   -4.8630   -8.1750 O.3   174  ADP174     -0.2261
      9  O5'       30.5550   -3.9490   -9.3250 O.3   174  ADP174     -0.3111
     10  C5'       30.2350   -5.0170  -10.2340 C.3   174  ADP174      0.1813
     11  C4'       28.9410   -4.6940  -10.9910 C.3   174  ADP174      0.1821
     12  O4'       27.8330   -4.6790  -10.0950 O.3   174  ADP174     -0.3135
     13  C3'       28.9150   -3.3220  -11.6590 C.3   174  ADP174      0.2184
     14  O3'       28.1540   -3.4630  -12.8610 O.3   174  ADP174     -0.2174
     15  C2'       28.1260   -2.4360  -10.7110 C.3   174  ADP174      0.2570
     16  O2'       27.4290   -1.3720  -11.3690 O.3   174  ADP174     -0.2130
     17  C1'       27.1470   -3.4220  -10.1100 C.3   174  ADP174      0.3186
     18  N9        26.8170   -3.1840   -8.7030 N.pl3 174  ADP174     -0.1439
     19  C8        27.6980   -2.9920   -7.7080 C.3   174  ADP174      0.3377
     20  N7        27.0630   -2.8360   -6.5330 N.2   174  ADP174     -0.2095
     21  C5        25.7480   -2.9490   -6.7690 C.2   174  ADP174      0.2526
     22  C6        24.5150   -2.8970   -5.9630 C.2   174  ADP174      0.4393
     23  N6        24.5640   -2.7020   -4.6240 N.pl3 174  ADP174      0.2180
     24  N1        23.3280   -3.0500   -6.6180 N.2   174  ADP174      0.0021
     25  C2        23.2580   -3.2580   -7.9480 C.3   174  ADP174      0.5254
     26  N3        24.3430   -3.3240   -8.7310 N.2   174  ADP174     -0.0055
     27  C4        25.5860   -3.1760   -8.2070 C.2   174  ADP174      0.3518
@<TRIPOS>BOND
     1    14    13    1
     2    13    11    1
     3    13    15    1
     4    16    15    1
     5    11    10    1
     6    11    12    1
     7    15    17    1
     8     7     5    2
     9    10     9    1
    10    17    12    1
    11    17    18    1
    12     9     5    1
    13     5     8    1
    14     5     6    1
    15    26    27    2
    16    26    25    1
    17    18    27    1
    18    18    19    1
    19     3     1    2
    20    27    21    1
    21     8     1    1
    22    25    24    1
    23    19    20    1
    24     4     1    1
    25     1     2    1
    26    21    20    2
    27    21    22    1
    28    24    22    2
    29    22    23    1
