@<TRIPOS>MOLECULE
3iim_DAT_A_1.pdb
 26 28 0 0 0
SMALL
GASTEIGER

@<TRIPOS>ATOM
      1  PB       -21.4430  -26.7960   -7.6110 P.3   175  DAT175      0.5373
      2  O1B      -22.6210  -26.7660   -8.5060 O.2   175  DAT175     -0.2221
      3  O2B      -20.7930  -28.2390   -7.4530 O.3   175  DAT175     -0.1143
      4  O3B      -21.8560  -26.2740   -6.1830 O.3   175  DAT175     -0.1143
      5  PA       -18.9150  -25.9950   -8.9320 P.3   175  DAT175      0.2231
      6  O1A      -17.8370  -26.6710   -8.1630 O.3   175  DAT175     -0.4370
      7  O2A      -19.3350  -26.8140  -10.2340 O.2   175  DAT175     -0.5169
      8  O3A      -20.3310  -25.7280   -8.0890 O.3   175  DAT175     -0.2261
      9  O5'      -18.4980  -24.4850   -9.3170 O.3   175  DAT175     -0.3111
     10  C5'      -19.3460  -23.6650  -10.1450 C.3   175  DAT175      0.1813
     11  C4'      -18.4790  -22.7030  -10.9930 C.3   175  DAT175      0.1795
     12  O4'      -17.8290  -21.7440  -10.1210 O.3   175  DAT175     -0.3155
     13  C3'      -17.3520  -23.4280  -11.7350 C.3   175  DAT175      0.1883
     14  O3'      -17.0730  -22.7220  -12.9460 O.3   175  DAT175     -0.2202
     15  C2'      -16.1610  -23.3050  -10.7970 C.3   175  DAT175      0.1151
     16  C1'      -16.3810  -21.9270  -10.1750 C.3   175  DAT175      0.2873
     17  N9       -16.0500  -21.7650   -8.7430 N.pl3 175  DAT175     -0.1460
     18  C8       -16.2950  -22.6350   -7.7540 C.3   175  DAT175      0.3377
     19  N7       -15.8620  -22.1190   -6.5980 N.2   175  DAT175     -0.2095
     20  C5       -15.3640  -20.9100   -6.8500 C.2   175  DAT175      0.2526
     21  C6       -14.7910  -19.9150   -6.0650 C.2   175  DAT175      0.4393
     22  N6       -14.6640  -20.0760   -4.7410 N.pl3 175  DAT175      0.2180
     23  N1       -14.3600  -18.7810   -6.6700 N.2   175  DAT175      0.0021
     24  C2       -14.4840  -18.5930   -7.9840 C.3   175  DAT175      0.5254
     25  N3       -15.0360  -19.5250   -8.7480 N.2   175  DAT175     -0.0055
     26  C4       -15.4780  -20.6850   -8.2150 C.2   175  DAT175      0.3518
@<TRIPOS>BOND
     1    14    13    1
     2    13    11    1
     3    13    15    1
     4    11    10    1
     5    11    12    1
     6    15    16    1
     7     7     5    2
     8    16    12    1
     9    16    17    1
    10    10     9    1
    11     9     5    1
    12     5     6    1
    13     5     8    1
    14    25    26    2
    15    25    24    1
    16    17    26    1
    17    17    18    1
    18     2     1    2
    19    26    20    1
    20     8     1    1
    21    24    23    1
    22    18    19    1
    23     1     3    1
    24     1     4    1
    25    20    19    2
    26    20    21    1
    27    23    21    2
    28    21    22    1
