@<TRIPOS>MOLECULE
3iiq_TRT_A_1.pdb
 20 20 0 0 0
SMALL
GASTEIGER

@<TRIPOS>ATOM
      1  C20       11.7370   18.1070  -12.0140 C.3   325  TRT325      0.0346
      2  C19       11.8150   18.5130  -13.4890 C.3   325  TRT325      0.1424
      3  O18       11.6040   19.9500  -13.6150 O.3   325  TRT325     -0.3498
      4  C17       12.3580   20.5600  -14.7110 C.3   325  TRT325      0.1893
      5  C16       11.4700   21.3970  -15.6540 C.3   325  TRT325      0.2373
      6  O15       10.2440   20.6250  -15.8840 O.3   325  TRT325     -0.4727
      7  C12        9.7140   20.6390  -17.1500 C.ar  325  TRT325      0.1387
      8  C13        8.3910   21.0610  -17.3340 C.ar  325  TRT325      0.0366
      9  C14        7.8240   21.0690  -18.6070 C.ar  325  TRT325     -0.0012
     10  C11       10.4640   20.2140  -18.2540 C.ar  325  TRT325      0.0366
     11  C10        9.8940   20.2250  -19.5300 C.ar  325  TRT325     -0.0012
     12  C9         8.5580   20.6460  -19.7300 C.ar  325  TRT325     -0.0226
     13  C6         7.9470   20.6790  -21.1880 C.3   325  TRT325      0.0189
     14  C8         6.4030   20.6620  -21.2170 C.3   325  TRT325      0.0044
     15  C7         8.4260   19.4070  -21.9160 C.3   325  TRT325      0.0044
     16  C5         8.5540   21.9320  -21.9270 C.3   325  TRT325      0.0040
     17  C1         8.2090   23.4340  -21.5440 C.3   325  TRT325      0.0003
     18  C2         7.4660   23.6600  -20.1880 C.3   325  TRT325      0.0000
     19  C4         9.5450   24.2090  -21.4870 C.3   325  TRT325      0.0000
     20  C3         7.3440   24.0020  -22.6900 C.3   325  TRT325      0.0000
@<TRIPOS>BOND
     1    20    17    1
     2    16    17    1
     3    16    13    1
     4    15    13    1
     5    17    19    1
     6    17    18    1
     7    14    13    1
     8    13    12    1
     9    12    11   ar
    10    12     9   ar
    11    11    10   ar
    12     9     8   ar
    13    10     7   ar
    14     8     7   ar
    15     7     6    1
    16     6     5    1
    17     5     4    1
    18     4     3    1
    19     3     2    1
    20     2     1    1
