@<TRIPOS>MOLECULE
3iiq_III_C_1.pdb
 46 48 0 0 0
SMALL
GASTEIGER

@<TRIPOS>ATOM
      1  N          5.0960   14.0600   -2.7490 N.3     1  DSE1       -0.2064
      2  CA         3.7370   14.2560   -3.2790 C.3     1  DSE1        0.1835
      3  C          3.1690   12.8890   -3.7150 C.2     1  DSE1        0.2599
      4  O          3.0410   11.9750   -2.8840 O.2     1  DSE1       -0.2717
      5  CB         2.8400   14.7990   -2.2030 C.3     1  DSE1        0.2087
      6  CN         5.3820   13.0590   -1.6810 C.3     1  DSE1        0.1081
      7  OG         3.2610   16.1550   -2.0120 O.3     1  DSE1       -0.2183
      8  N          2.8360   12.7290   -5.0130 N.am    2  DAL2       -0.2018
      9  CA         2.3020   11.4360   -5.3900 C.3     2  DAL2        0.1426
     10  CB         2.4260   11.2360   -6.9280 C.3     2  DAL2        0.0277
     11  C          0.9120   11.2880   -4.7290 C.3     2  DAL2        0.2460
     12  O          0.1600   10.2830   -5.2760 O.3     2  DAL2       -0.2017
     13  N          0.1340   12.4990   -4.7230 N.3     3  GLY3       -0.1779
     14  CA        -1.2390   12.3410   -4.2300 C.3     3  GLY3        0.1762
     15  C         -2.1320   12.1990   -5.5270 C.2     3  GLY3        0.2445
     16  O         -1.6680   12.3790   -6.6470 O.2     3  GLY3       -0.2733
     17  N         -3.4300   11.8750   -5.4110 N.am    4  5PG4       -0.2611
     18  CA        -4.2590   11.7370   -6.6230 C.3     4  5PG4        0.2053
     19  C         -4.9150   13.0730   -6.9980 C.1     4  5PG4        0.1495
     20  O         -5.0790   13.9680   -6.1610 O.2     4  5PG4       -0.2250
     21  CN        -3.9740   11.7500   -4.0210 C.3     4  5PG4        0.1162
     22  CB        -5.3570   10.7510   -6.3510 C.ar    4  5PG4        0.0118
     23  CC1       -5.1230    9.3840   -6.2260 C.ar    4  5PG4        0.0017
     24  CC2       -6.6730   11.2540   -6.2500 C.ar    4  5PG4        0.0017
     25  CD1       -6.2060    8.5190   -5.9700 C.ar    4  5PG4        0.0418
     26  CD2       -7.7190   10.4000   -6.0200 C.ar    4  5PG4        0.0418
     27  CE        -7.4850    9.0570   -5.8800 C.ar    4  5PG4        0.1957
     28  OH        -8.5930    8.2190   -5.6850 O.3     4  5PG4       -0.2866
     29  N         -5.2990   13.2170   -8.2860 N.2     5  ALA5       -0.1896
     30  CA        -5.9720   14.4320   -8.7350 C.3     5  ALA5        0.2191
     31  C         -7.1520   13.7560   -9.5070 C.1     5  ALA5        0.1496
     32  O         -6.9350   12.9350  -10.4350 O.2     5  ALA5       -0.2251
     33  CB        -5.0200   15.3820   -9.5500 C.3     5  ALA5        0.0455
     34  N         -8.3720   14.0580   -9.0220 N.2     6  TYR6       -0.1947
     35  CA        -9.6480   13.5170   -9.5050 C.3     6  TYR6        0.2211
     36  C        -10.0580   14.2450  -10.7870 C.2     6  TYR6        0.3878
     37  O        -10.6020   13.5670  -11.6780 O.co2   6  TYR6       -0.2435
     38  CB       -10.7740   13.5910   -8.3960 C.3     6  TYR6        0.0632
     39  CG       -10.4920   12.6090   -7.2050 C.ar    6  TYR6       -0.0194
     40  CD1      -11.4230   12.3790   -6.2100 C.ar    6  TYR6       -0.0009
     41  CD2       -9.2880   11.9150   -7.0670 C.ar    6  TYR6       -0.0009
     42  CE1      -11.1990   11.4660   -5.1420 C.ar    6  TYR6        0.0417
     43  CE2       -9.0150   10.9790   -6.0110 C.ar    6  TYR6        0.0417
     44  CZ       -10.0000   10.7590   -5.0170 C.ar    6  TYR6        0.1957
     45  OH        -9.7510    9.9350   -3.9420 O.3     6  TYR6       -0.2866
     46  OXT       -9.8170   15.4680  -10.8390 O.co2   6  TYR6       -0.2435
@<TRIPOS>BOND
     1    37    36   ar
     2    46    36   ar
     3    36    35    1
     4    32    31    2
     5    33    30    1
     6    31    34    2
     7    31    30    1
     8    35    34    1
     9    35    38    1
    10    30    29    1
    11    38    39    1
    12    29    19    2
    13    39    41   ar
    14    39    40   ar
    15    41    43   ar
    16    19    18    1
    17    19    20    2
    18    10     9    1
    19    16    15    2
    20    18    22    1
    21    18    17    1
    22    22    24   ar
    23    22    23   ar
    24    24    26   ar
    25    23    25   ar
    26    40    42   ar
    27    26    43    1
    28    26    27   ar
    29    43    44   ar
    30    25    27   ar
    31    27    28    1
    32    15    17   am
    33    15    14    1
    34    17    21    1
    35     9     8    1
    36     9    11    1
    37    12    11    1
    38    42    44   ar
    39    44    45    1
    40     8     3   am
    41    11    13    1
    42    13    14    1
    43     3     2    1
    44     3     4    2
    45     2     1    1
    46     2     5    1
    47     1     6    1
    48     5     7    1
