@<TRIPOS>MOLECULE
3iiq_JZA_A_1.pdb
 14 15 0 0 0
SMALL
GASTEIGER

@<TRIPOS>ATOM
      1  C11      -12.1800   10.1520   -8.8750 C.3   324  JZA324      0.1271
      2  C13      -11.7930    8.6990   -8.4610 C.3   324  JZA324      0.1637
      3  O14      -12.1460    7.7070   -9.4860 O.3   324  JZA324     -0.3501
      4  C12      -13.5540    7.7840   -9.9460 C.3   324  JZA324      0.1637
      5  C10      -14.1460    9.2160   -9.9490 C.3   324  JZA324      0.1271
      6  N9       -13.0650   10.2300  -10.0730 N.am  324  JZA324     -0.2577
      7  C7       -13.6440   11.6090  -10.3150 C.2   324  JZA324      0.3258
      8  O8       -14.1680   12.2920   -9.4060 O.2   324  JZA324     -0.2507
      9  N6       -13.5520   12.0860  -11.7300 N.am  324  JZA324     -0.1460
     10  C5       -14.0130   13.5180  -11.8420 C.3   324  JZA324      0.1473
     11  C4       -15.1960   13.2650  -12.8090 C.3   324  JZA324      0.1961
     12  S1       -14.6880   11.5200  -12.8180 S.O2  324  JZA324      0.0620
     13  O2       -14.0940   11.0580  -14.1330 O.2   324  JZA324     -0.1541
     14  O3       -15.7470   10.6060  -12.2540 O.2   324  JZA324     -0.1541
@<TRIPOS>BOND
     1    13    12    2
     2    12    11    1
     3    12    14    2
     4    12     9    1
     5    11    10    1
     6    10     9    1
     7     9     7   am
     8     7     6   am
     9     7     8    2
    10     6     5    1
    11     6     1    1
    12     5     4    1
    13     4     3    1
    14     3     2    1
    15     1     2    1
