@<TRIPOS>MOLECULE
3iis_PID_M_1.pdb
 46 49 0 0 0
SMALL
GASTEIGER

@<TRIPOS>ATOM
      1  C1        -0.3480   17.6330  -13.6740 C.3   611  PID611      0.1216
      2  C2        -0.5130   18.3920  -14.9930 C.3   611  PID611      0.0627
      3  C3         0.8040   18.9440  -15.4730 C.3   611  PID611      0.1545
      4  C4         1.3930   19.8510  -14.4060 C.3   611  PID611      0.0356
      5  C5         1.6710   19.2320  -13.0450 C.3   611  PID611      0.0311
      6  C6         0.7600   18.0460  -12.6700 C.3   611  PID611      0.1332
      7  C7         0.6240   17.7940  -11.1670 C.2   611  PID611     -0.0012
      8  C8         0.7630   16.5360  -10.6950 C.2   611  PID611     -0.0131
      9  C9         0.7450   16.2310   -9.2410 C.3   611  PID611      0.1457
     10  C10        0.5590   17.0860   -8.0660 C.2   611  PID611      0.3290
     11  C11        1.1200   14.9610   -8.7980 C.2   611  PID611      0.0224
     12  C12        1.1230   15.0940   -7.4090 C.2   611  PID611      0.1266
     13  C13        1.4090   13.9590   -6.5320 C.3   611  PID611      0.0863
     14  C14        1.4740   13.8860   -5.0530 C.2   611  PID611     -0.0364
     15  C15        1.9820   12.7360   -4.5240 C.2   611  PID611     -0.0081
     16  C16        2.1150   12.4390   -3.0870 C.2   611  PID611     -0.0006
     17  C17        2.6510   11.3010   -2.6630 C.2   611  PID611     -0.0000
     18  C18        2.6660   10.9810   -1.2380 C.2   611  PID611     -0.0000
     19  C19        3.0670    9.8070   -0.6730 C.2   611  PID611     -0.0003
     20  C20        2.8400    9.6190    0.7630 C.2   611  PID611     -0.0037
     21  C21        2.9360    8.4460    1.4640 C.2   611  PID611     -0.0142
     22  C22        2.5380    8.5000    2.8840 C.2   611  PID611      0.0365
     23  C23        2.3660    7.4670    3.6490 C.1   611  PID611     -0.1078
     24  C24        2.1220    6.4520    4.4390 C.2   611  PID611      0.0168
     25  C25        3.1560    5.9370    5.4790 C.3   611  PID611      0.0275
     26  C26        3.0850    4.4100    5.5810 C.3   611  PID611      0.0481
     27  C27        1.6540    3.8620    5.7730 C.3   611  PID611      0.1720
     28  C28        0.7650    4.3130    4.6080 C.3   611  PID611      0.0785
     29  C29        0.7200    5.8260    4.4440 C.3   611  PID611      0.1516
     30  C30        0.8040    1.6730    6.3900 C.2   611  PID611      0.3174
     31  C31        0.9730    0.2090    6.2110 C.3   611  PID611      0.1212
     32  CM1       -1.6970   17.1070  -13.1590 C.3   611  PID611      0.0325
     33  CM2        1.5940   20.3370  -11.9890 C.3   611  PID611      0.0028
     34  CM3        3.1090   18.7000  -13.0900 C.3   611  PID611      0.0028
     35  CM4        1.0880   15.0320   -4.1690 C.3   611  PID611      0.0268
     36  CM5        3.3720    7.1250    0.8050 C.3   611  PID611      0.0317
     37  CM6        4.5570    6.3340    5.0320 C.3   611  PID611      0.0049
     38  CM7        2.8850    6.5440    6.8910 C.3   611  PID611      0.0049
     39  CM8       -0.1030    6.2210    3.2070 C.3   611  PID611      0.0379
     40  O1         0.8580   16.8690  -13.4710 O.3   611  PID611     -0.3543
     41  O2         0.5700   19.7760  -16.6230 O.3   611  PID611     -0.2231
     42  O3         0.2160   18.3040   -8.0260 O.2   611  PID611     -0.2490
     43  O4         0.7500   16.3210   -6.9420 O.3   611  PID611     -0.4281
     44  O5        -0.0390    6.2850    5.5700 O.3   611  PID611     -0.2208
     45  O6         1.7720    2.4320    5.7100 O.3   611  PID611     -0.4522
     46  O7        -0.0450    2.2490    6.9910 O.2   611  PID611     -0.2501
@<TRIPOS>BOND
     1    41     3    1
     2     3     2    1
     3     3     4    1
     4     2     1    1
     5     4     5    1
     6     1    40    1
     7     1    32    1
     8     1     6    1
     9    40     6    1
    10    34     5    1
    11     5     6    1
    12     5    33    1
    13     6     7    1
    14     7     8    2
    15     8     9    1
    16     9    11    1
    17     9    10    1
    18    11    12    2
    19    10    42    2
    20    10    43    1
    21    12    43    1
    22    12    13    1
    23    13    14    1
    24    14    15    2
    25    14    35    1
    26    15    16    1
    27    16    17    2
    28    17    18    1
    29    18    19    2
    30    19    20    1
    31    20    21    2
    32    36    21    1
    33    21    22    1
    34    22    23    2
    35    39    29    1
    36    23    24    2
    37    24    29    1
    38    24    25    1
    39    29    28    1
    40    29    44    1
    41    28    27    1
    42    37    25    1
    43    25    26    1
    44    25    38    1
    45    26    27    1
    46    45    27    1
    47    45    30    1
    48    31    30    1
    49    30    46    2
