@<TRIPOS>MOLECULE
3iit_D14_A_1.pdb
 32 36 0 0 0
SMALL
GASTEIGER

@<TRIPOS>ATOM
      1  C1        10.4520    8.4490   25.1530 C.ar  700  D14700     -0.0007
      2 CL1        14.0180    7.5680   26.6040 Cl    700  D14700     -0.0823
      3  C2         9.5760    7.9470   26.1650 C.ar  700  D14700     -0.0181
      4  C3         8.2060    8.0840   25.9700 C.3   700  D14700      0.0761
      5  C4         7.7600    8.7060   24.7800 C.2   700  D14700      0.1132
      6  N5         8.5920    9.1720   23.8040 N.2   700  D14700     -0.2650
      7  C6         9.9130    9.0430   24.0080 C.3   700  D14700      0.1514
      8  C7        10.0790    7.3450   27.3280 C.ar  700  D14700     -0.0033
      9  C8        11.4720    7.2210   27.5020 C.ar  700  D14700      0.0111
     10  C9        12.3150    7.7180   26.4760 C.ar  700  D14700      0.0574
     11  C10       11.8280    8.3190   25.3060 C.ar  700  D14700      0.0088
     12  C12        6.2860    8.8310   24.5350 C.2   700  D14700      0.2783
     13  N13        5.9570    8.4810   23.2990 N.am  700  D14700     -0.2007
     14  C14        4.5950    8.5430   22.7980 C.3   700  D14700      0.1155
     15  O15        5.4500    9.1670   25.3670 O.2   700  D14700     -0.2671
     16  C16        4.0160    7.1080   22.8100 C.3   700  D14700      0.1156
     17  C17        2.5940    7.1350   22.2150 C.3   700  D14700      0.0234
     18  C18        2.6240    7.6820   20.7620 C.3   700  D14700      0.0019
     19  C19        3.1720    9.1330   20.7340 C.3   700  D14700      0.0019
     20  C20        4.5650    9.2130   21.3970 C.3   700  D14700      0.0234
     21  N26        4.9090    6.2170   22.0710 N.am  700  D14700     -0.1990
     22  C27        4.9270    4.8960   22.1870 C.2   700  D14700      0.3005
     23  C28        5.8190    4.2300   21.2040 C.2   700  D14700      0.2114
     24  O29        4.2640    4.2830   23.0260 O.2   700  D14700     -0.2650
     25  N30        6.6590    4.8480   20.3500 N.2   700  D14700     -0.3973
     26  C31        7.4150    3.8850   19.6790 C.2   700  D14700      0.1150
     27  C32        7.1700    2.6100   19.9970 C.3   700  D14700      0.1196
     28  S33        5.9520    2.4440   21.1930 S.3   700  D14700     -0.0704
     29  C34        8.0040    1.6630   19.2310 C.3   700  D14700      0.0906
     30  N35        8.4870    2.5210   18.1260 N.3   700  D14700     -0.2647
     31  C36        8.4650    3.9020   18.6340 C.3   700  D14700      0.1284
     32  C37        9.7600    2.0640   17.6110 C.3   700  D14700      0.0900
@<TRIPOS>BOND
     1    32    30    1
     2    30    31    1
     3    30    29    1
     4    31    26    1
     5    29    27    1
     6    26    27    1
     7    26    25    2
     8    27    28    1
     9    25    23    2
    10    19    18    1
    11    19    20    1
    12    18    17    1
    13    28    23    1
    14    23    22    1
    15    20    14    1
    16    21    22   am
    17    21    16    1
    18    22    24    2
    19    17    16    1
    20    14    16    1
    21    14    13    1
    22    13    12   am
    23     6     7    1
    24     6     5    2
    25     7     1    1
    26    12     5    1
    27    12    15    2
    28     5     4    1
    29     1    11   ar
    30     1     3   ar
    31    11    10   ar
    32     4     3    1
    33     3     8   ar
    34    10     2    1
    35    10     9   ar
    36     8     9   ar
