@<TRIPOS>MOLECULE
3iiu_PID_M_1.pdb
 46 49 0 0 0
SMALL
GASTEIGER

@<TRIPOS>ATOM
      1  C1        -0.5460  -17.7580   13.6420 C.3   611  PID611      0.1216
      2  C2        -0.6970  -18.6300   14.9000 C.3   611  PID611      0.0627
      3  C3         0.3340  -19.7590   15.1000 C.3   611  PID611      0.1545
      4  C4         1.7230  -19.4010   14.6150 C.3   611  PID611      0.0356
      5  C5         1.7860  -19.0110   13.1350 C.3   611  PID611      0.0311
      6  C6         0.6490  -18.0570   12.6850 C.3   611  PID611      0.1332
      7  C7         0.4930  -17.7860   11.1890 C.2   611  PID611     -0.0012
      8  C8         0.6560  -16.5120   10.7400 C.2   611  PID611     -0.0131
      9  C9         0.6570  -16.1790    9.2940 C.3   611  PID611      0.1457
     10  C10        0.5090  -17.0100    8.0980 C.2   611  PID611      0.3290
     11  C11        1.0610  -14.9380    8.8370 C.2   611  PID611      0.0224
     12  C12        1.0360  -15.0640    7.4410 C.2   611  PID611      0.1266
     13  C13        1.3580  -13.9370    6.5480 C.3   611  PID611      0.0863
     14  C14        1.4130  -13.9050    5.0700 C.2   611  PID611     -0.0364
     15  C15        1.9420  -12.7610    4.5380 C.2   611  PID611     -0.0081
     16  C16        2.0800  -12.4610    3.1030 C.2   611  PID611     -0.0006
     17  C17        2.6380  -11.2930    2.6880 C.2   611  PID611     -0.0000
     18  C18        2.6310  -11.0560    1.2390 C.2   611  PID611     -0.0000
     19  C19        2.9650   -9.8600    0.6960 C.2   611  PID611     -0.0003
     20  C20        2.7890   -9.6460   -0.7580 C.2   611  PID611     -0.0037
     21  C21        2.9180   -8.4920   -1.4640 C.2   611  PID611     -0.0142
     22  C22        2.5540   -8.5060   -2.9020 C.2   611  PID611      0.0365
     23  C23        2.3400   -7.4240   -3.6430 C.1   611  PID611     -0.1078
     24  C24        2.0920   -6.4480   -4.4520 C.2   611  PID611      0.0168
     25  C25        3.1230   -5.9330   -5.4700 C.3   611  PID611      0.0275
     26  C26        3.0630   -4.4000   -5.5840 C.3   611  PID611      0.0481
     27  C27        1.6270   -3.9140   -5.7730 C.3   611  PID611      0.1720
     28  C28        0.7440   -4.3270   -4.6090 C.3   611  PID611      0.0785
     29  C29        0.6900   -5.8440   -4.4660 C.3   611  PID611      0.1516
     30  C30        0.8190   -1.7440   -6.3870 C.2   611  PID611      0.3174
     31  C31        1.0510   -0.2630   -6.2900 C.3   611  PID611      0.1212
     32  CM1       -1.8940  -17.2870   13.0730 C.3   611  PID611      0.0325
     33  CM2        1.9320  -20.1970   12.1910 C.3   611  PID611      0.0028
     34  CM3        3.0940  -18.2280   13.0430 C.3   611  PID611      0.0028
     35  CM4        0.9980  -15.0730    4.2100 C.3   611  PID611      0.0268
     36  CM5        3.3880   -7.1690   -0.8390 C.3   611  PID611      0.0317
     37  CM6        4.5370   -6.3670   -5.0490 C.3   611  PID611      0.0049
     38  CM7        2.8530   -6.5820   -6.8500 C.3   611  PID611      0.0049
     39  CM8       -0.1100   -6.1710   -3.1870 C.3   611  PID611      0.0379
     40  O1         0.5620  -16.8780   13.5150 O.3   611  PID611     -0.3543
     41  O2        -0.0730  -20.9760   14.4650 O.3   611  PID611     -0.2231
     42  O3         0.1300  -18.2080    8.0950 O.2   611  PID611     -0.2490
     43  O4         0.6830  -16.2890    6.9370 O.3   611  PID611     -0.4281
     44  O5        -0.0890   -6.3190   -5.6010 O.3   611  PID611     -0.2208
     45  O6         1.7870   -2.4840   -5.7210 O.3   611  PID611     -0.4522
     46  O7        -0.0750   -2.2920   -6.9790 O.2   611  PID611     -0.2501
@<TRIPOS>BOND
     1    46    30    2
     2    38    25    1
     3    30    31    1
     4    30    45    1
     5    27    45    1
     6    27    26    1
     7    27    28    1
     8    44    29    1
     9    26    25    1
    10    25    37    1
    11    25    24    1
    12    28    29    1
    13    29    24    1
    14    29    39    1
    15    24    23    2
    16    23    22    2
    17    22    21    1
    18    21    36    1
    19    21    20    2
    20    20    19    1
    21    19    18    2
    22    18    17    1
    23    17    16    2
    24    16    15    1
    25    35    14    1
    26    15    14    2
    27    14    13    1
    28    13    12    1
    29    43    12    1
    30    43    10    1
    31    12    11    2
    32    42    10    2
    33    10     9    1
    34    11     9    1
    35     9     8    1
    36     8     7    2
    37     7     6    1
    38    33     5    1
    39     6     5    1
    40     6    40    1
    41     6     1    1
    42    34     5    1
    43    32     1    1
    44     5     4    1
    45    40     1    1
    46     1     2    1
    47    41     3    1
    48     4     3    1
    49     2     3    1
