@<TRIPOS>MOLECULE
3iiw_III_B_1.pdb
 39 38 0 0 0
SMALL
GASTEIGER

@<TRIPOS>ATOM
      1  N        -21.1360  -36.2940   25.7300 N.3    25  ALA25      -0.1231
      2  CA       -19.8020  -35.6730   25.9670 C.3    25  ALA25       0.1694
      3  C        -19.9870  -34.2530   26.4810 C.2    25  ALA25       0.2592
      4  O        -20.7850  -33.4970   25.9460 O.2    25  ALA25      -0.2718
      5  CB       -18.9960  -35.6660   24.6810 C.3    25  ALA25       0.0304
      6  N        -19.2870  -33.9060   27.5510 N.am   26  ARG26      -0.1966
      7  CA       -19.3900  -32.5720   28.1270 C.3    26  ARG26       0.1729
      8  C        -18.2000  -31.7130   27.6790 C.2    26  ARG26       0.2616
      9  O        -17.1080  -32.2300   27.4930 O.2    26  ARG26      -0.2715
     10  CB       -19.4000  -32.6750   29.6470 C.3    26  ARG26       0.0348
     11  CG       -19.7460  -31.3610   30.3540 C.3    26  ARG26       0.0492
     12  CD       -21.0700  -30.7500   29.8850 C.3    26  ARG26       0.2205
     13  NE       -20.9430  -29.3080   29.6630 N.pl3  26  ARG26      -0.0865
     14  CZ       -21.0370  -28.7150   28.4760 C.cat  26  ARG26       0.5346
     15  NH1      -21.2970  -29.4210   27.3800 N.pl3  26  ARG26       0.1354
     16  NH2      -20.8870  -27.3980   28.3920 N.pl3  26  ARG26       0.1354
     17  N        -18.4120  -30.4070   27.5360 N.am   27  LYS27      -0.1963
     18  CA       -17.3030  -29.5000   27.2430 C.3    27  LYS27       0.1728
     19  CB       -17.8300  -28.3020   26.4520 C.3    27  LYS27       0.0310
     20  CG       -16.6770  -27.4400   25.9200 C.3    27  LYS27       0.0001
     21  CD       -17.2490  -26.1840   25.2570 C.3    27  LYS27      -0.0222
     22  CE       -16.1530  -25.3410   24.5820 C.3    27  LYS27      -0.0733
     23  NZ       -16.6070  -24.1390   23.8380 N.4    27  LYS27       0.3857
     24  C        -16.4880  -29.1270   28.4550 C.2    27  LYS27       0.2617
     25  O        -15.3030  -28.8450   28.3330 O.2    27  LYS27      -0.2715
     26  CM1      -15.4110  -23.4000   23.4000 C.3    27  LYS27      -0.0960
     27  CM2      -17.4270  -23.2370   24.6730 C.3    27  LYS27      -0.0960
     28  CM3      -17.3800  -24.4930   22.6340 C.3    27  LYS27      -0.0960
     29  N        -17.0720  -29.1600   29.6530 N.am   28  SER28      -0.1936
     30  CA       -16.2620  -28.9210   30.8590 C.3    28  SER28       0.2055
     31  C        -16.4010  -29.9880   31.9500 C.2    28  SER28       0.2642
     32  O        -17.4440  -30.6200   32.0560 O.2    28  SER28      -0.2714
     33  CB       -16.5540  -27.5410   31.4410 C.3    28  SER28       0.2130
     34  OG       -17.9480  -27.3320   31.5570 O.3    28  SER28      -0.2179
     35  N        -15.3770  -30.1370   32.7910 N.am   29  ALA29      -0.1977
     36  CA       -15.4520  -31.0140   33.9700 C.3    29  ALA29       0.1597
     37  C        -16.1580  -30.3150   35.1260 C.2    29  ALA29       0.2287
     38  O        -17.3410  -30.5600   35.3820 O.2    29  ALA29      -0.2864
     39  CB       -14.0560  -31.4740   34.4040 C.3    29  ALA29       0.0319
@<TRIPOS>BOND
     1    28    23    1
     2    26    23    1
     3    23    22    1
     4    23    27    1
     5    22    21    1
     6     5     2    1
     7    21    20    1
     8     1     2    1
     9    20    19    1
    10     4     3    2
    11     2     3    1
    12    19    18    1
    13     3     6   am
    14    18    17    1
    15    18    24    1
    16    15    14    1
    17     9     8    2
    18    17     8   am
    19     6     7    1
    20     8     7    1
    21     7    10    1
    22    25    24    2
    23    16    14    1
    24    24    29   am
    25    14    13    2
    26    10    11    1
    27    29    30    1
    28    13    12    1
    29    12    11    1
    30    30    33    1
    31    30    31    1
    32    33    34    1
    33    31    32    2
    34    31    35   am
    35    35    36    1
    36    36    39    1
    37    36    37    1
    38    37    38    2
