@<TRIPOS>MOLECULE
3iiz_SAM_A_1.pdb
 27 29 0 0 0
SMALL
GASTEIGER

@<TRIPOS>ATOM
      1  N         40.6940    3.1400   21.2340 N.3   1501  SAM1501    -0.1208
      2  CA        40.3850    2.7860   19.8220 C.3   1501  SAM1501     0.1952
      3  C         41.1510    1.4990   19.4900 C.2   1501  SAM1501     0.3819
      4  O         42.0640    1.0960   20.2220 O.co2 1501  SAM1501    -0.2441
      5  OXT       40.8910    0.8380   18.4810 O.co2 1501  SAM1501    -0.2441
      6  CB        40.7220    3.9410   18.8670 C.3   1501  SAM1501     0.0414
      7  CG        41.9440    4.7820   19.2250 C.3   1501  SAM1501     0.0503
      8  SD        43.5310    3.9090   19.1860 S.3   1501  SAM1501    -0.1761
      9  CE        44.6660    5.2130   19.6940 C.3   1501  SAM1501     0.0590
     10  C5'       43.8870    3.8630   17.3950 C.3   1501  SAM1501     0.0806
     11  C4'       45.0720    3.0380   16.8730 C.3   1501  SAM1501     0.1622
     12  O4'       46.2790    3.6760   17.2470 O.3   1501  SAM1501    -0.3153
     13  C3'       45.2230    1.6290   17.3860 C.3   1501  SAM1501     0.2168
     14  O3'       44.4170    0.7280   16.6640 O.3   1501  SAM1501    -0.2175
     15  C2'       46.7210    1.3590   17.2400 C.3   1501  SAM1501     0.2569
     16  O2'       47.0780    0.5500   16.1370 O.3   1501  SAM1501    -0.2130
     17  C1'       47.3390    2.7730   17.0560 C.3   1501  SAM1501     0.3185
     18  N9        48.3680    3.0050   18.0520 N.pl3 1501  SAM1501    -0.1439
     19  C8        48.2310    3.1250   19.4090 C.3   1501  SAM1501     0.3377
     20  N7        49.4610    3.2950   19.9650 N.2   1501  SAM1501    -0.2095
     21  C5        50.3900    3.2700   18.9720 C.2   1501  SAM1501     0.2526
     22  C6        51.7770    3.3910   18.9580 C.2   1501  SAM1501     0.4393
     23  N6        52.4990    3.5460   20.0820 N.pl3 1501  SAM1501     0.2180
     24  N1        52.4310    3.3750   17.7450 N.2   1501  SAM1501     0.0021
     25  C2        51.7480    3.2140   16.5750 C.3   1501  SAM1501     0.5254
     26  N3        50.3800    3.0920   16.5990 N.2   1501  SAM1501    -0.0055
     27  C4        49.7150    3.0990   17.7740 C.2   1501  SAM1501     0.3518
@<TRIPOS>BOND
     1    16    15    1
     2    25    26    1
     3    25    24    1
     4    26    27    2
     5    14    13    1
     6    11    12    1
     7    11    13    1
     8    11    10    1
     9    17    15    1
    10    17    12    1
    11    17    18    1
    12    15    13    1
    13    10     8    1
    14    24    22    2
    15    27    18    1
    16    27    21    1
    17    18    19    1
    18     5     3   ar
    19     6     7    1
    20     6     2    1
    21    22    21    1
    22    22    23    1
    23    21    20    2
    24     8     7    1
    25     8     9    1
    26    19    20    1
    27     3     2    1
    28     3     4   ar
    29     2     1    1
