@<TRIPOS>MOLECULE
3ij0_III_B_1.pdb
 41 40 0 0 0
SMALL
GASTEIGER

@<TRIPOS>ATOM
      1  N         21.2420    6.1980   19.7460 N.3     7  ALA7       -0.1231
      2  CA        19.9110    6.8190   19.4890 C.3     7  ALA7        0.1694
      3  C         20.0400    8.2560   18.9880 C.2     7  ALA7        0.2592
      4  O         20.7070    9.0750   19.6090 O.2     7  ALA7       -0.2718
      5  CB        19.0400    6.7670   20.7450 C.3     7  ALA7        0.0304
      6  N         19.3900    8.5480   17.8640 N.am    8  ARG8       -0.1966
      7  CA        19.4030    9.8780   17.2510 C.3     8  ARG8        0.1729
      8  C         18.2370   10.7310   17.7690 C.2     8  ARG8        0.2616
      9  O         17.1740   10.1950   18.1110 O.2     8  ARG8       -0.2715
     10  CB        19.2970    9.7660   15.7180 C.3     8  ARG8        0.0348
     11  CG        20.5670    9.2970   14.9880 C.3     8  ARG8        0.0492
     12  CD        20.3310    9.1220   13.4540 C.3     8  ARG8        0.2205
     13  NE        19.8500   10.3410   12.7790 N.pl3   8  ARG8       -0.0865
     14  CZ        20.6260   11.3400   12.3390 C.cat   8  ARG8        0.5346
     15  NH1       20.0680   12.3920   11.7450 N.pl3   8  ARG8        0.1354
     16  NH2       21.9500   11.3040   12.4870 N.pl3   8  ARG8        0.1354
     17  N         18.4430   12.0500   17.8150 N.am    9  LYS9       -0.1963
     18  CA        17.3830   12.9980   18.1740 C.3     9  LYS9        0.1728
     19  CB        17.9180   14.3100   18.7780 C.3     9  LYS9        0.0310
     20  CG        16.9140   14.9520   19.7340 C.3     9  LYS9        0.0001
     21  CD        17.2220   16.4110   20.0580 C.3     9  LYS9       -0.0222
     22  CE        16.2870   16.9900   21.1390 C.3     9  LYS9       -0.0733
     23  NZ        16.7140   18.2640   21.7850 N.4     9  LYS9        0.3857
     24  C         16.4540   13.2430   17.0030 C.2     9  LYS9        0.2617
     25  O         15.2690   13.5500   17.2050 O.2     9  LYS9       -0.2715
     26  CM1       15.5060   18.9370   22.2750 C.3     9  LYS9       -0.0960
     27  CM2       17.4170   19.1800   20.8650 C.3     9  LYS9       -0.0960
     28  CM3       17.6000   18.0090   22.9400 C.3     9  LYS9       -0.0960
     29  N         16.9820   13.1090   15.7790 N.am   10  SER10      -0.1936
     30  CA        16.1820   13.2000   14.5350 C.3    10  SER10       0.2055
     31  C         16.7060   12.2740   13.4370 C.2    10  SER10       0.2643
     32  O         17.8500   11.8270   13.4940 O.2    10  SER10      -0.2714
     33  CB        16.1480   14.6390   14.0030 C.3    10  SER10       0.2130
     34  OG        17.4430   15.0620   13.6240 O.3    10  SER10      -0.2179
     35  N         15.8730   12.0120   12.4280 N.am   11  THR11      -0.1950
     36  CA        16.2660   11.1950   11.2620 C.3    11  THR11       0.1897
     37  C         17.2200   11.9190   10.3090 C.2    11  THR11       0.2313
     38  O         17.1910   13.1470   10.1980 O.2    11  THR11      -0.2863
     39  CB        15.0330   10.7110   10.4640 C.3    11  THR11       0.1794
     40  OG1       13.9190   11.5860   10.7110 O.3    11  THR11      -0.2208
     41  CG2       14.6600    9.2800   10.8650 C.3    11  THR11       0.0378
@<TRIPOS>BOND
     1    38    37    2
     2    37    36    1
     3    39    40    1
     4    39    41    1
     5    39    36    1
     6    36    35    1
     7    15    14    1
     8    14    16    1
     9    14    13    2
    10    35    31   am
    11    13    12    1
    12    31    32    2
    13    31    30    1
    14    12    11    1
    15    34    33    1
    16    33    30    1
    17    30    29    1
    18    11    10    1
    19    10     7    1
    20    29    24   am
    21    24    25    2
    22    24    18    1
    23     7     8    1
    24     7     6    1
    25     8    17   am
    26     8     9    2
    27    17    18    1
    28     6     3   am
    29    18    19    1
    30    19    20    1
    31     3     2    1
    32     3     4    2
    33     2     1    1
    34     2     5    1
    35    20    21    1
    36    21    22    1
    37    27    23    1
    38    22    23    1
    39    23    26    1
    40    23    28    1
