@<TRIPOS>MOLECULE
3ij7_BGC_A_1.pdb
 11 11 0 0 0
SMALL
GASTEIGER

@<TRIPOS>ATOM
      1  C2        13.2590   17.8900   38.5170 C.3   502  BGC502      0.2141
      2  C3        13.3380   16.5260   37.7670 C.3   502  BGC502      0.2173
      3  C4        14.8050   16.0280   37.7840 C.3   502  BGC502      0.2142
      4  C5        15.1940   15.8150   39.3050 C.3   502  BGC502      0.1810
      5  C6        16.6370   15.2930   39.5290 C.3   502  BGC502      0.2141
      6  C1        13.8010   17.7880   39.9810 C.3   502  BGC502      0.1777
      7  O2        11.8960   18.3130   38.5290 O.3   502  BGC502     -0.2176
      8  O3        12.8630   16.7440   36.4440 O.3   502  BGC502     -0.2175
      9  O4        14.9070   14.7920   37.0600 O.3   502  BGC502     -0.2176
     10  O5        15.0720   17.0870   40.0230 O.3   502  BGC502     -0.3481
     11  O6        17.5970   16.0410   38.8150 O.3   502  BGC502     -0.2176
@<TRIPOS>BOND
     1     8     2    1
     2     9     3    1
     3     2     3    1
     4     2     1    1
     5     3     4    1
     6     1     7    1
     7     1     6    1
     8    11     5    1
     9     4     5    1
    10     4    10    1
    11     6    10    1
