@<TRIPOS>MOLECULE
3ij7_B8D_A_1.pdb
 12 12 0 0 0
SMALL
GASTEIGER

@<TRIPOS>ATOM
      1  CJ1       16.1280   14.6790   36.3200 C.3   503  B8D503      0.1777
      2  CJ2       15.7260   14.6800   34.8240 C.3   503  B8D503      0.2140
      3  OJ2       15.0690   15.8980   34.5630 O.3   503  B8D503     -0.2176
      4  CJ3       14.8080   13.4580   34.5100 C.3   503  B8D503      0.2140
      5  OJ3       14.4510   13.4640   33.1420 O.3   503  B8D503     -0.2176
      6  CJ4       15.6410   12.1980   34.8150 C.3   503  B8D503      0.1777
      7  OJ4       14.8670   11.0440   34.5280 O.3   503  B8D503     -0.3483
      8  CJ5       16.0370   12.2220   36.3400 C.3   503  B8D503      0.1777
      9  OJ5       16.7970   13.4140   36.6160 O.3   503  B8D503     -0.3482
     10  CJ6       16.9220   11.0140   36.7360 C.3   503  B8D503      0.2140
     11  OJ6       17.9120   10.6230   35.7160 O.3   503  B8D503     -0.2176
     12  CJ7       15.4170   10.1550   33.5450 C.3   503  B8D503      0.1742
@<TRIPOS>BOND
     1     5     4    1
     2    12     7    1
     3     4     6    1
     4     4     2    1
     5     7     6    1
     6     3     2    1
     7     6     8    1
     8     2     1    1
     9    11    10    1
    10     1     9    1
    11     8     9    1
    12     8    10    1
