@<TRIPOS>MOLECULE
3ij7_GLF_A_1.pdb
 12 12 0 0 0
SMALL
GASTEIGER

@<TRIPOS>ATOM
      1  C1         8.9880   44.2270   38.3840 C.3   504  GLF504      0.3118
      2  C2         7.8550   44.4070   39.4290 C.3   504  GLF504      0.2458
      3  C3         8.1000   45.6680   40.2970 C.3   504  GLF504      0.2201
      4  C4         9.4990   45.6050   40.9960 C.3   504  GLF504      0.2144
      5  C5        10.6230   45.2360   39.9670 C.3   504  GLF504      0.1837
      6  C6        11.9310   44.8600   40.6650 C.3   504  GLF504      0.2142
      7  F1         9.0720   45.2790   37.4800 F     504  GLF504     -0.2011
      8  O2         6.5920   44.5190   38.8150 O.3   504  GLF504     -0.2145
      9  O3         7.0610   45.8120   41.2700 O.3   504  GLF504     -0.2174
     10  O4         9.8330   46.8950   41.5810 O.3   504  GLF504     -0.2176
     11  O5        10.2150   44.1070   39.1300 O.3   504  GLF504     -0.3219
     12  O6        12.8650   44.3930   39.7050 O.3   504  GLF504     -0.2176
@<TRIPOS>BOND
     1     7     1    1
     2     1    11    1
     3     1     2    1
     4     8     2    1
     5    11     5    1
     6     2     3    1
     7    12     6    1
     8     5     6    1
     9     5     4    1
    10     3     4    1
    11     3     9    1
    12     4    10    1
