@<TRIPOS>MOLECULE
3ij7_B9D_A_1.pdb
 12 12 0 0 0
SMALL
GASTEIGER

@<TRIPOS>ATOM
      1  O         13.3290   16.3410   44.4560 O.3   501  B9D501     -0.3239
      2  C1        12.2460   17.1660   45.0050 C.3   501  B9D501      0.1805
      3  F1        14.2460   15.2830   42.5960 F     501  B9D501     -0.2039
      4  C2        12.2480   18.5330   44.2950 C.3   501  B9D501      0.2143
      5  O2        11.2200   19.3530   44.8230 O.3   501  B9D501     -0.2176
      6  C3        12.0300   18.2830   42.7940 C.3   501  B9D501      0.2200
      7  O3        12.0430   19.5060   42.0810 O.3   501  B9D501     -0.2174
      8  C4        13.1320   17.3690   42.2480 C.3   501  B9D501      0.2431
      9  O4        12.9090   17.1050   40.8460 O.3   501  B9D501     -0.2146
     10  C5        13.1890   16.0320   43.0320 C.3   501  B9D501      0.2883
     11  C6        11.9240   15.1040   42.7600 C.3   501  B9D501      0.2458
     12  O6        10.6510   15.8040   42.9200 O.3   501  B9D501     -0.2145
@<TRIPOS>BOND
     1     9     8    1
     2     7     6    1
     3     8     6    1
     4     8    10    1
     5     3    10    1
     6    11    12    1
     7    11    10    1
     8     6     4    1
     9    10     1    1
    10     4     5    1
    11     4     2    1
    12     1     2    1
