@<TRIPOS>MOLECULE
3ij8_B0D_A_1.pdb
 13 13 0 0 0
SMALL
GASTEIGER

@<TRIPOS>ATOM
      1  F1         5.3290   15.7690   40.9310 F     501  B0D501     -0.2010
      2  F2         9.1640   17.4650   40.6340 F     501  B0D501     -0.2038
      3  CX1        6.4590   14.9700   40.9740 C.3   501  B0D501      0.3137
      4  CX2        6.7460   14.5540   42.4510 C.3   501  B0D501      0.2459
      5  OX2        5.6250   13.8800   43.0060 O.3   501  B0D501     -0.2145
      6  CX3        7.1130   15.8010   43.3040 C.3   501  B0D501      0.2229
      7  OX3        7.3960   15.4200   44.6710 O.3   501  B0D501     -0.2173
      8  CX4        8.3400   16.4890   42.6810 C.3   501  B0D501      0.2433
      9  OX4        8.7150   17.6410   43.4540 O.3   501  B0D501     -0.2146
     10  CX5        8.0590   16.9020   41.2070 C.3   501  B0D501      0.2901
     11  OX5        7.6270   15.7060   40.4460 O.3   501  B0D501     -0.2960
     12  CX6        6.9810   18.0340   41.1500 C.3   501  B0D501      0.2458
     13  OX6        6.7410   18.4030   39.7760 O.3   501  B0D501     -0.2145
@<TRIPOS>BOND
     1    13    12    1
     2    11     3    1
     3    11    10    1
     4     2    10    1
     5     1     3    1
     6     3     4    1
     7    12    10    1
     8    10     8    1
     9     4     5    1
    10     4     6    1
    11     8     6    1
    12     8     9    1
    13     6     7    1
