@<TRIPOS>MOLECULE
3ij8_B9D_A_1.pdb
 12 12 0 0 0
SMALL
GASTEIGER

@<TRIPOS>ATOM
      1  O         13.2090   16.6810   44.5200 O.3   504  B9D504     -0.3239
      2  C1        12.1200   17.4680   45.0000 C.3   504  B9D504      0.1805
      3  F1        14.2690   15.6390   42.7830 F     504  B9D504     -0.2039
      4  C2        12.1160   18.8250   44.2810 C.3   504  B9D504      0.2143
      5  O2        11.0280   19.6210   44.7430 O.3   504  B9D504     -0.2176
      6  C3        12.0070   18.6020   42.7640 C.3   504  B9D504      0.2200
      7  O3        12.1110   19.8480   42.0840 O.3   504  B9D504     -0.2174
      8  C4        13.1150   17.6590   42.2660 C.3   504  B9D504      0.2431
      9  O4        12.8650   17.3210   40.8840 O.3   504  B9D504     -0.2146
     10  C5        13.1630   16.3710   43.1060 C.3   504  B9D504      0.2883
     11  C6        11.9150   15.5190   42.7990 C.3   504  B9D504      0.2458
     12  O6        10.8710   16.3840   42.3990 O.3   504  B9D504     -0.2145
@<TRIPOS>BOND
     1     9     8    1
     2     7     6    1
     3     8     6    1
     4     8    10    1
     5    12    11    1
     6     6     4    1
     7     3    10    1
     8    11    10    1
     9    10     1    1
    10     4     5    1
    11     4     2    1
    12     1     2    1
