@<TRIPOS>MOLECULE
3ij9_B9D_A_1.pdb
 12 12 0 0 0
SMALL
GASTEIGER

@<TRIPOS>ATOM
      1  O         13.2160   16.5620   44.6240 O.3   501  B9D501     -0.3239
      2  C1        12.1670   17.4180   45.2030 C.3   501  B9D501      0.1805
      3  F1        14.0850   15.5190   42.7440 F     501  B9D501     -0.2039
      4  C2        12.1990   18.8010   44.5280 C.3   501  B9D501      0.2143
      5  O2        11.2090   19.6440   45.0990 O.3   501  B9D501     -0.2176
      6  C3        11.9470   18.5810   43.0210 C.3   501  B9D501      0.2200
      7  O3        11.9780   19.8180   42.3420 O.3   501  B9D501     -0.2174
      8  C4        13.0290   17.6500   42.4460 C.3   501  B9D501      0.2431
      9  O4        12.7900   17.4080   41.0450 O.3   501  B9D501     -0.2146
     10  C5        13.0580   16.2910   43.2010 C.3   501  B9D501      0.2883
     11  C6        11.7720   15.4070   42.9080 C.3   501  B9D501      0.2458
     12  O6        10.5240   16.0090   43.3530 O.3   501  B9D501     -0.2145
@<TRIPOS>BOND
     1     9     8    1
     2     7     6    1
     3     8     6    1
     4     8    10    1
     5     3    10    1
     6    11    10    1
     7    11    12    1
     8     6     4    1
     9    10     1    1
    10     4     5    1
    11     4     2    1
    12     1     2    1
