@<TRIPOS>MOLECULE
3ij9_B0D_A_1.pdb
 13 13 0 0 0
SMALL
GASTEIGER

@<TRIPOS>ATOM
      1  F1         3.1330   -0.3890   55.1560 F     503  B0D503     -0.2010
      2  F2         5.4680    2.7700   56.7590 F     503  B0D503     -0.2038
      3  CX1        3.7950    0.4960   54.3650 C.3   503  B0D503      0.3137
      4  CX2        5.0830   -0.1400   53.7470 C.3   503  B0D503      0.2459
      5  OX2        4.7590   -1.3420   53.0530 O.3   503  B0D503     -0.2145
      6  CX3        6.1540   -0.3970   54.8520 C.3   503  B0D503      0.2229
      7  OX3        7.3300   -0.9590   54.2840 O.3   503  B0D503     -0.2173
      8  CX4        6.4820    0.9420   55.5640 C.3   503  B0D503      0.2433
      9  OX4        7.4970    0.7440   56.5900 O.3   503  B0D503     -0.2146
     10  CX5        5.1950    1.5650   56.1760 C.3   503  B0D503      0.2901
     11  OX5        4.1670    1.7170   55.1130 O.3   503  B0D503     -0.2960
     12  CX6        4.6680    0.6720   57.3530 C.3   503  B0D503      0.2458
     13  OX6        3.3800    1.1560   57.7780 O.3   503  B0D503     -0.2145
@<TRIPOS>BOND
     1     5     4    1
     2     4     3    1
     3     4     6    1
     4     7     6    1
     5     3    11    1
     6     3     1    1
     7     6     8    1
     8    11    10    1
     9     8    10    1
    10     8     9    1
    11    10     2    1
    12    10    12    1
    13    12    13    1
