@<TRIPOS>MOLECULE
3ij9_BGC_A_1.pdb
 11 11 0 0 0
SMALL
GASTEIGER

@<TRIPOS>ATOM
      1  C2        12.9210   18.0190   38.7470 C.3   502  BGC502      0.2141
      2  C3        12.7670   16.5640   38.1910 C.3   502  BGC502      0.2173
      3  C4        14.1690   15.9250   38.0720 C.3   502  BGC502      0.2142
      4  C5        14.7830   15.8760   39.5230 C.3   502  BGC502      0.1810
      5  C6        16.1990   15.2610   39.5520 C.3   502  BGC502      0.2141
      6  C1        13.6400   18.0040   40.1340 C.3   502  BGC502      0.1777
      7  O2        11.6190   18.5870   38.8840 O.3   502  BGC502     -0.2176
      8  O3        12.1340   16.6370   36.9210 O.3   502  BGC502     -0.2175
      9  O4        14.0530   14.6100   37.5530 O.3   502  BGC502     -0.2176
     10  O5        14.8750   17.2360   40.0610 O.3   502  BGC502     -0.3481
     11  O6        17.1480   16.1040   38.9440 O.3   502  BGC502     -0.2176
@<TRIPOS>BOND
     1     8     2    1
     2     9     3    1
     3     3     2    1
     4     3     4    1
     5     2     1    1
     6     1     7    1
     7     1     6    1
     8    11     5    1
     9     4     5    1
    10     4    10    1
    11    10     6    1
