@<TRIPOS>MOLECULE
3ijc_NDS_A_1.pdb
 12 11 0 0 0
SMALL
GASTEIGER

@<TRIPOS>ATOM
      1  O3        16.1180   13.8790   17.7570 O.3   500  NDS500     -0.3075
      2  S1        16.7740   15.1100   18.3310 S.3   500  NDS500     -0.1961
      3  O1        16.1000   16.3680   17.9010 O.3   500  NDS500     -0.3075
      4  O2        18.1940   15.1920   17.8910 O.3   500  NDS500     -0.3075
      5  C4        16.8070   15.0340   20.0120 C.3   500  NDS500      0.1031
      6  C3        17.1670   16.3930   20.6210 C.3   500  NDS500     -0.0007
      7  C2        16.6850   16.5030   22.0610 C.3   500  NDS500     -0.0715
      8  N1        16.9370   17.7630   22.8220 N.4   500  NDS500      0.3871
      9  C1        16.8120   17.4500   24.2530 C.3   500  NDS500     -0.0959
     10  C7        18.2770   18.3280   22.5860 C.3   500  NDS500     -0.0959
     11  C5        15.8690   18.7190   22.5230 C.3   500  NDS500     -0.0733
     12  C6        16.3940   19.8140   21.6130 C.3   500  NDS500     -0.0244
@<TRIPOS>BOND
     1     1     2    1
     2     4     2    1
     3     3     2    1
     4     2     5    1
     5     5     6    1
     6     6     7    1
     7    12    11    1
     8     7     8    1
     9    11     8    1
    10    10     8    1
    11     8     9    1
