@<TRIPOS>MOLECULE
3ijd_C2F_A_1.pdb
 33 35 0 0 0
SMALL
GASTEIGER

@<TRIPOS>ATOM
      1  N1         8.7810    0.2400   -3.2870 N.2   314  C2F314     -0.2726
      2  C2         7.8470    0.6870   -4.1670 C.1   314  C2F314      0.2603
      3  NA2        7.9750    1.9430   -4.6320 N.pl3 314  C2F314     -0.0221
      4  N3         6.8090   -0.0770   -4.5600 N.2   314  C2F314     -0.2515
      5  C4         6.6650   -1.3420   -4.1320 C.1   314  C2F314      0.2218
      6  O4         5.7320   -2.0600   -4.5090 O.2   314  C2F314     -0.2109
      7  C4A        7.6460   -1.8820   -3.1900 C.3   314  C2F314      0.2763
      8  N5         7.6180   -3.1330   -2.6090 N.3   314  C2F314     -0.2435
      9  C6         8.8550   -3.7940   -2.2280 C.3   314  C2F314      0.1062
     10  C7         9.4670   -2.7780   -1.2680 C.3   314  C2F314      0.1547
     11  N8         9.6250   -1.4750   -1.8850 N.2   314  C2F314     -0.2096
     12  C8A        8.7220   -1.0000   -2.7750 C.1   314  C2F314      0.1050
     13  C9         9.8240   -4.1020   -3.4010 C.3   314  C2F314      0.1302
     14  N10        9.4080   -5.3160   -4.0630 N.pl3 314  C2F314     -0.2361
     15  C11        6.3410   -3.6720   -2.1550 C.3   314  C2F314      0.0915
     16  C12        8.5320   -8.8390   -2.1020 C.ar  314  C2F314      0.0551
     17  C13        9.4330   -7.9480   -1.5270 C.ar  314  C2F314      0.0059
     18  C14        9.7790   -6.7660   -2.1610 C.ar  314  C2F314      0.0162
     19  C15        9.2150   -6.4820   -3.4100 C.ar  314  C2F314      0.0654
     20  C16        8.2990   -7.3700   -3.9680 C.ar  314  C2F314      0.0162
     21  C17        7.9610   -8.5520   -3.3330 C.ar  314  C2F314      0.0059
     22  C          8.1450  -10.0910   -1.3920 C.2   314  C2F314      0.2652
     23  O          8.0190  -11.1400   -2.0260 O.2   314  C2F314     -0.2684
     24  N          7.9240   -9.9380   -0.0690 N.am  314  C2F314     -0.1918
     25  CA         7.5830  -10.9590    0.9200 C.3   314  C2F314      0.1986
     26  CB         8.8630  -11.6430    1.4270 C.3   314  C2F314      0.0451
     27  CG         8.9380  -13.1610    1.3580 C.3   314  C2F314      0.1164
     28  CD         9.8800  -13.6380    2.4620 C.2   314  C2F314      0.3649
     29  OE1       11.1340  -13.6290    2.2930 O.co2 314  C2F314     -0.2457
     30  OE2        9.3570  -14.0260    3.5400 O.co2 314  C2F314     -0.2457
     31  CT         6.9460  -10.2730    2.1190 C.2   314  C2F314      0.3842
     32  O1         7.4410   -9.2220    2.5320 O.co2 314  C2F314     -0.2437
     33  O2         5.9720  -10.7690    2.6990 O.co2 314  C2F314     -0.2437
@<TRIPOS>BOND
     1     3     2    1
     2     4     2    2
     3     4     5    2
     4     6     5    2
     5     2     1    2
     6     5     7    1
     7    14    19    1
     8    14    13    1
     9    20    19   ar
    10    20    21   ar
    11    19    18   ar
    12    13     9    1
    13    21    16   ar
    14     1    12    2
    15     7    12    1
    16     7     8    1
    17    12    11    2
    18     8     9    1
    19     8    15    1
    20     9    10    1
    21    18    17   ar
    22    16    17   ar
    23    16    22    1
    24    23    22    2
    25    11    10    1
    26    22    24   am
    27    24    25    1
    28    25    26    1
    29    25    31    1
    30    27    26    1
    31    27    28    1
    32    31    32   ar
    33    31    33   ar
    34    29    28   ar
    35    28    30   ar
