@<TRIPOS>MOLECULE
3ijg_AVR_C_1.pdb
 17 18 0 0 0
SMALL
GASTEIGER

@<TRIPOS>ATOM
      1  C         14.0140   43.3950   15.5940 C.2   200  AVR200      0.1929
      2  N         11.9950   43.5600   14.2750 N.3   200  AVR200     -0.1246
      3  O         14.7820   43.8590   14.7510 O.2   200  AVR200     -0.2897
      4  N1        14.6900   40.4830   17.7380 N.ar  200  AVR200     -0.1694
      5  C2        13.9780   41.0640   16.7700 C.ar  200  AVR200      0.0828
      6  C3        14.4940   42.3390   16.5900 C.ar  200  AVR200      0.0690
      7  C4        15.5260   42.4670   17.5080 C.ar  200  AVR200      0.0868
      8  N5        15.5670   41.2340   18.1750 N.ar  200  AVR200     -0.2284
      9  C6        16.5260   41.0370   19.1760 C.ar  200  AVR200      0.1004
     10  C7        17.4070   42.0630   19.4980 C.ar  200  AVR200      0.0207
     11  C8        17.3500   43.2830   18.8350 C.ar  200  AVR200      0.0031
     12  C9        16.4100   43.4910   17.8320 C.ar  200  AVR200      0.0193
     13  CA        12.5450   43.8140   15.6160 C.3   200  AVR200      0.1533
     14  CB        12.5090   45.3070   15.9470 C.3   200  AVR200      0.0289
     15  C10       12.7830   40.4720   16.0130 C.3   200  AVR200      0.0422
     16  C11       11.5050   40.6430   16.8400 C.3   200  AVR200      0.0064
     17  C12       13.0140   38.9930   15.6950 C.3   200  AVR200      0.0064
@<TRIPOS>BOND
     1     2    13    1
     2     3     1    2
     3     1    13    1
     4     1     6    1
     5    13    14    1
     6    17    15    1
     7    15     5    1
     8    15    16    1
     9     6     5   ar
    10     6     7   ar
    11     5     4   ar
    12     7    12   ar
    13     7     8   ar
    14     4     8   ar
    15    12    11   ar
    16     8     9   ar
    17    11    10   ar
    18     9    10   ar
