@<TRIPOS>MOLECULE
3ijh_KO2_B_1.pdb
 20 20 0 0 0
SMALL
GASTEIGER

@<TRIPOS>ATOM
      1  C1        -9.6380    0.4070   -0.0820 C.2   214  KO2214      0.4178
      2  O1B       -8.7210    0.7670    0.6950 O.co2 214  KO2214     -0.2401
      3  C2        -9.2740   -0.5000   -1.2580 C.3   214  KO2214      0.3152
      4  O6       -10.4450   -0.6430   -2.0960 O.3   214  KO2214     -0.3212
      5  C6       -10.2770   -1.5500   -3.2070 C.3   214  KO2214      0.1838
      6  C7       -11.5590   -1.6080   -4.0400 C.3   214  KO2214      0.2143
      7  C8       -11.8360   -0.2110   -4.6140 C.3   214  KO2214      0.2174
      8  O8       -13.0230   -0.2280   -5.4060 O.3   214  KO2214     -0.2175
      9  O7       -11.4190   -2.5550   -5.1000 O.3   214  KO2214     -0.2176
     10  C5       -10.0220   -2.9640   -2.6570 C.3   214  KO2214      0.2144
     11  O5       -11.1460   -3.3990   -1.8790 O.3   214  KO2214     -0.2176
     12  C4        -8.7490   -2.8820   -1.8350 C.3   214  KO2214      0.2203
     13  O4        -8.4880   -4.1600   -1.2500 O.3   214  KO2214     -0.2174
     14  C3        -8.9290   -1.8740   -0.6850 C.3   214  KO2214      0.2467
     15  O3        -9.8980   -2.3030    0.2650 O.3   214  KO2214     -0.2144
     16  O2        -8.2770    0.0160   -2.1240 O.3   214  KO2214     -0.3241
     17  C11       -4.9220    1.2150   -2.8320 C.3   214  KO2214      0.0027
     18  C10       -6.3900    0.8420   -2.9790 C.3   214  KO2214      0.0322
     19  C9        -6.9540    0.2490   -1.6810 C.3   214  KO2214      0.1453
     20  O1A      -10.8580    0.6610    0.0520 O.co2 214  KO2214     -0.2401
@<TRIPOS>BOND
     1     8     7    1
     2     9     6    1
     3     7     6    1
     4     6     5    1
     5     5    10    1
     6     5     4    1
     7    18    17    1
     8    18    19    1
     9    10    11    1
    10    10    12    1
    11    16    19    1
    12    16     3    1
    13     4     3    1
    14    12    13    1
    15    12    14    1
    16     3    14    1
    17     3     1    1
    18    14    15    1
    19     1    20   ar
    20     1     2   ar
