@<TRIPOS>MOLECULE
3iji_DGL_A_1.pdb
 10 9 0 0 0
SMALL
GASTEIGER

@<TRIPOS>ATOM
      1  N         32.7590   19.6670    6.4230 N.3   385  DGL385     -0.1208
      2  CA        33.0350   19.5210    4.9790 C.3   385  DGL385      0.1949
      3  C         34.1490   18.5030    4.6730 C.2   385  DGL385      0.3819
      4  O         34.3950   18.2830    3.4680 O.co2 385  DGL385     -0.2441
      5  CB        31.7380   19.1600    4.2230 C.3   385  DGL385      0.0424
      6  CG        30.8240   18.1250    4.8800 C.3   385  DGL385      0.1161
      7  CD        29.3710   18.2460    4.4510 C.2   385  DGL385      0.3649
      8  OE1       29.0950   18.3410    3.2330 O.co2 385  DGL385     -0.2457
      9  OE2       28.5030   18.2520    5.3350 O.co2 385  DGL385     -0.2457
     10  OXT       34.7700   17.9550    5.6080 O.co2 385  DGL385     -0.2441
@<TRIPOS>BOND
     1     8     7   ar
     2     4     3   ar
     3     5     6    1
     4     5     2    1
     5     7     6    1
     6     7     9   ar
     7     3     2    1
     8     3    10   ar
     9     2     1    1
