@<TRIPOS>MOLECULE
3ijj_ENO_A_1.pdb
 13 13 0 0 0
SMALL
GASTEIGER

@<TRIPOS>ATOM
      1  O4        31.5440   14.2810   27.9460 O.2   901  ENO901     -0.2839
      2  C9        30.0240   17.5340   29.5070 C.ar  901  ENO901     -0.0005
      3  C8        29.1430   18.5690   29.2050 C.ar  901  ENO901      0.0417
      4  C7        27.7970   18.2830   28.9750 C.ar  901  ENO901      0.1957
      5  C6        27.3260   16.9770   29.0420 C.ar  901  ENO901      0.0417
      6  C5        28.2130   15.9490   29.3440 C.ar  901  ENO901     -0.0005
      7  C4        29.5630   16.2180   29.5720 C.ar  901  ENO901     -0.0140
      8  O3        26.9240   19.2800   28.6840 O.3   901  ENO901     -0.2866
      9  C3        30.5290   15.0940   29.9150 C.3   901  ENO901      0.1025
     10  C2        30.6560   14.1050   28.7690 C.2   901  ENO901      0.2564
     11  C1        29.7590   12.9570   28.6040 C.2   901  ENO901      0.4222
     12  O2        30.1090   12.0260   27.8350 O.co2 901  ENO901     -0.2373
     13  O1        28.6650   12.9280   29.2120 O.co2 901  ENO901     -0.2373
@<TRIPOS>BOND
     1    12    11   ar
     2     1    10    2
     3    11    10    1
     4    11    13   ar
     5     8     4    1
     6    10     9    1
     7     4     5   ar
     8     4     3   ar
     9     5     6   ar
    10     3     2   ar
    11     6     7   ar
    12     2     7   ar
    13     7     9    1
