@<TRIPOS>MOLECULE
3ijj_EN1_A_1.pdb
 13 13 0 0 0
SMALL
GASTEIGER

@<TRIPOS>ATOM
      1  C1        30.0490   13.4060   28.5840 C.2   900  EN1900      0.4260
      2  O1        28.9730   13.8280   29.0560 O.co2 900  EN1900     -0.2369
      3  C2        31.3140   14.2520   28.7430 C.2   900  EN1900      0.2747
      4  O2        30.1710   12.3210   27.9740 O.co2 900  EN1900     -0.2369
      5  C3        31.3510   15.6440   28.7310 C.2   900  EN1900      0.0490
      6  O3        27.2710   19.3900   28.8840 O.3   900  EN1900     -0.2866
      7  C4        30.2900   16.5450   28.7660 C.ar  900  EN1900      0.0036
      8  O4        32.4870   13.5820   28.8940 O.2   900  EN1900     -0.2795
      9  C5        28.9580   16.1530   28.8330 C.ar  900  EN1900      0.0034
     10  C6        27.9440   17.1030   28.8780 C.ar  900  EN1900      0.0420
     11  C7        28.2590   18.4570   28.8510 C.ar  900  EN1900      0.1957
     12  C8        29.5860   18.8600   28.7790 C.ar  900  EN1900      0.0420
     13  C9        30.5910   17.9020   28.7400 C.ar  900  EN1900      0.0034
@<TRIPOS>BOND
     1     4     1   ar
     2     1     3    1
     3     1     2   ar
     4     5     3    2
     5     5     7    1
     6    13     7   ar
     7    13    12   ar
     8     3     8    1
     9     7     9   ar
    10    12    11   ar
    11     9    10   ar
    12    11    10   ar
    13    11     6    1
