@<TRIPOS>MOLECULE
3ijj_AVR_C_1.pdb
 17 18 0 0 0
SMALL
GASTEIGER

@<TRIPOS>ATOM
      1  C         14.7070   44.2970   15.7050 C.2   200  AVR200      0.1929
      2  N         12.4760   44.7700   16.6590 N.3   200  AVR200     -0.1246
      3  O         15.3390   44.4570   14.6580 O.2   200  AVR200     -0.2897
      4  N1        14.7640   40.9910   17.3950 N.ar  200  AVR200     -0.1694
      5  C2        14.2120   41.8150   16.4980 C.ar  200  AVR200      0.0828
      6  C3        14.9170   43.0140   16.5320 C.ar  200  AVR200      0.0690
      7  C4        15.9010   42.8320   17.4880 C.ar  200  AVR200      0.0868
      8  N5        15.7200   41.5210   17.9790 N.ar  200  AVR200     -0.2284
      9  C6        16.5840   41.0390   18.9840 C.ar  200  AVR200      0.1004
     10  C7        17.6010   41.8560   19.4790 C.ar  200  AVR200      0.0207
     11  C8        17.7660   43.1500   18.9830 C.ar  200  AVR200      0.0031
     12  C9        16.9200   43.6400   17.9880 C.ar  200  AVR200      0.0193
     13  CA        13.7350   45.3860   16.2050 C.3   200  AVR200      0.1533
     14  CB        13.4090   46.3850   15.0800 C.3   200  AVR200      0.0289
     15  C10       12.9960   41.4070   15.6260 C.3   200  AVR200      0.0422
     16  C11       12.9410   42.1260   14.2690 C.3   200  AVR200      0.0064
     17  C12       11.6900   41.5790   16.4100 C.3   200  AVR200      0.0064
@<TRIPOS>BOND
     1    16    15    1
     2     3     1    2
     3    14    13    1
     4    15    17    1
     5    15     5    1
     6     1    13    1
     7     1     6    1
     8    13     2    1
     9     5     6   ar
    10     5     4   ar
    11     6     7   ar
    12     4     8   ar
    13     7     8   ar
    14     7    12   ar
    15     8     9   ar
    16    12    11   ar
    17    11    10   ar
    18     9    10   ar
