@<TRIPOS>MOLECULE
3ijl_DGL_A_1.pdb
 10 9 0 0 0
SMALL
GASTEIGER

@<TRIPOS>ATOM
      1  N         32.8610   19.4810    6.6370 N.3   385  DGL385     -0.1208
      2  CA        33.1550   19.4090    5.1840 C.3   385  DGL385      0.1949
      3  C         34.1840   18.3160    4.8530 C.2   385  DGL385      0.3819
      4  O         34.4550   18.1190    3.6380 O.co2 385  DGL385     -0.2441
      5  CB        31.8360   19.1920    4.4030 C.3   385  DGL385      0.0424
      6  CG        30.9620   18.0100    4.8400 C.3   385  DGL385      0.1161
      7  CD        29.4950   18.2310    4.5630 C.2   385  DGL385      0.3649
      8  OE1       29.1100   18.3740    3.3780 O.co2 385  DGL385     -0.2457
      9  OE2       28.7240   18.2670    5.5290 O.co2 385  DGL385     -0.2457
     10  OXT       34.7150   17.6820    5.7830 O.co2 385  DGL385     -0.2441
@<TRIPOS>BOND
     1     8     7   ar
     2     4     3   ar
     3     5     6    1
     4     5     2    1
     5     7     6    1
     6     7     9   ar
     7     3     2    1
     8     3    10   ar
     9     2     1    1
