@<TRIPOS>MOLECULE
3ijo_GLU_B_1.pdb
 10 9 0 0 0
SMALL
GASTEIGER

@<TRIPOS>ATOM
      1  N         -4.0480   38.7970  -27.1650 N.3   400  GLU400     -0.1208
      2  CA        -3.7510   37.7770  -26.1540 C.3   400  GLU400      0.1949
      3  C         -2.2450   37.6840  -25.8730 C.2   400  GLU400      0.3819
      4  O         -1.8010   36.8710  -25.0600 O.co2 400  GLU400     -0.2441
      5  CB        -4.3090   36.4020  -26.5730 C.3   400  GLU400      0.0424
      6  CG        -5.8400   36.2920  -26.5160 C.3   400  GLU400      0.1161
      7  CD        -6.3970   36.2540  -25.0860 C.2   400  GLU400      0.3649
      8  OE1       -7.6090   36.5340  -24.8930 O.co2 400  GLU400     -0.2457
      9  OE2       -5.6320   35.9350  -24.1540 O.co2 400  GLU400     -0.2457
     10  OXT       -1.4380   38.4300  -26.4370 O.co2 400  GLU400     -0.2441
@<TRIPOS>BOND
     1     1     2    1
     2     5     6    1
     3     5     2    1
     4     6     7    1
     5    10     3   ar
     6     2     3    1
     7     3     4   ar
     8     7     8   ar
     9     7     9   ar
