@<TRIPOS>MOLECULE
3ijo_B4D_B_1.pdb
 22 23 0 0 0
SMALL
GASTEIGER

@<TRIPOS>ATOM
      1  C01        0.3040   56.6460  -28.2010 C.2   800  B4D800     -0.0040
      2  C02        0.9230   56.8660  -29.3480 C.2   800  B4D800     -0.0144
      3  C03        0.3650   56.3880  -30.6920 C.3   800  B4D800      0.0845
      4  S04       -1.3100   55.7080  -30.4490 S.3   800  B4D800     -0.1183
      5  C05       -2.1550   55.5790  -32.0580 C.3   800  B4D800      0.1710
      6  C06       -3.3910   54.6710  -31.9200 C.1   800  B4D800      0.0938
      7  N07       -4.0840   54.1570  -33.1330 N.2   800  B4D800     -0.3552
      8  C08       -5.4020   53.4580  -33.0130 C.2   800  B4D800      0.1444
      9  C09       -6.2070   53.2790  -34.1860 C.3   800  B4D800      0.1005
     10  C10       -7.3970   52.5200  -34.1160 C.2   800  B4D800      0.0612
     11 CL11       -8.4670   52.4040  -35.5430 Cl    800  B4D800     -0.0851
     12  C12       -7.7500   51.8720  -32.9110 C.2   800  B4D800      0.1333
     13  S13       -9.0610   51.0670  -32.8230 S.O2  800  B4D800      0.0941
     14  N14      -10.1770   51.9800  -32.5790 N.3   800  B4D800      0.0392
     15  O15       -8.9740   50.1410  -31.7690 O.2   800  B4D800     -0.1503
     16  O16       -9.2720   50.3810  -34.0350 O.2   800  B4D800     -0.1503
     17  C17       -6.9200   51.9960  -31.7720 C.2   800  B4D800      0.0433
     18  C18       -5.7210   52.7780  -31.8430 C.2   800  B4D800      0.1576
     19  S19       -4.5850   52.9140  -30.3850 S.O2  800  B4D800      0.1109
     20  O20       -5.2560   53.6410  -29.3100 O.2   800  B4D800     -0.1456
     21  O21       -4.2200   51.5740  -29.9160 O.2   800  B4D800     -0.1456
     22  N22       -3.3180   53.6750  -30.8140 N.2   800  B4D800     -0.0652
@<TRIPOS>BOND
     1    11    10    1
     2     9    10    1
     3     9     8    1
     4    10    12    2
     5    16    13    2
     6     7     8    2
     7     7     6    2
     8     8    18    1
     9    12    13    1
    10    12    17    1
    11    13    14    1
    12    13    15    2
    13     5     6    1
    14     5     4    1
    15     6    22    2
    16    18    17    2
    17    18    19    1
    18    22    19    1
    19     3     4    1
    20     3     2    1
    21    19    21    2
    22    19    20    2
    23     2     1    2
