@<TRIPOS>MOLECULE
3ijp_NAP_A_1.pdb
 48 52 0 0 0
SMALL
GASTEIGER

@<TRIPOS>ATOM
      1  PA        27.0830  127.9480   -4.4530 P.3   300  NAP300      0.2189
      2  O1A       27.0110  127.2650   -5.7760 O.2   300  NAP300     -0.5170
      3  O2A       27.1580  127.1690   -3.1740 O.3   300  NAP300     -0.4371
      4  O5B       25.8730  128.9700   -4.2590 O.3   300  NAP300     -0.3112
      5  C5B       25.1950  129.5160   -5.3790 C.3   300  NAP300      0.1813
      6  C4B       23.8620  130.1160   -4.9100 C.3   300  NAP300      0.1820
      7  O4B       23.3380  130.9510   -5.9360 O.3   300  NAP300     -0.3136
      8  C3B       22.7920  129.0470   -4.6750 C.3   300  NAP300      0.2157
      9  O3B       21.9490  129.4060   -3.5720 O.3   300  NAP300     -0.2175
     10  C2B       22.0530  129.0300   -5.9830 C.3   300  NAP300      0.2314
     11  O2B       20.8020  128.3950   -5.9120 O.3   300  NAP300     -0.2630
     12  C1B       22.0050  130.5240   -6.2200 C.3   300  NAP300      0.3158
     13  N9A       21.5960  130.8230   -7.6020 N.pl3 300  NAP300     -0.1439
     14  C8A       22.2860  130.5480   -8.7250 C.3   300  NAP300      0.3377
     15  N7A       21.5760  130.9620   -9.8080 N.2   300  NAP300     -0.2095
     16  C5A       20.4370  131.4880   -9.3190 C.2   300  NAP300      0.2526
     17  C6A       19.3220  132.0180   -9.9630 C.2   300  NAP300      0.4393
     18  N6A       19.3240  132.1150  -11.3160 N.pl3 300  NAP300      0.2180
     19  N1A       18.3140  132.4780   -9.2350 N.2   300  NAP300      0.0021
     20  C2A       18.3380  132.3500   -7.8780 C.3   300  NAP300      0.5254
     21  N3A       19.3920  131.8110   -7.2100 N.2   300  NAP300     -0.0055
     22  C4A       20.4550  131.4050   -7.9360 C.2   300  NAP300      0.3518
     23  O3        28.3230  128.9570   -4.6250 O.3   300  NAP300     -0.2703
     24  PN        29.2460  129.5810   -3.4850 P.3   300  NAP300      0.2189
     25  O1N       30.3480  128.6060   -3.3040 O.2   300  NAP300     -0.5170
     26  O2N       28.4340  130.0210   -2.3200 O.3   300  NAP300     -0.4371
     27  O5D       29.8650  130.8530   -4.2430 O.3   300  NAP300     -0.3112
     28  C5D       29.0220  131.7800   -4.8740 C.3   300  NAP300      0.1813
     29  C4D       29.8230  132.8490   -5.5950 C.3   300  NAP300      0.1799
     30  O4D       30.5940  133.6720   -4.7010 O.3   300  NAP300     -0.3327
     31  C3D       30.8090  132.2510   -6.5810 C.3   300  NAP300      0.2158
     32  O3D       30.7460  133.0820   -7.7470 O.3   300  NAP300     -0.2175
     33  C2D       32.1710  132.3620   -5.8850 C.3   300  NAP300      0.2309
     34  O2D       33.2470  132.4930   -6.8090 O.3   300  NAP300     -0.2158
     35  C1D       31.9990  133.6480   -5.1040 C.3   300  NAP300      0.2263
     36  N1N       32.7650  133.7850   -3.8770 N.pl3 300  NAP300     -0.2787
     37  C2N       33.2070  134.9960   -3.6230 C.3   300  NAP300      0.1244
     38  C3N       33.8730  135.2930   -2.4620 C.2   300  NAP300      0.0544
     39  C7N       34.3480  136.6960   -2.2860 C.2   300  NAP300      0.2818
     40  O7N       35.0110  137.0120   -1.1930 O.2   300  NAP300     -0.2670
     41  N7N       34.0540  137.6410   -3.2030 N.am  300  NAP300     -0.0839
     42  C4N       34.0580  134.3170   -1.5020 C.2   300  NAP300      0.0033
     43  C5N       33.5420  133.0510   -1.7380 C.2   300  NAP300      0.0157
     44  C6N       32.8820  132.7970   -2.9550 C.2   300  NAP300      0.0633
     45  P2B       20.4980  126.8570   -6.3870 P.3   300  NAP300      0.5328
     46  O1X       18.9910  127.0290   -6.5150 O.3   300  NAP300     -0.1145
     47  O2X       21.0000  125.9690   -5.2910 O.3   300  NAP300     -0.1145
     48  O3X       21.2190  126.6430   -7.7080 O.2   300  NAP300     -0.2224
@<TRIPOS>BOND
     1    18    17    1
     2    17    16    1
     3    17    19    2
     4    15    16    2
     5    15    14    1
     6    16    22    1
     7    19    20    1
     8    14    13    1
     9    22    13    1
    10    22    21    2
    11    20    21    1
    12    32    31    1
    13    48    45    2
    14    13    12    1
    15    34    33    1
    16    31    33    1
    17    31    29    1
    18    46    45    1
    19    45    11    1
    20    45    47    1
    21    12    10    1
    22    12     7    1
    23    10    11    1
    24    10     8    1
    25     7     6    1
    26    33    35    1
    27     2     1    2
    28    29    28    1
    29    29    30    1
    30     5     6    1
    31     5     4    1
    32    35    30    1
    33    35    36    1
    34     6     8    1
    35    28    27    1
    36     8     9    1
    37    23     1    1
    38    23    24    1
    39     1     4    1
    40     1     3    1
    41    27    24    1
    42    36    37    1
    43    36    44    1
    44    37    38    1
    45    24    25    2
    46    24    26    1
    47    41    39   am
    48    44    43    2
    49    38    39    1
    50    38    42    2
    51    39    40    2
    52    43    42    1
