@<TRIPOS>MOLECULE
3ijq_DGL_A_1.pdb
 10 9 0 0 0
SMALL
GASTEIGER

@<TRIPOS>ATOM
      1  N         32.5480   19.3670    7.0550 N.3   385  DGL385     -0.1208
      2  CA        32.5920   19.0320    5.6220 C.3   385  DGL385      0.1949
      3  C         33.8860   18.3020    5.2320 C.2   385  DGL385      0.3819
      4  O         34.2190   18.3350    4.0270 O.co2 385  DGL385     -0.2441
      5  CB        31.3640   18.1930    5.2840 C.3   385  DGL385      0.0424
      6  CG        30.2410   19.0230    4.6830 C.3   385  DGL385      0.1161
      7  CD        28.8450   18.4920    4.9170 C.2   385  DGL385      0.3649
      8  OE1       28.1210   18.2730    3.9280 O.co2 385  DGL385     -0.2457
      9  OE2       28.4650   18.3050    6.0930 O.co2 385  DGL385     -0.2457
     10  OXT       34.5540   17.7240    6.1070 O.co2 385  DGL385     -0.2441
@<TRIPOS>BOND
     1     8     7   ar
     2     4     3   ar
     3     6     7    1
     4     6     5    1
     5     7     9   ar
     6     3     2    1
     7     3    10   ar
     8     5     2    1
     9     2     1    1
