@<TRIPOS>MOLECULE
3ijr_NAD_A_1.pdb
 44 48 0 0 0
SMALL
GASTEIGER

@<TRIPOS>ATOM
      1  PA        -1.8570   40.3360  -63.2630 P.3   301  NAD301      0.2189
      2  O1A       -0.9830   40.2080  -62.0610 O.3   301  NAD301     -0.4371
      3  O2A       -1.1460   40.5360  -64.5410 O.2   301  NAD301     -0.5170
      4  O5B       -2.9150   41.5090  -63.0310 O.3   301  NAD301     -0.3112
      5  C5B       -3.3260   41.7810  -61.7100 C.3   301  NAD301      0.1813
      6  C4B       -2.9480   43.2070  -61.3570 C.3   301  NAD301      0.1821
      7  O4B       -3.5750   43.6280  -60.1730 O.3   301  NAD301     -0.3135
      8  C3B       -1.4420   43.3600  -61.1260 C.3   301  NAD301      0.2184
      9  O3B       -0.7970   43.6360  -62.3450 O.3   301  NAD301     -0.2174
     10  C2B       -1.3610   44.4580  -60.0710 C.3   301  NAD301      0.2570
     11  O2B       -0.7990   45.6700  -60.5200 O.3   301  NAD301     -0.2130
     12  C1B       -2.8100   44.7060  -59.6640 C.3   301  NAD301      0.3186
     13  N9A       -2.8850   44.8460  -58.2060 N.pl3 301  NAD301     -0.1439
     14  C8A       -2.7730   43.8480  -57.2780 C.3   301  NAD301      0.3377
     15  N7A       -2.8920   44.3950  -56.0590 N.2   301  NAD301     -0.2095
     16  C5A       -3.0450   45.7270  -56.1870 C.2   301  NAD301      0.2526
     17  C6A       -3.1830   46.7400  -55.2630 C.2   301  NAD301      0.4393
     18  N6A       -2.9980   46.4960  -53.9760 N.pl3 301  NAD301      0.2180
     19  N1A       -3.3160   48.0300  -55.7010 N.2   301  NAD301      0.0021
     20  C2A       -3.3200   48.3130  -57.0390 C.3   301  NAD301      0.5254
     21  N3A       -3.1650   47.3030  -57.9560 N.2   301  NAD301     -0.0055
     22  C4A       -3.0380   46.0280  -57.5350 C.2   301  NAD301      0.3518
     23  O3        -2.7110   38.9480  -63.3010 O.3   301  NAD301     -0.2703
     24  PN        -4.0320   38.6870  -64.1880 P.3   301  NAD301      0.2189
     25  O1N       -4.2240   37.2080  -64.1500 O.3   301  NAD301     -0.4371
     26  O2N       -3.9110   39.3250  -65.4960 O.2   301  NAD301     -0.5170
     27  O5D       -5.1490   39.4330  -63.3100 O.3   301  NAD301     -0.3112
     28  C5D       -6.1390   40.2570  -63.9000 C.3   301  NAD301      0.1813
     29  C4D       -7.5590   39.7880  -63.5710 C.3   301  NAD301      0.1799
     30  O4D       -7.7520   38.4940  -64.1290 O.3   301  NAD301     -0.3327
     31  C3D       -7.8370   39.6730  -62.0670 C.3   301  NAD301      0.2158
     32  O3D       -9.0530   40.3030  -61.6770 O.3   301  NAD301     -0.2175
     33  C2D       -7.8930   38.1730  -61.8300 C.3   301  NAD301      0.2309
     34  O2D       -8.6670   37.8110  -60.7000 O.3   301  NAD301     -0.2158
     35  C1D       -8.4800   37.7430  -63.1670 C.3   301  NAD301      0.2263
     36  N1N       -8.4180   36.3010  -63.4440 N.pl3 301  NAD301     -0.2787
     37  C2N       -7.2490   35.7200  -63.8240 C.3   301  NAD301      0.1244
     38  C3N       -7.1770   34.3720  -64.1080 C.2   301  NAD301      0.0544
     39  C7N       -5.8440   33.7500  -64.4380 C.2   301  NAD301      0.2818
     40  O7N       -4.7250   34.5550  -64.7470 O.2   301  NAD301     -0.2670
     41  N7N       -5.7100   32.4370  -64.4500 N.am  301  NAD301     -0.0839
     42  C4N       -8.3380   33.6030  -63.9950 C.2   301  NAD301      0.0033
     43  C5N       -9.5300   34.2130  -63.6020 C.2   301  NAD301      0.0157
     44  C6N       -9.5700   35.5740  -63.3370 C.2   301  NAD301      0.0633
@<TRIPOS>BOND
     1    26    24    2
     2    40    39    2
     3     3     1    2
     4    41    39   am
     5    39    38    1
     6    24    25    1
     7    24    27    1
     8    24    23    1
     9    30    29    1
    10    30    35    1
    11    38    42    2
    12    38    37    1
    13    42    43    1
    14    28    29    1
    15    28    27    1
    16    37    36    1
    17    43    44    2
    18    29    31    1
    19    36    44    1
    20    36    35    1
    21    23     1    1
    22     1     4    1
    23     1     2    1
    24    35    33    1
    25     4     5    1
    26     9     8    1
    27    31    33    1
    28    31    32    1
    29    33    34    1
    30     5     6    1
    31     6     8    1
    32     6     7    1
    33     8    10    1
    34    11    10    1
    35     7    12    1
    36    10    12    1
    37    12    13    1
    38    13    22    1
    39    13    14    1
    40    21    22    2
    41    21    20    1
    42    22    16    1
    43    14    15    1
    44    20    19    1
    45    16    15    2
    46    16    17    1
    47    19    17    2
    48    17    18    1
