@<TRIPOS>MOLECULE
3ijs_KDO_A_1.pdb
 15 15 0 0 0
SMALL
GASTEIGER

@<TRIPOS>ATOM
      1  C1         9.6560   -0.3380   -0.0120 C.2   303  KDO303      0.3914
      2  O1A        8.7440   -0.9160    0.6570 O.co2 303  KDO303     -0.2430
      3  O1B       10.8770   -0.3500    0.2680 O.co2 303  KDO303     -0.2430
      4  C2         9.2460    0.4530   -1.2810 C.3   303  KDO303      0.2204
      5  C3         8.8750    1.8840   -0.7410 C.3   303  KDO303      0.0769
      6  C4         8.7720    2.9250   -1.8780 C.3   303  KDO303      0.1877
      7  O4         8.6120    4.2400   -1.3310 O.3   303  KDO303     -0.2202
      8  C5         9.9660    2.8650   -2.8430 C.3   303  KDO303      0.2117
      9  O5        11.1330    3.1690   -2.1320 O.3   303  KDO303     -0.2177
     10  C6        10.1400    1.4410   -3.3540 C.3   303  KDO303      0.1814
     11  O6        10.3300    0.5320   -2.2240 O.3   303  KDO303     -0.3421
     12  C7        11.3830    1.1630   -4.1800 C.3   303  KDO303      0.2142
     13  O7        11.7320    2.2010   -5.0920 O.3   303  KDO303     -0.2176
     14  C8        11.1360   -0.0960   -4.9840 C.3   303  KDO303      0.2174
     15  O8        12.3940   -0.4560   -5.5610 O.3   303  KDO303     -0.2175
@<TRIPOS>BOND
     1    15    14    1
     2    13    12    1
     3    14    12    1
     4    12    10    1
     5    10     8    1
     6    10    11    1
     7     8     9    1
     8     8     6    1
     9    11     4    1
    10     6     7    1
    11     6     5    1
    12     4     5    1
    13     4     1    1
    14     1     3   ar
    15     1     2   ar
