@<TRIPOS>MOLECULE
3ijw_ACO_A_1.pdb
 48 50 0 0 0
SMALL
GASTEIGER

@<TRIPOS>ATOM
      1  N1A       21.1230    8.3630   14.8560 N.2   266  ACO266      0.0021
      2  C2A       21.9300    8.1860   13.8480 C.3   266  ACO266      0.5254
      3  N3A       22.1090    7.0760   13.2170 N.2   266  ACO266     -0.0055
      4  C4A       21.4330    6.0020   13.5910 C.2   266  ACO266      0.3518
      5  C5A       20.4870    6.0950   14.6880 C.2   266  ACO266      0.2526
      6  C6A       20.3710    7.3890   15.3400 C.2   266  ACO266      0.4393
      7  N6A       19.5490    7.6150   16.3610 N.pl3 266  ACO266      0.2180
      8  N7A       19.9610    4.9110   14.8230 N.2   266  ACO266     -0.2095
      9  C8A       20.5100    4.1270   13.9030 C.3   266  ACO266      0.3377
     10  N9A       21.4010    4.7760   13.1740 N.pl3 266  ACO266     -0.1439
     11  C1B       22.1930    4.2830   12.0390 C.3   266  ACO266      0.3185
     12  C2B       22.6790    2.8600   12.0270 C.3   266  ACO266      0.2543
     13  O2B       24.0200    3.0960   11.7780 O.3   266  ACO266     -0.2131
     14  C3B       22.2680    2.2460   10.6960 C.3   266  ACO266      0.1928
     15  O3B       21.3880    1.1860   10.7810 O.3   266  ACO266     -0.2673
     16  P3B       21.6320   -0.3490   10.9950 P.3   266  ACO266      0.5327
     17  O7A       22.9750   -0.6560   10.4730 O.3   266  ACO266     -0.1145
     18  O8A       21.4420   -0.5190   12.4450 O.3   266  ACO266     -0.1145
     19  O9A       20.5280   -0.8710   10.2310 O.2   266  ACO266     -0.2224
     20  C4B       21.5850    3.4030    9.9840 C.3   266  ACO266      0.1795
     21  O4B       21.4190    4.4240   10.8930 O.3   266  ACO266     -0.3136
     22  C5B       20.2850    3.1820    9.2500 C.3   266  ACO266      0.1812
     23  O5B       20.1260    4.2870    8.3680 O.3   266  ACO266     -0.3112
     24  P1A       19.9100    4.1450    6.8340 P.3   266  ACO266      0.2189
     25  O1A       18.9480    3.0800    6.7000 O.3   266  ACO266     -0.4371
     26  O2A       19.6910    5.4150    6.2180 O.2   266  ACO266     -0.5170
     27  O3A       21.2420    3.5100    6.3120 O.3   266  ACO266     -0.2703
     28  P2A       22.6600    4.1390    6.0470 P.3   266  ACO266      0.2188
     29  O4A       23.6570    3.0830    6.1660 O.2   266  ACO266     -0.5170
     30  O5A       22.7950    5.3250    6.8140 O.3   266  ACO266     -0.4371
     31  O6A       22.6100    4.4240    4.5160 O.3   266  ACO266     -0.3138
     32  CBP       21.5000    3.8310    2.4320 C.3   266  ACO266      0.0645
     33  CCP       22.3780    3.3940    3.6000 C.3   266  ACO266      0.1519
     34  CDP       20.1510    4.1000    3.0150 C.3   266  ACO266      0.0056
     35  CEP       21.4220    2.7210    1.4010 C.3   266  ACO266      0.0056
     36  CAP       21.9780    5.1110    1.7710 C.3   266  ACO266      0.2312
     37  OAP       23.3250    4.9950    1.4360 O.3   266  ACO266     -0.2131
     38  C9P       21.2300    5.4430    0.5250 C.2   266  ACO266      0.2719
     39  O9P       21.6400    5.0660   -0.5080 O.2   266  ACO266     -0.2706
     40  N8P       20.1150    6.1190    0.6500 N.am  266  ACO266     -0.2028
     41  C7P       19.3300    6.6690   -0.4120 C.3   266  ACO266      0.1248
     42  C6P       18.3010    5.7080   -0.9380 C.3   266  ACO266      0.1102
     43  C5P       17.4250    6.2990   -2.0100 C.2   266  ACO266      0.2432
     44  O5P       16.6810    7.2250   -1.8340 O.2   266  ACO266     -0.2733
     45  N4P       17.5700    5.6230   -3.1160 N.am  266  ACO266     -0.2044
     46  C3P       17.2700    6.1310   -4.3910 C.3   266  ACO266      0.1276
     47  C2P       17.3510    4.9570   -5.3260 C.3   266  ACO266      0.0920
     48  S1P       16.5220    5.3400   -6.8150 S.3   266  ACO266     -0.0802
@<TRIPOS>BOND
     1    48    47    1
     2    47    46    1
     3    46    45    1
     4    45    43   am
     5    43    44    2
     6    43    42    1
     7    42    41    1
     8    39    38    2
     9    41    40    1
    10    38    40   am
    11    38    36    1
    12    35    32    1
    13    37    36    1
    14    36    32    1
    15    32    34    1
    16    32    33    1
    17    33    31    1
    18    31    28    1
    19    28    29    2
    20    28    27    1
    21    28    30    1
    22    26    24    2
    23    27    24    1
    24    25    24    1
    25    24    23    1
    26    23    22    1
    27    22    20    1
    28    20    14    1
    29    20    21    1
    30    19    16    2
    31    17    16    1
    32    14    15    1
    33    14    12    1
    34    15    16    1
    35    21    11    1
    36    16    18    1
    37    13    12    1
    38    12    11    1
    39    11    10    1
    40    10     4    1
    41    10     9    1
    42     3     4    2
    43     3     2    1
    44     4     5    1
    45     2     1    1
    46     9     8    1
    47     5     8    2
    48     5     6    1
    49     1     6    2
    50     6     7    1
