@<TRIPOS>MOLECULE
3ijx_HCZ_B_1.pdb
 17 18 0 0 0
SMALL
GASTEIGER

@<TRIPOS>ATOM
      1  N01        6.9850  -54.9530  -27.5270 N.3   800  HCZ800      0.0392
      2  S02        5.7660  -53.7500  -27.4410 S.O2  800  HCZ800      0.0941
      3  O03        6.4410  -52.2560  -27.6930 O.2   800  HCZ800     -0.1503
      4  O04        5.0570  -53.7880  -25.9430 O.2   800  HCZ800     -0.1503
      5  C05        4.5040  -54.0700  -28.7210 C.2   800  HCZ800      0.1333
      6  C06        3.3170  -54.7520  -28.3840 C.2   800  HCZ800      0.0417
      7  C07        2.3320  -55.0030  -29.3800 C.2   800  HCZ800      0.1384
      8  C08        2.5380  -54.5790  -30.6710 C.2   800  HCZ800      0.0793
      9  C09        3.7440  -53.8850  -31.0130 C.3   800  HCZ800      0.0860
     10  C10        4.7130  -53.6390  -30.0350 C.2   800  HCZ800      0.0601
     11 CL11        6.2410  -52.8310  -30.4780 Cl    800  HCZ800     -0.0851
     12  N12        1.5130  -54.8410  -31.6990 N.2   800  HCZ800     -0.2519
     13  C13        0.8700  -56.2020  -31.8150 C.3   800  HCZ800      0.2394
     14  N14        0.2970  -56.6170  -30.4420 N.3   800  HCZ800     -0.0507
     15  S15        0.8840  -55.8280  -28.9960 S.O2  800  HCZ800      0.0798
     16  O16        1.1390  -56.8260  -27.9570 O.2   800  HCZ800     -0.1515
     17  O17       -0.1160  -54.8690  -28.5190 O.2   800  HCZ800     -0.1515
@<TRIPOS>BOND
     1    13    12    1
     2    13    14    1
     3    12     8    2
     4     9     8    1
     5     9    10    1
     6     8     7    1
     7    11    10    1
     8    14    15    1
     9    10     5    2
    10     7    15    1
    11     7     6    2
    12    15    17    2
    13    15    16    2
    14     5     6    1
    15     5     2    1
    16     3     2    2
    17     1     2    1
    18     2     4    2
