@<TRIPOS>MOLECULE
3ijx_GLU_B_1.pdb
 10 9 0 0 0
SMALL
GASTEIGER

@<TRIPOS>ATOM
      1  N          4.2170  -38.1060  -27.1840 N.3   400  GLU400     -0.1208
      2  CA         3.6290  -37.7280  -25.9050 C.3   400  GLU400      0.1949
      3  C          2.1340  -37.9910  -25.9140 C.2   400  GLU400      0.3819
      4  O          1.4260  -37.5890  -25.0030 O.co2 400  GLU400     -0.2441
      5  CB         3.9000  -36.2570  -25.5980 C.3   400  GLU400      0.0424
      6  CG         5.3520  -35.8330  -25.7780 C.3   400  GLU400      0.1161
      7  CD         6.2020  -36.1550  -24.5660 C.2   400  GLU400      0.3649
      8  OE1        7.3680  -36.6040  -24.7370 O.co2 400  GLU400     -0.2457
      9  OE2        5.6810  -35.9730  -23.4420 O.co2 400  GLU400     -0.2457
     10  OXT        1.5890  -38.6060  -26.8240 O.co2 400  GLU400     -0.2441
@<TRIPOS>BOND
     1     1     2    1
     2    10     3   ar
     3     3     2    1
     4     3     4   ar
     5     2     5    1
     6     6     5    1
     7     6     7    1
     8     8     7   ar
     9     7     9   ar
