@<TRIPOS>MOLECULE
3ijy_KDO_B_1.pdb
 15 15 0 0 0
SMALL
GASTEIGER

@<TRIPOS>ATOM
      1  C1         9.7480    0.2110   77.2900 C.2   303  KDO303      0.3914
      2  O1A        8.7870    0.8210   76.7740 O.co2 303  KDO303     -0.2430
      3  O1B       10.9310    0.2440   76.8920 O.co2 303  KDO303     -0.2430
      4  C2         9.4460   -0.6780   78.5090 C.3   303  KDO303      0.2204
      5  C3         9.1100   -2.0870   78.0130 C.3   303  KDO303      0.0769
      6  C4         8.8380   -2.9640   79.2320 C.3   303  KDO303      0.1877
      7  O4         8.5510   -4.2960   78.8140 O.3   303  KDO303     -0.2202
      8  C5        10.0800   -2.9810   80.1050 C.3   303  KDO303      0.2117
      9  O5        11.1830   -3.4770   79.3460 O.3   303  KDO303     -0.2177
     10  C6        10.4050   -1.5580   80.5470 C.3   303  KDO303      0.1814
     11  O6        10.6070   -0.7320   79.3690 O.3   303  KDO303     -0.3421
     12  C7        11.6610   -1.5880   81.4270 C.3   303  KDO303      0.2142
     13  O7        11.4520   -2.4260   82.5690 O.3   303  KDO303     -0.2176
     14  C8        12.0530   -0.1770   81.8770 C.3   303  KDO303      0.2174
     15  O8        10.9830    0.4240   82.6010 O.3   303  KDO303     -0.2175
@<TRIPOS>BOND
     1     2     1   ar
     2     3     1   ar
     3     1     4    1
     4     5     4    1
     5     5     6    1
     6     4    11    1
     7     7     6    1
     8     6     8    1
     9     9     8    1
    10    11    10    1
    11     8    10    1
    12    10    12    1
    13    12    14    1
    14    12    13    1
    15    14    15    1
