@<TRIPOS>MOLECULE
3ijz_15C_A_1.pdb
 21 23 0 0 0
SMALL
GASTEIGER

@<TRIPOS>ATOM
      1  C1        29.8970   -9.0770   30.1890 C.ar  468  15C468     -0.0173
      2  C2        29.6850   -9.5840   31.4590 C.ar  468  15C468     -0.0041
      3  C3        28.5390  -10.3410   31.7390 C.ar  468  15C468     -0.0002
      4  C4        27.5210  -10.6460   30.8260 C.ar  468  15C468      0.0047
      5  C5        27.6580  -10.1770   29.5440 C.ar  468  15C468      0.0584
      6  C6        28.8520   -9.3750   29.1730 C.ar  468  15C468      0.0547
      7  C7        28.6100   -9.0780   27.7390 C.2   468  15C468      0.2586
      8  C8        26.8470  -10.2730   28.2990 C.2   468  15C468      0.2589
      9  N9        27.4630   -9.6220   27.2840 N.am  468  15C468     -0.2011
     10  C10       31.1220   -8.2640   29.8620 C.3   468  15C468      0.0312
     11  O11       29.4440   -8.3880   27.0470 O.2   468  15C468     -0.2692
     12  O12       25.7300  -10.9020   28.2390 O.2   468  15C468     -0.2691
     13  C13       27.0390   -9.4570   26.0050 C.ar  468  15C468      0.0612
     14  C14       26.6080  -10.4870   25.1570 C.ar  468  15C468      0.0154
     15  C15       26.2020  -10.2430   23.8390 C.ar  468  15C468      0.0041
     16  C16       26.2030   -8.9470   23.3070 C.ar  468  15C468      0.0348
     17  C17       26.6280   -7.9000   24.1140 C.ar  468  15C468      0.0041
     18  C18       27.0270   -8.1740   25.4180 C.ar  468  15C468      0.0154
     19  C19       25.7630   -8.6450   21.8940 C.2   468  15C468      0.1735
     20  C20       24.3930   -9.0450   21.4100 C.3   468  15C468      0.0773
     21  O21       26.5340   -8.0470   21.1550 O.2   468  15C468     -0.2913
@<TRIPOS>BOND
     1    21    19    2
     2    20    19    1
     3    19    16    1
     4    16    15   ar
     5    16    17   ar
     6    15    14   ar
     7    17    18   ar
     8    14    13   ar
     9    18    13   ar
    10    13     9    1
    11    11     7    2
    12     9     7   am
    13     9     8   am
    14     7     6    1
    15    12     8    2
    16     8     5    1
    17     6     5   ar
    18     6     1   ar
    19     5     4   ar
    20    10     1    1
    21     1     2   ar
    22     4     3   ar
    23     2     3   ar
