@<TRIPOS>MOLECULE
3ijz_UMP_A_1.pdb
 20 21 0 0 0
SMALL
GASTEIGER

@<TRIPOS>ATOM
      1  N1        31.4010   -9.6140   24.0920 N.am  469  UMP469     -0.1790
      2  C2        32.5300   -9.8580   24.9170 C.1   469  UMP469      0.2844
      3  N3        32.4350  -10.8290   25.8830 N.2   469  UMP469     -0.2452
      4  C4        31.2640  -11.5420   26.0760 C.1   469  UMP469      0.2182
      5  C5        30.1570  -11.3050   25.2880 C.2   469  UMP469      0.1242
      6  C6        30.2500  -10.3270   24.3160 C.2   469  UMP469      0.0928
      7  O2        33.6220   -9.2910   24.8730 O.2   469  UMP469     -0.1918
      8  O4        31.1730  -12.4090   26.9460 O.2   469  UMP469     -0.2085
      9  C1'       31.2140   -8.6130   22.9930 C.3   469  UMP469      0.2090
     10  C2'       32.0390   -8.7540   21.7230 C.3   469  UMP469      0.0874
     11  C3'       31.1230   -8.1840   20.6430 C.3   469  UMP469      0.1857
     12  C4'       29.7380   -8.5510   21.1030 C.3   469  UMP469      0.1774
     13  O3'       31.1700   -6.7660   20.6020 O.3   469  UMP469     -0.2203
     14  O4'       29.8680   -8.7190   22.5150 O.3   469  UMP469     -0.3339
     15  C5'       29.2140   -9.7990   20.3790 C.3   469  UMP469      0.1858
     16  O5'       28.3640   -9.4450   19.2840 O.3   469  UMP469     -0.2675
     17  P         28.3730  -10.3280   17.9460 P.3   469  UMP469      0.5327
     18  OP1       27.6270   -9.7510   16.8230 O.2   469  UMP469     -0.2224
     19  OP2       27.7580  -11.6190   18.3310 O.3   469  UMP469     -0.1145
     20  OP3       29.8170  -10.3710   17.6470 O.3   469  UMP469     -0.1145
@<TRIPOS>BOND
     1    18    17    2
     2    20    17    1
     3    17    19    1
     4    17    16    1
     5    16    15    1
     6    15    12    1
     7    13    11    1
     8    11    12    1
     9    11    10    1
    10    12    14    1
    11    10     9    1
    12    14     9    1
    13     9     1    1
    14     1     6    1
    15     1     2   am
    16     6     5    2
    17     7     2    2
    18     2     3    2
    19     5     4    1
    20     3     4    2
    21     4     8    2
