@<TRIPOS>MOLECULE
3ik0_7C1_A_1.pdb
 21 23 0 0 0
SMALL
GASTEIGER

@<TRIPOS>ATOM
      1  C1       -29.8770    9.1300   30.5430 C.ar  500  7C1500     -0.0173
      2  C2       -29.8970    9.8250   31.7420 C.ar  500  7C1500     -0.0041
      3  C3       -29.0000   10.8730   31.9910 C.ar  500  7C1500     -0.0002
      4  C4       -28.0200   11.3100   31.0940 C.ar  500  7C1500      0.0047
      5  C5       -27.9310   10.6690   29.8730 C.ar  500  7C1500      0.0584
      6  C6       -28.8580    9.5490   29.5390 C.ar  500  7C1500      0.0547
      7  C7       -28.4200    9.1670   28.1620 C.2   500  7C1500      0.2586
      8  C8       -27.0530   10.8270   28.6690 C.2   500  7C1500      0.2589
      9  N9       -27.3910    9.9250   27.7230 N.am  500  7C1500     -0.2011
     10  N20      -23.8270    9.9930   22.2860 N.pl3 500  7C1500      0.2047
     11  O10      -28.9730    8.2160   27.4940 O.2   500  7C1500     -0.2692
     12  C21      -30.8490    8.0090   30.3020 C.3   500  7C1500      0.0312
     13  O11      -26.1100   11.7030   28.5620 O.2   500  7C1500     -0.2691
     14  C12      -26.8100    9.8020   26.5070 C.ar  500  7C1500      0.0612
     15  C13      -26.4800    8.5540   25.9490 C.ar  500  7C1500      0.0156
     16  C14      -25.8930    8.4040   24.6940 C.ar  500  7C1500      0.0093
     17  C15      -25.6070    9.5280   23.9240 C.ar  500  7C1500      0.0976
     18  C16      -25.9220   10.7870   24.4330 C.ar  500  7C1500      0.0093
     19  C17      -26.5140   10.9090   25.6910 C.ar  500  7C1500      0.0156
     20  C18      -24.9680    9.3700   22.5690 C.2   500  7C1500      0.4766
     21  N19      -25.5010    8.6450   21.6900 N.pl3 500  7C1500      0.2047
@<TRIPOS>BOND
     1    21    20    2
     2    10    20    1
     3    20    17    1
     4    17    18   ar
     5    17    16   ar
     6    18    19   ar
     7    16    15   ar
     8    19    14   ar
     9    15    14   ar
    10    14     9    1
    11    11     7    2
    12     9     7   am
    13     9     8   am
    14     7     6    1
    15    13     8    2
    16     8     5    1
    17     6     5   ar
    18     6     1   ar
    19     5     4   ar
    20    12     1    1
    21     1     2   ar
    22     4     3   ar
    23     2     3   ar
