@<TRIPOS>MOLECULE
3ik0_UMP_A_1.pdb
 20 21 0 0 0
SMALL
GASTEIGER

@<TRIPOS>ATOM
      1  N1       -30.9700   10.0340   24.4060 N.am  501  UMP501     -0.1790
      2  C2       -32.2180   10.0830   25.0600 C.1   501  UMP501      0.2844
      3  N3       -32.4370   11.0220   26.0380 N.2   501  UMP501     -0.2452
      4  C4       -31.4370   11.9070   26.3870 C.1   501  UMP501      0.2182
      5  C5       -30.2040   11.8720   25.7600 C.2   501  UMP501      0.1242
      6  C6       -29.9910   10.9240   24.7720 C.2   501  UMP501      0.0928
      7  O2       -33.1700    9.3450   24.8300 O.2   501  UMP501     -0.1918
      8  O4       -31.6280   12.7320   27.2620 O.2   501  UMP501     -0.2085
      9  C1'      -30.5690    9.0790   23.3340 C.3   501  UMP501      0.2090
     10  C2'      -31.3580    9.2240   22.0430 C.3   501  UMP501      0.0874
     11  C3'      -30.3830    8.7340   20.9900 C.3   501  UMP501      0.1857
     12  C4'      -29.0070    9.0420   21.5500 C.3   501  UMP501      0.1774
     13  O3'      -30.4930    7.3340   20.8470 O.3   501  UMP501     -0.2203
     14  O4'      -29.2060    9.2760   22.9460 O.3   501  UMP501     -0.3339
     15  C5'      -28.3540   10.2200   20.8140 C.3   501  UMP501      0.1858
     16  O5'      -27.8650    9.8460   19.5270 O.3   501  UMP501     -0.2675
     17  P        -27.9890   10.8160   18.2500 P.3   501  UMP501      0.5327
     18  OP1      -27.4290   10.1930   17.0220 O.2   501  UMP501     -0.2224
     19  OP2      -27.2370   12.0740   18.5830 O.3   501  UMP501     -0.1145
     20  OP3      -29.4180   11.0780   18.0500 O.3   501  UMP501     -0.1145
@<TRIPOS>BOND
     1    18    17    2
     2    20    17    1
     3    17    19    1
     4    17    16    1
     5    16    15    1
     6    15    12    1
     7    13    11    1
     8    11    12    1
     9    11    10    1
    10    12    14    1
    11    10     9    1
    12    14     9    1
    13     9     1    1
    14     1     6    1
    15     1     2   am
    16     6     5    2
    17     7     2    2
    18     2     3    2
    19     5     4    1
    20     3     4    2
    21     4     8    2
