@<TRIPOS>MOLECULE
3ik1_UMP_A_1.pdb
 20 21 0 0 0
SMALL
GASTEIGER

@<TRIPOS>ATOM
      1  N1       -31.3990    9.8930   23.9020 N.am  491  UMP491     -0.1790
      2  C2       -32.6050    9.7420   24.6450 C.1   491  UMP491      0.2844
      3  N3       -32.8720   10.5580   25.7090 N.2   491  UMP491     -0.2452
      4  C4       -31.9430   11.5090   26.0590 C.1   491  UMP491      0.2182
      5  C5       -30.7560   11.6690   25.3780 C.2   491  UMP491      0.1242
      6  C6       -30.4980   10.8410   24.3060 C.2   491  UMP491      0.0928
      7  O2       -33.4990    8.9360   24.4320 O.2   491  UMP491     -0.1918
      8  O4       -32.1510   12.2370   27.0060 O.2   491  UMP491     -0.2085
      9  C1'      -30.9230    9.0710   22.7360 C.3   491  UMP491      0.2090
     10  C2'      -31.6050    9.2340   21.3910 C.3   491  UMP491      0.0874
     11  C3'      -30.6000    8.5150   20.4870 C.3   491  UMP491      0.1857
     12  C4'      -29.2410    8.7870   21.0910 C.3   491  UMP491      0.1774
     13  O3'      -30.7550    7.1090   20.5650 O.3   491  UMP491     -0.2203
     14  O4'      -29.5440    9.2860   22.3960 O.3   491  UMP491     -0.3339
     15  C5'      -28.3780    9.7540   20.2560 C.3   491  UMP491      0.1858
     16  O5'      -28.0610    9.3640   18.9060 O.3   491  UMP491     -0.2675
     17  P        -28.3180   10.4630   17.7730 P.3   491  UMP491      0.5327
     18  OP1      -27.5560   10.2820   16.5430 O.2   491  UMP491     -0.2224
     19  OP2      -27.8840   11.7070   18.4560 O.3   491  UMP491     -0.1145
     20  OP3      -29.7600   10.4450   17.5830 O.3   491  UMP491     -0.1145
@<TRIPOS>BOND
     1    18    17    2
     2    20    17    1
     3    17    19    1
     4    17    16    1
     5    16    15    1
     6    15    12    1
     7    11    13    1
     8    11    12    1
     9    11    10    1
    10    12    14    1
    11    10     9    1
    12    14     9    1
    13     9     1    1
    14     1     6    1
    15     1     2   am
    16     6     5    2
    17     7     2    2
    18     2     3    2
    19     5     4    1
    20     3     4    2
    21     4     8    2
