@<TRIPOS>MOLECULE
3ik1_20C_A_1.pdb
 22 24 0 0 0
SMALL
GASTEIGER

@<TRIPOS>ATOM
      1  C1       -30.0980    8.7080   30.2130 C.ar  490  20C490     -0.0173
      2  C2       -30.0070    9.1290   31.5260 C.ar  490  20C490     -0.0041
      3  C3       -28.9900   10.0080   31.9110 C.ar  490  20C490     -0.0002
      4  C4       -27.9930   10.5320   31.0760 C.ar  490  20C490      0.0047
      5  C5       -28.0130   10.1590   29.7570 C.ar  490  20C490      0.0584
      6  C6       -29.0730    9.2330   29.2670 C.ar  490  20C490      0.0547
      7  C7       -27.1760   10.4770   28.5660 C.2   490  20C490      0.2589
      8  N8       -27.6470    9.8240   27.4760 N.am  490  20C490     -0.2010
      9  C9       -28.7360    9.1070   27.8220 C.2   490  20C490      0.2586
     10  C10      -27.1740    9.8680   26.2080 C.ar  490  20C490      0.0644
     11  O11      -29.4200    8.3750   27.0190 O.2   490  20C490     -0.2692
     12  O12      -26.1550   11.2470   28.6070 O.2   490  20C490     -0.2691
     13  C13      -31.1910    7.7670   29.7930 C.3   490  20C490      0.0312
     14  C14      -26.6210   11.0280   25.6520 C.ar  490  20C490      0.0158
     15  C15      -26.1420   11.1170   24.3440 C.ar  490  20C490      0.0111
     16  C16      -26.2030   10.0230   23.4810 C.ar  490  20C490      0.1186
     17  C17      -26.7900    8.7700   24.0220 C.ar  490  20C490      0.2033
     18  C18      -27.2410    8.7630   25.3380 C.ar  490  20C490      0.0576
     19  O19      -26.8910    7.6470   23.2540 O.3   490  20C490     -0.2863
     20  C20      -25.6750   10.1170   22.0640 C.2   490  20C490      0.3909
     21  O21      -25.9590   11.1130   21.3480 O.co2 490  20C490     -0.2404
     22  O22      -24.9390    9.1980   21.6320 O.co2 490  20C490     -0.2404
@<TRIPOS>BOND
     1    21    20   ar
     2    22    20   ar
     3    20    16    1
     4    19    17    1
     5    16    17   ar
     6    16    15   ar
     7    17    18   ar
     8    15    14   ar
     9    18    10   ar
    10    14    10   ar
    11    10     8    1
    12    11     9    2
    13     8     9   am
    14     8     7   am
    15     9     6    1
    16     7    12    2
    17     7     5    1
    18     6     5   ar
    19     6     1   ar
    20     5     4   ar
    21    13     1    1
    22     1     2   ar
    23     4     3   ar
    24     2     3   ar
