@<TRIPOS>MOLECULE
3ik3_0LI_A_1.pdb
 39 43 0 0 0
SMALL
GASTEIGER

@<TRIPOS>ATOM
      1  N1         4.0990   -7.3350   13.8870 N.ar    1  0LI1       -0.2228
      2  N3         7.3470    7.8260   19.1290 N.3     1  0LI1       -0.2665
      3  C4         3.1070   -2.6590   13.9120 C.1     1  0LI1       -0.0585
      4  C5         3.1220   -1.2140   13.7470 C.ar    1  0LI1        0.0382
      5  C6         2.5160   -0.5430   12.6120 C.ar    1  0LI1       -0.0142
      6  C7         2.5780    0.8730   12.5170 C.ar    1  0LI1       -0.0035
      7  C8         3.2500    1.6510   13.5530 C.ar    1  0LI1        0.0043
      8  C10        3.7740   -0.4660   14.7530 C.ar    1  0LI1        0.0125
      9  C13        5.5010    3.8910   16.4100 C.ar    1  0LI1        0.0736
     10  C15        6.1520    6.1920   16.9990 C.ar    1  0LI1       -0.0016
     11  C17        7.4800    4.2940   17.8870 C.ar    1  0LI1        0.0701
     12  C20        8.1170    6.7780   18.4880 C.3     1  0LI1        0.0992
     13  C21        6.4910    7.3580   20.2460 C.3     1  0LI1        0.0899
     14  C22        5.6030    8.5190   20.7640 C.3     1  0LI1        0.0897
     15  C24        8.2400    8.9150   19.6120 C.3     1  0LI1        0.0899
     16  C81        2.3430   -8.4240   15.3410 C.ar    1  0LI1        0.0405
     17  C82        1.2250   -8.1130   16.1130 C.ar    1  0LI1        0.0256
     18  C83        0.8010   -6.7460   16.2100 C.ar    1  0LI1        0.1207
     19  N81        1.3940   -5.7030   15.6090 N.ar    1  0LI1       -0.1616
     20  N82        2.4850   -6.0670   14.8640 N.ar    1  0LI1       -0.2030
     21  C84        3.0300   -7.3760   14.6720 C.ar    1  0LI1        0.1646
     22  C1         4.2680   -5.9990   13.5590 C.ar    1  0LI1        0.1281
     23  C2         3.2990   -5.2430   14.1420 C.ar    1  0LI1        0.1451
     24  C3         3.1670   -3.8530   14.0240 C.1     1  0LI1       -0.0388
     25  C9         3.8520    0.9650   14.6820 C.ar    1  0LI1        0.0560
     26  C11        1.8100   -1.3310   11.4990 C.3     1  0LI1        0.0317
     27  C12        4.5590    1.6720   15.7800 C.2     1  0LI1        0.2690
     28  O1         5.0710    1.0120   16.6910 O.2     1  0LI1       -0.2680
     29  N2         4.5940    3.0340   15.7100 N.am    1  0LI1       -0.1755
     30  C14        5.2890    5.2840   16.3210 C.ar    1  0LI1        0.0163
     31  C16        7.2440    5.7280   17.7840 C.ar    1  0LI1       -0.0022
     32  C18        6.5970    3.4030   17.1950 C.ar    1  0LI1        0.0202
     33  C19        8.6180    3.7040   18.7050 C.3     1  0LI1        0.4184
     34  F1         8.4180    3.9600   19.9890 F       1  0LI1       -0.1659
     35  F2         8.6970    2.3840   18.5830 F       1  0LI1       -0.1659
     36  F3         9.7910    4.2330   18.2900 F       1  0LI1       -0.1659
     37  C23        7.3860   10.1020   20.1030 C.3     1  0LI1        0.0897
     38  C25        5.5690   10.8130   21.5730 C.3     1  0LI1        0.0897
     39  N4         6.4250    9.6910   21.1710 N.3     1  0LI1       -0.2691
@<TRIPOS>BOND
     1    26     5    1
     2     6     5   ar
     3     6     7   ar
     4     5     4   ar
     5     7    25   ar
     6    22     1   ar
     7    22    23   ar
     8     4     3    1
     9     4     8   ar
    10     1    21   ar
    11     3    24    3
    12    24    23    1
    13    23    20   ar
    14    21    20   ar
    15    21    16   ar
    16    25     8   ar
    17    25    27    1
    18    20    19   ar
    19    16    17   ar
    20    19    18   ar
    21    29    27   am
    22    29     9    1
    23    27    28    2
    24    17    18   ar
    25    30     9   ar
    26    30    10   ar
    27     9    32   ar
    28    10    31   ar
    29    32    11   ar
    30    31    11   ar
    31    31    12    1
    32    11    33    1
    33    36    33    1
    34    12     2    1
    35    35    33    1
    36    33    34    1
    37     2    15    1
    38     2    13    1
    39    15    37    1
    40    37    39    1
    41    13    14    1
    42    14    39    1
    43    39    38    1
