@<TRIPOS>MOLECULE
3ik6_HCZ_B_1.pdb
 17 18 0 0 0
SMALL
GASTEIGER

@<TRIPOS>ATOM
      1  N01        7.8560    5.8080  -24.4110 N.3   800  HCZ800      0.0352
      2  S02        6.1390    5.7720  -24.4340 S.O2  800  HCZ800      0.0810
      3  O03        6.3060    4.3080  -24.2070 O.2   800  HCZ800     -0.1542
      4  O04        5.2460    5.3530  -25.7780 O.2   800  HCZ800     -0.1542
      5  C05        4.8480    5.9800  -23.1710 C.3   800  HCZ800      0.2047
      6  C06        3.6100    6.8170  -23.6270 C.2   800  HCZ800      0.0255
      7  C07        2.4460    7.0680  -22.5890 C.2   800  HCZ800      0.1386
      8  C08        2.5370    6.5010  -21.1910 C.2   800  HCZ800      0.0967
      9  C09        3.8200    5.6120  -20.7220 C.2   800  HCZ800      0.0292
     10  C10        4.9560    5.3690  -21.7260 C.2   800  HCZ800      0.0644
     11 CL11        6.3900    4.4190  -21.2360 Cl    800  HCZ800     -0.0847
     12  N12        1.4040    6.7530  -20.2900 N.2   800  HCZ800     -0.2479
     13  C13        0.0450    6.6380  -20.9190 C.3   800  HCZ800      0.2397
     14  N14       -0.2390    7.7600  -21.8700 N.3   800  HCZ800     -0.0507
     15  S15        1.0830    8.0260  -23.0190 S.O2  800  HCZ800      0.0799
     16  O16        0.5780    7.6030  -24.5480 O.2   800  HCZ800     -0.1515
     17  O17        1.5520    9.6200  -23.0700 O.2   800  HCZ800     -0.1515
@<TRIPOS>BOND
     1     4     2    2
     2    16    15    2
     3     2     1    1
     4     2     3    2
     5     2     5    1
     6     6     5    1
     7     6     7    2
     8     5    10    1
     9    17    15    2
    10    15     7    1
    11    15    14    1
    12     7     8    1
    13    14    13    1
    14    10    11    1
    15    10     9    2
    16     8     9    1
    17     8    12    2
    18    13    12    1
