@<TRIPOS>MOLECULE
3ik6_GLU_B_1.pdb
 10 9 0 0 0
SMALL
GASTEIGER

@<TRIPOS>ATOM
      1  N          4.2020   -9.3980  -25.1990 N.3   400  GLU400     -0.1208
      2  CA         3.8970  -10.4080  -26.2060 C.3   400  GLU400      0.1949
      3  C          2.3960  -10.4980  -26.4150 C.2   400  GLU400      0.3819
      4  O          1.9270  -11.3570  -27.1500 O.co2 400  GLU400     -0.2441
      5  CB         4.4410  -11.7770  -25.7840 C.3   400  GLU400      0.0424
      6  CG         5.9540  -11.9140  -25.9140 C.3   400  GLU400      0.1161
      7  CD         6.4150  -12.0100  -27.3630 C.2   400  GLU400      0.3649
      8  OE1        7.6440  -11.9480  -27.5970 O.co2 400  GLU400     -0.2457
      9  OE2        5.5480  -12.1490  -28.2620 O.co2 400  GLU400     -0.2457
     10  OXT        1.6410   -9.7190  -25.8380 O.co2 400  GLU400     -0.2441
@<TRIPOS>BOND
     1     9     7   ar
     2     8     7   ar
     3     7     6    1
     4     4     3   ar
     5     3     2    1
     6     3    10   ar
     7     2     5    1
     8     2     1    1
     9     6     5    1
