@<TRIPOS>MOLECULE
3ik7_BOB_A_1.pdb
 31 30 0 0 0
SMALL
GASTEIGER

@<TRIPOS>ATOM
      1  C1         5.0910   13.6450   22.3880 C.2   501  BOB501      0.3819
      2  N1         3.4500   12.1700   21.3520 N.3   501  BOB501     -0.1208
      3  C2        10.7030   11.5070   17.7970 C.2   501  BOB501      0.2665
      4  N2         8.9420   12.6730   18.8170 N.am  501  BOB501     -0.1968
      5  O2        11.4490   11.6060   18.8850 O.2   501  BOB501     -0.2711
      6  C3        12.1050    8.2830   16.4740 C.2   501  BOB501      0.4043
      7  N3        10.9410   10.4520   17.0150 N.am  501  BOB501     -0.1695
      8  O11        4.3050   14.5720   22.2150 O.co2 501  BOB501     -0.2441
      9  O12        6.0610   13.7460   23.1670 O.co2 501  BOB501     -0.2441
     10  O31       13.2560    7.9500   16.0690 O.co2 501  BOB501     -0.2390
     11  O32       11.0590    7.6440   16.2020 O.co2 501  BOB501     -0.2390
     12  C40        8.8870   16.4240   16.0010 C.3   501  BOB501      0.0806
     13  C42        8.3660   15.6940   14.7450 C.3   501  BOB501      0.1619
     14  C43        9.3770   14.8280   13.9830 C.3   501  BOB501      0.0338
     15  C44        9.3370   15.1680   12.4930 C.3   501  BOB501      0.0026
     16  C45       10.2680   14.2990   11.6510 C.3   501  BOB501      0.0001
     17  C46       10.1120   14.6520   10.1770 C.3   501  BOB501      0.0000
     18  C47        8.7870   15.3440    9.9420 C.3   501  BOB501      0.0000
     19  C54       10.0250   17.3940   15.6430 C.3   501  BOB501      0.0489
     20  C55        9.4120   18.7640   15.3680 C.3   501  BOB501      0.1831
     21  O56       10.3700   19.6510   14.7950 O.3   501  BOB501     -0.2204
     22  O60        7.2130   14.9300   15.1360 O.3   501  BOB501     -0.2222
     23  CA1        4.8650   12.3960   21.5820 C.3   501  BOB501      0.1948
     24  CA2        9.6610   12.5790   17.5510 C.3   501  BOB501      0.1837
     25  CA3       11.9920    9.4890   17.3820 C.2   501  BOB501      0.1746
     26  CB1        5.5090   12.5450   20.2200 C.3   501  BOB501      0.0402
     27  CB2       10.3150   13.9350   17.2140 C.3   501  BOB501      0.0886
     28  CD1        7.6320   12.4710   18.9380 C.2   501  BOB501      0.2418
     29  OE1        6.8910   12.2230   17.8710 O.2   501  BOB501     -0.2733
     30  CG1        7.0260   12.5490   20.3230 C.3   501  BOB501      0.0889
     31  SG2        9.3070   15.3940   17.4040 S.3   501  BOB501     -0.1361
@<TRIPOS>BOND
     1    18    17    1
     2    17    16    1
     3    16    15    1
     4    15    14    1
     5    14    13    1
     6    13    22    1
     7    13    12    1
     8    21    20    1
     9    20    19    1
    10    19    12    1
    11    12    31    1
    12    10     6   ar
    13    11     6   ar
    14     6    25    1
    15     7    25    2
    16     7     3    1
    17    27    31    1
    18    27    24    1
    19    24     3    1
    20    24     4    1
    21     3     5    2
    22    29    28    2
    23     4    28   am
    24    28    30    1
    25    26    30    1
    26    26    23    1
    27     2    23    1
    28    23     1    1
    29     8     1   ar
    30     1     9   ar
