@<TRIPOS>MOLECULE
3ik9_BOB_A_1.pdb
 31 30 0 0 0
SMALL
GASTEIGER

@<TRIPOS>ATOM
      1  C1       -22.5400   -3.5850   48.7560 C.2   501  BOB501      0.3819
      2  N1       -23.5610   -1.4930   48.1060 N.3   501  BOB501     -0.1208
      3  C2       -27.5820   -5.3980   54.2060 C.2   501  BOB501      0.2626
      4  N2       -26.3240   -5.3200   52.1830 N.am  501  BOB501     -0.1969
      5  O2       -26.6070   -5.7980   55.0130 O.2   501  BOB501     -0.2714
      6  C3       -29.2490   -2.6270   55.8620 C.2   501  BOB501      0.3865
      7  N3       -28.5650   -4.6260   54.6320 N.am  501  BOB501     -0.1917
      8  O11      -22.5370   -3.9910   47.5630 O.co2 501  BOB501     -0.2441
      9  O12      -21.7680   -4.0400   49.6370 O.co2 501  BOB501     -0.2441
     10  O31      -29.4000   -1.9800   56.9340 O.co2 501  BOB501     -0.2437
     11  O32      -29.4670   -2.0900   54.7410 O.co2 501  BOB501     -0.2437
     12  C40      -28.9480   -8.3300   50.0750 C.3   501  BOB501      0.0806
     13  C42      -29.9060   -7.1240   50.0310 C.3   501  BOB501      0.1619
     14  C43      -30.8960   -7.0370   51.1970 C.3   501  BOB501      0.0338
     15  C44      -32.3080   -7.1200   50.6260 C.3   501  BOB501      0.0026
     16  C45      -33.3630   -7.2350   51.7080 C.3   501  BOB501      0.0001
     17  C46      -34.7410   -7.1500   51.0550 C.3   501  BOB501      0.0000
     18  C47      -34.7290   -6.1540   49.9150 C.3   501  BOB501      0.0000
     19  C54      -29.7000   -9.6210   50.4210 C.3   501  BOB501      0.0489
     20  C55      -29.3230  -10.7500   49.4780 C.3   501  BOB501      0.1831
     21  O56      -28.0130  -11.2120   49.8230 O.3   501  BOB501     -0.2204
     22  O60      -29.1380   -5.9150   49.9240 O.3   501  BOB501     -0.2222
     23  CA1      -23.5100   -2.4970   49.1670 C.3   501  BOB501      0.1948
     24  CA2      -27.5910   -5.7870   52.7640 C.3   501  BOB501      0.1834
     25  CA3      -28.7870   -4.0820   55.9650 C.3   501  BOB501      0.2285
     26  CB1      -24.8850   -3.1200   49.4790 C.3   501  BOB501      0.0402
     27  CB2      -27.7420   -7.3120   52.7180 C.3   501  BOB501      0.0886
     28  CD1      -26.2140   -4.4700   51.1660 C.2   501  BOB501      0.2418
     29  OE1      -27.2910   -3.9880   50.5520 O.2   501  BOB501     -0.2733
     30  CG1      -24.8300   -4.0770   50.6960 C.3   501  BOB501      0.0889
     31  SG2      -27.5310   -8.0600   51.1240 S.3   501  BOB501     -0.1361
@<TRIPOS>BOND
     1     8     1   ar
     2     2    23    1
     3     1    23    1
     4     1     9   ar
     5    23    26    1
     6    20    21    1
     7    20    19    1
     8    26    30    1
     9    18    17    1
    10    22    13    1
    11    13    12    1
    12    13    14    1
    13    12    19    1
    14    12    31    1
    15    29    28    2
    16    15    14    1
    17    15    16    1
    18    30    28    1
    19    17    16    1
    20    31    27    1
    21    28     4   am
    22     4    24    1
    23    27    24    1
    24    24     3    1
    25     3     7   am
    26     3     5    2
    27     7    25    1
    28    11     6   ar
    29     6    25    1
    30     6    10   ar
