@<TRIPOS>MOLECULE
3ika_0UN_A_1.pdb
 35 38 0 0 0
SMALL
GASTEIGER

@<TRIPOS>ATOM
      1  CAT      -12.7040   12.7700   33.5380 C.3   1797  0UN1797     0.1081
      2  CAR      -13.8650   11.9900   33.0040 C.3   1797  0UN1797     0.0938
      3  NBN      -15.0720   12.6730   33.3920 N.3   1797  0UN1797    -0.2686
      4  CAB      -16.1940   11.8260   33.0430 C.3   1797  0UN1797     0.0897
      5  CAS      -15.1510   13.8390   32.5500 C.3   1797  0UN1797     0.0938
      6  CAU      -14.1110   14.8060   33.0390 C.3   1797  0UN1797     0.1081
      7  NBO      -12.8320   14.1350   33.1020 N.pl3 1797  0UN1797    -0.3046
      8  CBH      -11.7190   14.8480   32.8180 C.ar  1797  0UN1797     0.0511
      9  CAO      -10.4920   14.2520   32.8590 C.ar  1797  0UN1797     0.0528
     10  CBK       -9.4010   15.0040   32.5670 C.ar  1797  0UN1797     0.1559
     11  OBA       -8.1850   14.5160   32.5810 O.3   1797  0UN1797    -0.4700
     12  CAA       -8.3950   13.2470   32.1080 C.3   1797  0UN1797     0.2525
     13  CAK      -11.8470   16.1620   32.4950 C.ar  1797  0UN1797     0.0161
     14  CAL      -10.7340   16.8940   32.2060 C.ar  1797  0UN1797     0.0217
     15  CBJ       -9.5290   16.2870   32.2510 C.ar  1797  0UN1797     0.1165
     16  NAZ       -8.4470   16.9100   31.9940 N.pl3 1797  0UN1797    -0.1326
     17  C2        -8.5260   17.9300   31.2030 C.1   1797  0UN1797     0.1727
     18  N3        -9.6970   18.2640   30.6770 N.2   1797  0UN1797    -0.2975
     19  N1        -7.4150   18.5880   30.9610 N.2   1797  0UN1797    -0.1672
     20  C6        -7.4230   19.6130   30.1830 C.2   1797  0UN1797     0.1290
     21  C5        -8.6020   19.9830   29.6280 C.2   1797  0UN1797     0.1445
     22 CL5        -8.6200   21.3210   28.6100 Cl    1797  0UN1797    -0.0745
     23  C4        -9.7490   19.3030   29.8780 C.2   1797  0UN1797     0.3051
     24  OBB      -10.8740   19.7120   29.3070 O.3   1797  0UN1797    -0.4262
     25  CBG      -12.0030   19.1590   29.7520 C.ar  1797  0UN1797     0.1495
     26  CAN      -12.4640   19.4790   31.0010 C.ar  1797  0UN1797     0.0542
     27  CAJ      -12.7120   18.2780   28.9890 C.ar  1797  0UN1797     0.0377
     28  CAH      -13.8730   17.7240   29.4740 C.ar  1797  0UN1797     0.0045
     29  CAI      -14.3370   18.0470   30.7330 C.ar  1797  0UN1797     0.0168
     30  CBF      -13.6220   18.9340   31.5000 C.ar  1797  0UN1797     0.0764
     31  NAY      -13.9850   19.2980   32.7020 N.am  1797  0UN1797    -0.1791
     32  CBD      -15.1660   19.0370   33.2070 C.2   1797  0UN1797     0.2456
     33  OAE      -16.0410   18.4310   32.6170 O.2   1797  0UN1797    -0.2730
     34  CAQ      -15.3880   19.6030   34.6070 C.3   1797  0UN1797     0.0872
     35  CAP      -15.5450   18.5290   35.6780 C.3   1797  0UN1797     0.0101
@<TRIPOS>BOND
     1    22    21    1
     2    27    28   ar
     3    27    25   ar
     4    24    25    1
     5    24    23    1
     6    28    29   ar
     7    21    23    1
     8    21    20    2
     9    25    26   ar
    10    23    18    2
    11    20    19    1
    12    18    17    2
    13    29    30   ar
    14    19    17    2
    15    26    30   ar
    16    17    16    1
    17    30    31    1
    18    16    15    1
    19    12    11    1
    20    14    15   ar
    21    14    13   ar
    22    15    10   ar
    23    13     8   ar
    24     5     6    1
    25     5     3    1
    26    10    11    1
    27    10     9   ar
    28    33    32    2
    29    31    32   am
    30     8     9   ar
    31     8     7    1
    32     2     3    1
    33     2     1    1
    34     6     7    1
    35     4     3    1
    36     7     1    1
    37    32    34    1
    38    34    35    1
