@<TRIPOS>MOLECULE
3ikc_KME_B_1.pdb
 20 20 0 0 0
SMALL
GASTEIGER

@<TRIPOS>ATOM
      1  C1         7.7360   -5.8720   -2.7780 C.2   214  KME214      0.4275
      2  C2         7.3940   -4.7660   -3.7840 C.3   214  KME214      0.3269
      3  O2         8.4800   -4.5980   -4.6900 O.2   214  KME214     -0.4461
      4  C3         6.1340   -5.1690   -4.5730 C.3   214  KME214      0.1174
      5  C4         5.8180   -4.0580   -5.5790 C.3   214  KME214      0.1914
      6  O4         4.6650   -4.4020   -6.3700 O.3   214  KME214     -0.2201
      7  C5         5.5780   -2.7640   -4.8020 C.3   214  KME214      0.2118
      8  O5         4.4570   -2.9140   -3.9220 O.3   214  KME214     -0.2177
      9  C6         6.8490   -2.4200   -4.0030 C.3   214  KME214      0.1815
     10  O6         7.1800   -3.5140   -3.1050 O.3   214  KME214     -0.3140
     11  C7         6.6450   -1.1250   -3.2100 C.3   214  KME214      0.1778
     12  O7         6.1220   -0.1010   -4.0780 O.3   214  KME214     -0.3483
     13  C8         8.0090   -0.8300   -2.5530 C.3   214  KME214      0.2140
     14  O8         7.9920    0.3940   -1.8100 O.3   214  KME214     -0.2176
     15  C9         5.7570    1.0720   -3.3540 C.3   214  KME214      0.1742
     16  C10        9.6480   -4.2280   -3.9270 C.2   214  KME214      0.1708
     17  C11       10.8630   -4.0260   -4.5670 C.2   214  KME214      0.0143
     18  C12       10.9280   -4.1920   -5.9430 C.3   214  KME214      0.0341
     19  O1A        7.2390   -5.7790   -1.6350 O.co2 214  KME214     -0.2389
     20  O1B        8.4950   -6.7840   -3.1770 O.co2 214  KME214     -0.2389
@<TRIPOS>BOND
     1     6     5    1
     2    18    17    1
     3     5     7    1
     4     5     4    1
     5     7     9    1
     6     7     8    1
     7     3    16    1
     8     3     2    1
     9     4     2    1
    10    17    16    2
    11    12    15    1
    12    12    11    1
    13     9    11    1
    14     9    10    1
    15     2    10    1
    16     2     1    1
    17    11    13    1
    18    20     1   ar
    19     1    19   ar
    20    13    14    1
