@<TRIPOS>MOLECULE
3ikc_KDO_A_1.pdb
 15 15 0 0 0
SMALL
GASTEIGER

@<TRIPOS>ATOM
      1  C1         9.5430   -0.2240    0.0060 C.2   213  KDO213      0.3914
      2  O1A        8.5690   -0.6540    0.6600 O.co2 213  KDO213     -0.2430
      3  O1B       10.7490   -0.4480    0.2470 O.co2 213  KDO213     -0.2430
      4  C2         9.2330    0.7240   -1.1540 C.3   213  KDO213      0.2204
      5  C3         9.0720    2.1170   -0.5340 C.3   213  KDO213      0.0769
      6  C4         8.7720    3.1130   -1.6440 C.3   213  KDO213      0.1877
      7  O4         8.6060    4.4250   -1.0980 O.3   213  KDO213     -0.2202
      8  C5         9.9510    3.0930   -2.6170 C.3   213  KDO213      0.2117
      9  O5        11.1430    3.4480   -1.9140 O.3   213  KDO213     -0.2177
     10  C6        10.1420    1.7040   -3.2080 C.3   213  KDO213      0.1814
     11  O6        10.3240    0.7350   -2.1290 O.3   213  KDO213     -0.3421
     12  C7        11.3300    1.6750   -4.1960 C.3   213  KDO213      0.2142
     13  O7        11.2350    2.7710   -5.1160 O.3   213  KDO213     -0.2176
     14  C8        11.4760    0.3500   -4.9540 C.3   213  KDO213      0.2174
     15  O8        11.6750   -0.7350   -4.0530 O.3   213  KDO213     -0.2175
@<TRIPOS>BOND
     1    13    12    1
     2    14    12    1
     3    14    15    1
     4    12    10    1
     5    10     8    1
     6    10    11    1
     7     8     9    1
     8     8     6    1
     9    11     4    1
    10     6     7    1
    11     6     5    1
    12     4     5    1
    13     4     1    1
    14     1     3   ar
    15     1     2   ar
