@<TRIPOS>MOLECULE
3ikd_J9Z_A_1.pdb
 42 44 0 0 0
SMALL
GASTEIGER

@<TRIPOS>ATOM
      1  C1        13.8830    6.5740    1.1670 C.ar  501  J9Z501     -0.0585
      2  N1        13.1320    3.4690    1.0550 N.am  501  J9Z501     -0.3055
      3  O1        12.3770    4.3220    2.9500 O.2   501  J9Z501     -0.2696
      4  P1        16.8030    0.7690    2.9920 P.3   501  J9Z501      0.5319
      5  C2        13.5230    7.8540    1.5840 C.ar  501  J9Z501     -0.0615
      6  O2        15.7760    0.7620    4.1400 O.3   501  J9Z501     -0.1145
      7  C3        14.2170    8.4660    2.6260 C.ar  501  J9Z501     -0.0617
      8  O3        16.4140    1.9940    2.0410 O.3   501  J9Z501     -0.2817
      9  S3         9.6400    5.2200    1.7580 S.2   501  J9Z501     -0.0837
     10  C4        15.2620    7.7730    3.2440 C.ar  501  J9Z501     -0.0615
     11  O4        18.0900    1.2140    3.6150 O.3   501  J9Z501     -0.1145
     12  C5        15.6210    6.4920    2.8280 C.ar  501  J9Z501     -0.0585
     13  O5        16.7120   -0.5000    2.2800 O.2   501  J9Z501     -0.2224
     14  C6        14.9350    5.8830    1.7800 C.ar  501  J9Z501     -0.0455
     15  C7        15.3710    4.5520    1.2880 C.3   501  J9Z501     -0.0070
     16  C8        14.4830    3.3320    1.6680 C.3   501  J9Z501      0.0513
     17  C9         8.6960    3.5290   -1.6610 C.ar  501  J9Z501     -0.0535
     18  C10        7.4090    4.0020   -2.0000 C.ar  501  J9Z501     -0.0611
     19  C11        6.7530    4.9100   -1.1780 C.ar  501  J9Z501     -0.0607
     20  C12        7.3830    5.3290    0.0070 C.ar  501  J9Z501     -0.0474
     21  C13        8.6640    4.8710    0.3740 C.ar  501  J9Z501      0.0201
     22  C14        9.3310    3.9420   -0.4840 C.ar  501  J9Z501     -0.0101
     23  C15       10.6040    3.5670    0.0110 C.ar  501  J9Z501     -0.0348
     24  C16       10.8820    4.2230    1.2350 C.ar  501  J9Z501      0.0750
     25  C17       12.1560    4.0420    1.7630 C.2   501  J9Z501      0.2510
     26  C18       15.1720    1.9870    1.2820 C.3   501  J9Z501      0.0779
     27  H3        13.9430    9.4550    2.9510 H     501  J9Z501      0.0618
     28  H1        13.3350    6.1040    0.3700 H     501  J9Z501      0.0620
     29  H5        16.4110    5.9710    3.3410 H     501  J9Z501      0.0620
     30  H4        15.8150    8.2490    4.0450 H     501  J9Z501      0.0618
     31  H7        15.4050    4.5710    0.2000 H     501  J9Z501      0.0332
     32  H2        12.7140    8.3790    1.1050 H     501  J9Z501      0.0618
     33  H7A       16.3750    4.3680    1.6420 H     501  J9Z501      0.0332
     34  H8        14.3890    3.3170    2.7540 H     501  J9Z501      0.0524
     35  H9         9.1770    2.7810   -2.2660 H     501  J9Z501      0.0624
     36  H10        6.9180    3.6150   -2.8740 H     501  J9Z501      0.0618
     37  H11        5.7530    5.2530   -1.4170 H     501  J9Z501      0.0618
     38  H12        6.8780    6.0090    0.6740 H     501  J9Z501      0.0629
     39  H15       11.2540    2.8310   -0.4370 H     501  J9Z501      0.0636
     40  HN1       12.8820    2.9860    0.2450 H     501  J9Z501      0.1494
     41  H18       15.3650    1.9630    0.2220 H     501  J9Z501      0.0584
     42 H18A       14.5530    1.1510    1.5560 H     501  J9Z501      0.0584
@<TRIPOS>BOND
     1    36    18    1
     2    35    17    1
     3    18    17   ar
     4    18    19   ar
     5    17    22   ar
     6    37    19    1
     7    19    20   ar
     8    22    23   ar
     9    22    21   ar
    10    39    23    1
    11    20    21   ar
    12    20    38    1
    13    23    24   ar
    14    31    15    1
    15    41    26    1
    16    40     2    1
    17    28     1    1
    18    21     9   ar
    19     2    16    1
    20     2    25   am
    21    32     5    1
    22     1     5   ar
    23     1    14   ar
    24    24     9   ar
    25    24    25    1
    26    26    42    1
    27    26    16    1
    28    26     8    1
    29    15    33    1
    30    15    16    1
    31    15    14    1
    32     5     7   ar
    33    16    34    1
    34    25     3    2
    35    14    12   ar
    36     8     4    1
    37    13     4    2
    38     7    27    1
    39     7    10   ar
    40    12    10   ar
    41    12    29    1
    42     4    11    1
    43     4     6    1
    44    10    30    1
