@<TRIPOS>MOLECULE
3ikf_717_A_1.pdb
 10 11 0 0 0
SMALL
GASTEIGER

@<TRIPOS>ATOM
      1  C1         9.3220  -27.0930  -15.6270 C.2   202  717202      0.1424
      2  N2         8.7340  -28.1170  -14.9240 N.2   202  717202     -0.3845
      3  C3         7.5760  -28.3310  -15.6410 C.2   202  717202      0.2181
      4  N4         7.4530  -27.5240  -16.6960 N.pl3 202  717202     -0.2491
      5  C5         8.5570  -26.6940  -16.7510 C.3   202  717202      0.1554
      6  C6         6.3010  -27.6650  -17.4930 C.2   202  717202      0.0752
      7  C7         5.4940  -28.6950  -16.9570 C.2   202  717202      0.0553
      8  S8         6.2620  -29.3600  -15.5190 S.3   202  717202     -0.0379
      9  C9        10.6450  -26.4810  -15.2500 C.3   202  717202      0.2377
     10  O10       11.4520  -26.5360  -16.4230 O.3   202  717202     -0.2126
@<TRIPOS>BOND
     1     6     7    2
     2     6     4    1
     3     7     8    1
     4     5     4    1
     5     5     1    1
     6     4     3    1
     7    10     9    1
     8     3     8    1
     9     3     2    2
    10     1     9    1
    11     1     2    2
