@<TRIPOS>MOLECULE
3ikg_J8Z_A_1.pdb
 27 29 0 0 0
SMALL
GASTEIGER

@<TRIPOS>ATOM
      1  N1        13.4030    2.9040    1.2500 N.am    1  J8Z1       -0.2001
      2  C2        14.6550    2.8290    1.9910 C.3     1  J8Z1        0.1301
      3  C3        15.3620    1.4970    1.6700 C.3     1  J8Z1        0.1756
      4  O4        16.7550    1.6470    1.9640 O.3     1  J8Z1       -0.2684
      5  C5        12.2710    3.3140    1.8620 C.2     1  J8Z1        0.2708
      6  O6        12.2510    3.6510    3.0290 O.2     1  J8Z1       -0.2678
      7  P7        17.1040    0.5510    3.1200 P.3     1  J8Z1        0.5326
      8  O8        17.2570   -0.7630    2.4660 O.2     1  J8Z1       -0.2224
      9  O9        18.4940    0.9640    3.8200 O.3     1  J8Z1       -0.1145
     10  O10       15.9330    0.5610    4.2060 O.3     1  J8Z1       -0.1145
     11  C11       11.1110    3.5410    0.9990 C.ar    1  J8Z1        0.0845
     12  C12       10.7530    2.9720   -0.1710 C.ar    1  J8Z1        0.0116
     13  C13        9.5580    3.3770   -0.7900 C.ar    1  J8Z1        0.0066
     14  C14        8.8240    4.3850   -0.1110 C.ar    1  J8Z1        0.0296
     15  S15        9.8020    4.7120    1.3240 S.2     1  J8Z1       -0.0824
     16  C16        9.0090    2.9030   -1.9960 C.ar    1  J8Z1        0.0005
     17  C17        7.8610    3.4460   -2.4870 C.ar    1  J8Z1        0.0000
     18  C18        7.1620    4.4400   -1.7990 C.ar    1  J8Z1        0.0005
     19  C19        7.6600    4.9250   -0.6130 C.ar    1  J8Z1        0.0065
     20  C20       15.5440    3.9520    1.3930 C.3     1  J8Z1        0.0506
     21  C21       14.0100    5.9760    1.0000 C.ar    1  J8Z1       -0.0042
     22  C22       15.0540    5.3630    1.7270 C.ar    1  J8Z1       -0.0207
     23  C23       15.6370    6.0690    2.7830 C.ar    1  J8Z1       -0.0085
     24  C24       15.2010    7.3600    3.1050 C.ar    1  J8Z1       -0.0222
     25  C25       14.1720    7.9740    2.3710 C.ar    1  J8Z1       -0.0043
     26  C26       13.5650    7.2670    1.3290 C.ar    1  J8Z1       -0.0006
     27  C27       15.8910    8.1440    4.2250 C.3     1  J8Z1        0.0310
@<TRIPOS>BOND
     1    17    16   ar
     2    17    18   ar
     3    16    13   ar
     4    18    19   ar
     5    13    12   ar
     6    13    14   ar
     7    19    14   ar
     8    12    11   ar
     9    14    15   ar
    10    11    15   ar
    11    11     5    1
    12    21    26   ar
    13    21    22   ar
    14     1     5   am
    15     1     2    1
    16    26    25   ar
    17    20    22    1
    18    20     2    1
    19     3     4    1
    20     3     2    1
    21    22    23   ar
    22     5     6    2
    23     4     7    1
    24    25    24   ar
    25     8     7    2
    26    23    24   ar
    27    24    27    1
    28     7     9    1
    29     7    10    1
