@<TRIPOS>MOLECULE
3ikh_ATP_A_1.pdb
 31 33 0 0 0
SMALL
GASTEIGER

@<TRIPOS>ATOM
      1  PG        21.9960   31.2180  121.7440 P.3   900  ATP900      0.5373
      2  O1G       21.5970   32.1730  122.8370 O.3   900  ATP900     -0.1143
      3  O2G       21.1100   31.3450  120.5310 O.2   900  ATP900     -0.2221
      4  O3G       23.4690   31.4390  121.3650 O.3   900  ATP900     -0.1143
      5  PB        21.7240   29.2300  123.9010 P.3   900  ATP900      0.2277
      6  O1B       22.8360   29.8280  124.7480 O.3   900  ATP900     -0.4368
      7  O2B       20.2940   29.4020  124.2840 O.2   900  ATP900     -0.5168
      8  O3B       21.7830   29.7380  122.3660 O.3   900  ATP900     -0.2258
      9  PA        23.3040   26.7340  124.1420 P.3   900  ATP900      0.2189
     10  O1A       24.5340   27.2280  123.4320 O.2   900  ATP900     -0.5170
     11  O2A       23.2880   26.5810  125.6310 O.3   900  ATP900     -0.4371
     12  O3A       22.0090   27.6490  123.6970 O.3   900  ATP900     -0.2700
     13  O5'       22.3410   25.3480  123.4380 O.3   900  ATP900     -0.3112
     14  C5'       21.3390   24.6830  122.7770 C.3   900  ATP900      0.1813
     15  C4'       21.6120   23.2010  122.7960 C.3   900  ATP900      0.1821
     16  O4'       22.0490   23.1440  121.4270 O.3   900  ATP900     -0.3135
     17  C3'       22.8500   22.5780  123.5010 C.3   900  ATP900      0.2184
     18  O3'       22.5880   22.1140  124.8280 O.3   900  ATP900     -0.2174
     19  C2'       23.2430   21.5270  122.5290 C.3   900  ATP900      0.2570
     20  O2'       22.4910   20.3120  122.6790 O.3   900  ATP900     -0.2130
     21  C1'       23.0310   22.1610  121.1970 C.3   900  ATP900      0.3186
     22  N9        24.3410   22.7330  120.7090 N.pl3 900  ATP900     -0.1439
     23  C8        24.8440   24.0190  120.7860 C.3   900  ATP900      0.3377
     24  N7        26.0690   24.1120  120.2090 N.2   900  ATP900     -0.2095
     25  C5        26.3900   22.8830  119.7530 C.2   900  ATP900      0.2526
     26  C6        27.5250   22.2190  119.0110 C.2   900  ATP900      0.4393
     27  N6        28.6060   22.9310  118.6720 N.pl3 900  ATP900      0.2180
     28  N1        27.4390   20.8520  118.7120 N.2   900  ATP900      0.0021
     29  C2        26.3450   20.0650  119.0390 C.3   900  ATP900      0.5254
     30  N3        25.2650   20.6070  119.7130 N.2   900  ATP900     -0.0055
     31  C4        25.2330   21.9750  120.0640 C.2   900  ATP900      0.3518
@<TRIPOS>BOND
     1    27    26    1
     2    28    26    2
     3    28    29    1
     4    26    25    1
     5    29    30    1
     6    30    31    2
     7    25    31    1
     8    25    24    2
     9    31    22    1
    10    24    23    1
    11     3     1    2
    12    22    23    1
    13    22    21    1
    14    21    16    1
    15    21    19    1
    16     4     1    1
    17    16    15    1
    18     1     8    1
    19     1     2    1
    20     8     5    1
    21    19    20    1
    22    19    17    1
    23    14    15    1
    24    14    13    1
    25    15    17    1
    26    10     9    2
    27    13     9    1
    28    17    18    1
    29    12     5    1
    30    12     9    1
    31     5     7    2
    32     5     6    1
    33     9    11    1
