@<TRIPOS>MOLECULE
3ikn_GAL_A_1.pdb
 12 12 0 0 0
SMALL
GASTEIGER

@<TRIPOS>ATOM
      1  C1        29.3980  -13.4110   11.9520 C.3   405  GAL405      0.3024
      2  C2        28.0820  -14.0140   11.4570 C.3   405  GAL405      0.2434
      3  C3        28.3820  -15.1880   10.5200 C.3   405  GAL405      0.2199
      4  C4        29.3010  -14.7330    9.3820 C.3   405  GAL405      0.2144
      5  C5        30.5490  -14.0380    9.9520 C.3   405  GAL405      0.1836
      6  C6        31.4420  -13.4460    8.8800 C.3   405  GAL405      0.2142
      7  O1        29.1570  -12.3260   12.7850 O.3   405  GAL405     -0.1869
      8  O2        27.3110  -14.4710   12.5560 O.3   405  GAL405     -0.2148
      9  O3        27.1690  -15.6980    9.9870 O.3   405  GAL405     -0.2174
     10  O4        28.5970  -13.8450    8.5240 O.3   405  GAL405     -0.2176
     11  O5        30.1680  -12.9560   10.8350 O.3   405  GAL405     -0.3236
     12  O6        32.5560  -12.7760    9.4540 O.3   405  GAL405     -0.2176
@<TRIPOS>BOND
     1    10     4    1
     2     6    12    1
     3     6     5    1
     4     4     5    1
     5     4     3    1
     6     5    11    1
     7     9     3    1
     8     3     2    1
     9    11     1    1
    10     2     1    1
    11     2     8    1
    12     1     7    1
