@<TRIPOS>MOLECULE
3ikp_IPD_B_1.pdb
 16 16 0 0 0
SMALL
GASTEIGER

@<TRIPOS>ATOM
      1  C1        28.4390   18.6220  -24.9260 C.3   405  IPD405      0.1919
      2  C2        28.9140   20.1010  -25.3200 C.3   405  IPD405      0.2148
      3  C3        27.6400   20.9150  -25.7640 C.3   405  IPD405      0.2174
      4  C4        26.5810   20.9660  -24.6510 C.3   405  IPD405      0.2175
      5  C5        26.1450   19.5340  -24.2470 C.3   405  IPD405      0.2174
      6  C6        27.3600   18.7020  -23.7600 C.3   405  IPD405      0.2148
      7  P1        30.0660   16.4660  -25.1780 P.3   405  IPD405      0.5327
      8  O1        29.6230   17.8250  -24.4750 O.3   405  IPD405     -0.2673
      9  O2        29.5680   20.7850  -24.2140 O.3   405  IPD405     -0.2176
     10  O3        28.0330   22.2410  -26.1120 O.3   405  IPD405     -0.2175
     11  O4        25.4370   21.7020  -25.1030 O.3   405  IPD405     -0.2175
     12  O5        25.1710   19.6250  -23.2040 O.3   405  IPD405     -0.2175
     13  O6        26.9230   17.3630  -23.3940 O.3   405  IPD405     -0.2176
     14  O7        31.2810   15.8570  -24.5440 O.3   405  IPD405     -0.1145
     15  O8        28.9110   15.4450  -25.1070 O.3   405  IPD405     -0.1145
     16  O9        30.3070   16.8350  -26.6140 O.2   405  IPD405     -0.2224
@<TRIPOS>BOND
     1    16     7    2
     2    10     3    1
     3     3     2    1
     4     3     4    1
     5     2     1    1
     6     2     9    1
     7     7    15    1
     8     7    14    1
     9     7     8    1
    10    11     4    1
    11     1     8    1
    12     1     6    1
    13     4     5    1
    14     5     6    1
    15     5    12    1
    16     6    13    1
