@<TRIPOS>MOLECULE
3ikq_MAN_A_1.pdb
 12 12 0 0 0
SMALL
GASTEIGER

@<TRIPOS>ATOM
      1  C1        29.7180  -14.9070    9.5420 C.3   405  MAN405      0.3024
      2  C2        28.5600  -15.2510   10.4960 C.3   405  MAN405      0.2434
      3  C3        28.3450  -14.1380   11.5400 C.3   405  MAN405      0.2199
      4  C4        29.6580  -13.8010   12.2370 C.3   405  MAN405      0.2144
      5  C5        30.7180  -13.4430   11.1910 C.3   405  MAN405      0.1836
      6  C6        32.0610  -13.1750   11.8470 C.3   405  MAN405      0.2142
      7  O1        29.3760  -13.8550    8.7050 O.3   405  MAN405     -0.1869
      8  O2        28.8410  -16.4780   11.1520 O.3   405  MAN405     -0.2148
      9  O3        27.3960  -14.5550   12.5090 O.3   405  MAN405     -0.2174
     10  O4        29.4680  -12.7140   13.1350 O.3   405  MAN405     -0.2176
     11  O5        30.9070  -14.5520   10.2750 O.3   405  MAN405     -0.3236
     12  O6        33.0620  -12.8760   10.8840 O.3   405  MAN405     -0.2176
@<TRIPOS>BOND
     1     7     1    1
     2     1    11    1
     3     1     2    1
     4    11     5    1
     5     2     8    1
     6     2     3    1
     7    12     6    1
     8     5     6    1
     9     5     4    1
    10     3     4    1
    11     3     9    1
    12     4    10    1
