@<TRIPOS>MOLECULE
3ikr_MAN_A_1.pdb
 12 12 0 0 0
SMALL
GASTEIGER

@<TRIPOS>ATOM
      1  C1        29.0210  -14.6680    9.2920 C.3   405  MAN405      0.3024
      2  C2        27.9530  -15.0260   10.3340 C.3   405  MAN405      0.2434
      3  C3        27.8030  -13.8950   11.3580 C.3   405  MAN405      0.2199
      4  C4        29.1630  -13.5200   11.9500 C.3   405  MAN405      0.2144
      5  C5        30.1510  -13.2030   10.8270 C.3   405  MAN405      0.1836
      6  C6        31.5420  -12.8990   11.3480 C.3   405  MAN405      0.2142
      7  O1        28.6070  -13.5690    8.5550 O.3   405  MAN405     -0.1869
      8  O2        28.3090  -16.2300   10.9970 O.3   405  MAN405     -0.2148
      9  O3        26.9340  -14.3080   12.4010 O.3   405  MAN405     -0.2174
     10  O4        29.0180  -12.3920   12.8030 O.3   405  MAN405     -0.2176
     11  O5        30.2650  -14.3370    9.9340 O.3   405  MAN405     -0.3236
     12  O6        32.4570  -12.6970   10.2820 O.3   405  MAN405     -0.2176
@<TRIPOS>BOND
     1     7     1    1
     2     1    11    1
     3     1     2    1
     4    11     5    1
     5    12     6    1
     6     2     8    1
     7     2     3    1
     8     5     6    1
     9     5     4    1
    10     3     4    1
    11     3     9    1
    12     4    10    1
