@<TRIPOS>MOLECULE
3ikt_NAD_A_1.pdb
 44 48 0 0 0
SMALL
GASTEIGER

@<TRIPOS>ATOM
      1  PA        -8.4730   -0.5870  -14.1190 P.3   500  NAD500      0.2189
      2  O1A       -8.7920   -0.7010  -12.7240 O.3   500  NAD500     -0.4371
      3  O2A       -8.2710    0.6550  -14.9510 O.2   500  NAD500     -0.5170
      4  O5B       -9.6800   -1.2610  -14.8960 O.3   500  NAD500     -0.3112
      5  C5B      -10.0960   -2.6200  -14.5820 C.3   500  NAD500      0.1813
      6  C4B      -11.5600   -2.4780  -15.0740 C.3   500  NAD500      0.1821
      7  O4B      -12.1740   -3.7310  -14.6860 O.3   500  NAD500     -0.3135
      8  C3B      -12.3040   -1.4650  -14.1750 C.3   500  NAD500      0.2184
      9  O3B      -13.1820   -0.8040  -15.0620 O.3   500  NAD500     -0.2174
     10  C2B      -13.0360   -2.3100  -13.1630 C.3   500  NAD500      0.2570
     11  O2B      -14.2460   -1.7070  -12.7450 O.3   500  NAD500     -0.2130
     12  C1B      -13.4060   -3.5150  -14.0720 C.3   500  NAD500      0.3186
     13  N9A      -13.7840   -4.6830  -13.2890 N.pl3 500  NAD500     -0.1439
     14  C8A      -13.4570   -5.1060  -12.0050 C.3   500  NAD500      0.3377
     15  N7A      -13.9920   -6.2640  -11.6740 N.2   500  NAD500     -0.2095
     16  C5A      -14.7380   -6.6050  -12.8100 C.2   500  NAD500      0.2526
     17  C6A      -15.5280   -7.7310  -13.0510 C.2   500  NAD500      0.4393
     18  N6A      -15.7540   -8.7760  -12.1980 N.pl3 500  NAD500      0.2180
     19  N1A      -16.1670   -7.8050  -14.3020 N.2   500  NAD500      0.0021
     20  C2A      -16.0040   -6.7850  -15.2700 C.3   500  NAD500      0.5254
     21  N3A      -15.2160   -5.6610  -15.0440 N.2   500  NAD500     -0.0055
     22  C4A      -14.6060   -5.6240  -13.8010 C.2   500  NAD500      0.3518
     23  O3        -7.1980   -1.5060  -14.4850 O.3   500  NAD500     -0.2703
     24  PN        -6.0750   -1.4730  -15.6300 P.3   500  NAD500      0.2189
     25  O1N       -4.9180   -0.5280  -15.3000 O.3   500  NAD500     -0.4371
     26  O2N       -6.7170   -1.3270  -16.9510 O.2   500  NAD500     -0.5170
     27  O5D       -5.5270   -2.9650  -15.4420 O.3   500  NAD500     -0.3112
     28  C5D       -6.4070   -4.0970  -15.7910 C.3   500  NAD500      0.1813
     29  C4D       -5.5120   -5.3020  -16.0300 C.3   500  NAD500      0.1799
     30  O4D       -4.5900   -4.9420  -17.0540 O.3   500  NAD500     -0.3327
     31  C3D       -4.6210   -5.7110  -14.8270 C.3   500  NAD500      0.2158
     32  O3D       -4.5240   -7.1570  -14.7130 O.3   500  NAD500     -0.2175
     33  C2D       -3.2390   -5.1780  -15.1780 C.3   500  NAD500      0.2309
     34  O2D       -2.2270   -6.0540  -14.6370 O.3   500  NAD500     -0.2158
     35  C1D       -3.2210   -5.3320  -16.6450 C.3   500  NAD500      0.2263
     36  N1N       -2.3970   -4.3280  -17.3820 N.pl3 500  NAD500     -0.2787
     37  C2N       -2.5750   -2.9260  -17.2350 C.3   500  NAD500      0.1244
     38  C3N       -1.7770   -2.0740  -17.9790 C.2   500  NAD500      0.0544
     39  C7N       -1.9500   -0.5760  -17.8140 C.2   500  NAD500      0.2818
     40  O7N       -1.1620    0.1210  -18.4490 O.2   500  NAD500     -0.2670
     41  N7N       -2.8310   -0.0660  -16.9950 N.am  500  NAD500     -0.0839
     42  C4N       -0.7730   -2.5820  -18.9230 C.2   500  NAD500      0.0033
     43  C5N       -0.6510   -3.9970  -19.0630 C.2   500  NAD500      0.0157
     44  C6N       -1.4130   -4.8910  -18.2480 C.2   500  NAD500      0.0633
@<TRIPOS>BOND
     1    43    42    1
     2    43    44    2
     3    42    38    2
     4    40    39    2
     5    44    36    1
     6    38    39    1
     7    38    37    1
     8    39    41   am
     9    36    37    1
    10    36    35    1
    11    30    35    1
    12    30    29    1
    13    26    24    2
    14    35    33    1
    15    29    28    1
    16    29    31    1
    17    28    27    1
    18    24    27    1
    19    24    25    1
    20    24    23    1
    21    20    21    1
    22    20    19    1
    23    33    31    1
    24    33    34    1
    25     6     7    1
    26     6     5    1
    27     6     8    1
    28     9     8    1
    29    21    22    2
    30     3     1    2
    31     4     5    1
    32     4     1    1
    33    31    32    1
    34     7    12    1
    35    23     1    1
    36    19    17    2
    37     8    10    1
    38     1     2    1
    39    12    13    1
    40    12    10    1
    41    22    13    1
    42    22    16    1
    43    13    14    1
    44    10    11    1
    45    17    16    1
    46    17    18    1
    47    16    15    2
    48    14    15    1
