@<TRIPOS>MOLECULE
3il1_GLU_B_1.pdb
 10 9 0 0 0
SMALL
GASTEIGER

@<TRIPOS>ATOM
      1  N         -4.1360  -38.9450   27.6800 N.3   400  GLU400     -0.1208
      2  CA        -3.8670  -37.9900   26.6110 C.3   400  GLU400      0.1949
      3  C         -2.3680  -37.8790   26.3120 C.2   400  GLU400      0.3819
      4  O         -1.9440  -37.0620   25.4900 O.co2 400  GLU400     -0.2441
      5  CB        -4.4380  -36.6160   26.9770 C.3   400  GLU400      0.0424
      6  CG        -5.9560  -36.5210   26.8810 C.3   400  GLU400      0.1161
      7  CD        -6.4520  -36.3560   25.4480 C.2   400  GLU400      0.3649
      8  OE1       -7.6740  -36.4980   25.2210 O.co2 400  GLU400     -0.2457
      9  OE2       -5.6240  -36.0770   24.5500 O.co2 400  GLU400     -0.2457
     10  OXT       -1.5450  -38.6010   26.8820 O.co2 400  GLU400     -0.2441
@<TRIPOS>BOND
     1     9     7   ar
     2     8     7   ar
     3     7     6    1
     4     4     3   ar
     5     3     2    1
     6     3    10   ar
     7     2     5    1
     8     2     1    1
     9     6     5    1
