@<TRIPOS>MOLECULE
3il1_B5D_B_1.pdb
 14 15 0 0 0
SMALL
GASTEIGER

@<TRIPOS>ATOM
      1  C1        -3.8840  -54.4640   30.4970 C.2   801  B5D801      0.0957
      2  N1        -1.1430  -54.7970   30.8230 N.3   801  B5D801     -0.0544
      3  O1        -0.8180  -55.2090   28.4730 O.2   801  B5D801     -0.1515
      4  S1        -1.6660  -55.5820   29.5580 S.O2  801  B5D801      0.0797
      5 CL1        -6.0250  -54.7310   26.5260 Cl    801  B5D801     -0.1053
      6  C2        -3.2310  -54.8990   29.3580 C.2   801  B5D801      0.1380
      7  N2        -3.2620  -54.4540   31.6980 N.2   801  B5D801     -0.2515
      8  O2        -1.7520  -56.9340   30.0070 O.2   801  B5D801     -0.1515
      9  C3        -3.8480  -54.9060   28.1200 C.2   801  B5D801      0.0156
     10  C4        -5.1930  -54.5530   28.0290 C.3   801  B5D801      0.1252
     11  C5        -5.2150  -54.0590   30.3950 C.2   801  B5D801      0.0170
     12  C6        -5.8770  -54.1370   29.1770 C.2   801  B5D801     -0.0043
     13  C7        -1.3230  -54.3370   33.1930 C.3   801  B5D801      0.0478
     14  C8        -1.9590  -55.0390   31.9970 C.3   801  B5D801      0.1994
@<TRIPOS>BOND
     1     5    10    1
     2    10     9    1
     3    10    12    1
     4     9     6    2
     5     3     4    2
     6    12    11    2
     7     6     4    1
     8     6     1    1
     9     4     8    2
    10     4     2    1
    11    11     1    1
    12     1     7    2
    13     2    14    1
    14     7    14    1
    15    14    13    1
