@<TRIPOS>MOLECULE
3il5_B82_A_1.pdb
 27 28 0 0 0
SMALL
GASTEIGER

@<TRIPOS>ATOM
      1  S1      -187.3220  146.2720   31.6320 S.O2  401  B82401      0.0638
      2  O26     -187.8160  145.2730   32.5610 O.2   401  B82401     -0.1528
      3  O25     -188.3080  146.9700   30.8380 O.2   401  B82401     -0.1528
      4  N20     -186.1270  145.5260   30.5640 N.3   401  B82401     -0.1555
      5  C23     -185.5250  146.4530   29.5240 C.3   401  B82401      0.0958
      6  C24     -185.9080  146.0900   28.0780 C.3   401  B82401      0.0206
      7  C21     -185.0450  144.7860   31.4370 C.3   401  B82401      0.0958
      8  C22     -183.5480  145.0570   31.1870 C.3   401  B82401      0.0206
      9  C2      -186.4820  147.5670   32.6380 C.ar  401  B82401      0.1285
     10  C18     -185.7790  147.3410   33.9380 C.ar  401  B82401      0.0531
     11 BR       -185.5690  145.6840   34.8730 Br    401  B82401     -0.0476
     12  C17     -185.1580  148.4600   34.6270 C.ar  401  B82401      0.0082
     13  C16     -185.2050  149.7700   34.0840 C.ar  401  B82401      0.0052
     14  C4      -185.8770  150.0120   32.8270 C.ar  401  B82401      0.0567
     15  C5      -185.9310  151.3700   32.2270 C.2   401  B82401      0.2690
     16  O15     -185.8980  151.4830   30.9980 O.2   401  B82401     -0.2680
     17  N6      -186.0090  152.3880   33.1940 N.am  401  B82401     -0.1752
     18  C7      -186.0680  153.8140   33.0170 C.ar  401  B82401      0.0800
     19  C14     -186.0490  154.4460   31.7080 C.ar  401  B82401      0.0168
     20  C13     -186.1110  155.8600   31.5590 C.ar  401  B82401      0.0013
     21  C12     -186.1950  156.6950   32.7120 C.ar  401  B82401      0.0003
     22  C11     -186.2150  156.1220   34.0230 C.ar  401  B82401      0.0079
     23  C8      -186.1530  154.6780   34.2190 C.ar  401  B82401      0.0951
     24  C9      -186.1810  154.1580   35.6630 C.2   401  B82401      0.3890
     25  O45     -186.3850  152.9160   35.8420 O.co2 401  B82401     -0.2405
     26  O10     -185.9980  154.9980   36.6000 O.co2 401  B82401     -0.2405
     27  C3      -186.5100  148.9170   32.1150 C.ar  401  B82401      0.0250
@<TRIPOS>BOND
     1     6     5    1
     2     5     4    1
     3     4     7    1
     4     4     1    1
     5     3     1    2
     6    16    15    2
     7     8     7    1
     8    20    19   ar
     9    20    21   ar
    10     1     2    2
    11     1     9    1
    12    19    18   ar
    13    27     9   ar
    14    27    14   ar
    15    15    14    1
    16    15    17   am
    17     9    10   ar
    18    21    22   ar
    19    14    13   ar
    20    18    17    1
    21    18    23   ar
    22    10    12   ar
    23    10    11    1
    24    22    23   ar
    25    13    12   ar
    26    23    24    1
    27    24    25   ar
    28    24    26   ar
